data_image0
_chemical_formula_structural       Mg12H48C96O72
_chemical_formula_sum              "Mg12 H48 C96 O72"
_cell_length_a       12.55562
_cell_length_b       18.703390000000002
_cell_length_c       21.30369
_cell_angle_alpha    69.64205
_cell_angle_beta     73.45894
_cell_angle_gamma    88.76861999999998

_symmetry_space_group_name_H-M    'P 1'
_symmetry_Int_Tables_number       1

loop_
  _symmetry_equiv_pos_as_xyz
  'x,y,z'

loop_
  _atom_site_type_symbol
  _atom_site_label
  _atom_site_symmetry_multiplicity
  _atom_site_fract_x
  _atom_site_fract_y
  _atom_site_fract_z
  _atom_site_occupancy
  Mg  Mg1       1.0  0.90548  0.8171799999999999  0.38235  1.0000
  Mg  Mg2       1.0  0.1259  0.86545  0.24954000000000004  1.0000
  Mg  Mg3       1.0  0.34478000000000003  0.91418  0.11677000000000003  1.0000
  Mg  Mg4       1.0  0.59147  0.6771599999999999  0.62057  1.0000
  Mg  Mg5       1.0  0.37460999999999994  0.6330799999999999  0.7502600000000003  1.0000
  Mg  Mg6       1.0  0.15830000000000002  0.59171  0.8825  1.0000
  Mg  Mg7       1.0  0.09452000000000002  0.18282999999999996  0.61765  1.0000
  Mg  Mg8       1.0  0.8741  0.13454999999999995  0.7504600000000001  1.0000
  Mg  Mg9       1.0  0.65522  0.08581999999999994  0.88323  1.0000
  Mg  Mg10      1.0  0.4085300000000001  0.32284000000000007  0.37943  1.0000
  Mg  Mg11      1.0  0.62539  0.36692  0.24974  1.0000
  Mg  Mg12      1.0  0.8417  0.40830000000000005  0.1175  1.0000
  H   H1        1.0  0.2762  0.7757099999999999  0.33747  1.0000
  H   H2        1.0  0.23084999999999997  0.71691  0.65937  1.0000
  H   H3        1.0  0.07859999999999998  0.011719999999999975  0.23371000000000006  1.0000
  H   H4        1.0  0.6564  0.2133  0.2738300000000001  1.0000
  H   H5        1.0  0.94712  0.23691  0.82171  1.0000
  H   H6        1.0  0.28700999999999993  0.5391099999999999  0.6799900000000002  1.0000
  H   H7        1.0  0.19893000000000002  0.97045  0.3166  1.0000
  H   H8        1.0  0.5470900000000002  0.26822  0.17912  1.0000
  H   H9        1.0  0.9723299999999999  0.94488  0.16439000000000006  1.0000
  H   H10       1.0  0.52204  0.5501  0.83666  1.0000
  H   H11       1.0  0.4040899999999999  0.47959  0.7648000000000003  1.0000
  H   H12       1.0  0.8333299999999998  0.2818799999999999  0.7372600000000002  1.0000
  H   H13       1.0  0.45081  0.72556  0.44779000000000013  1.0000
  H   H14       1.0  0.053809999999999976  0.7601299999999999  0.55038  1.0000
  H   H15       1.0  0.017770000000000005  0.20046  0.15603  1.0000
  H   H16       1.0  0.7154400000000001  0.02280999999999998  0.35040000000000004  1.0000
  H   H17       1.0  0.012910000000000066  0.39092999999999994  0.86816  1.0000
  H   H18       1.0  0.2197  0.38625000000000004  0.63324  1.0000
  H   H19       1.0  0.26705  0.12263  0.36443000000000003  1.0000
  H   H20       1.0  0.47628  0.11736  0.13025  1.0000
  H   H21       1.0  0.79811  0.005499999999999999  0.05426  1.0000
  H   H22       1.0  0.3013  0.51322  0.055170000000000004  1.0000
  H   H23       1.0  0.46358999999999995  0.29016  0.8439900000000001  1.0000
  H   H24       1.0  0.77385  0.47118000000000004  0.6602  1.0000
  H   H25       1.0  0.7237899999999999  0.22428999999999988  0.6625300000000001  1.0000
  H   H26       1.0  0.76914  0.28309  0.34063000000000004  1.0000
  H   H27       1.0  0.9214000000000001  0.98829  0.76629  1.0000
  H   H28       1.0  0.3435999999999999  0.78671  0.72617  1.0000
  H   H29       1.0  0.05287  0.76309  0.17830000000000001  1.0000
  H   H30       1.0  0.7129899999999999  0.4608999999999999  0.32001000000000007  1.0000
  H   H31       1.0  0.8010599999999999  0.029549999999999972  0.6834000000000001  1.0000
  H   H32       1.0  0.45291000000000003  0.7317799999999999  0.82088  1.0000
  H   H33       1.0  0.027660000000000025  0.05512  0.83562  1.0000
  H   H34       1.0  0.47795  0.44989999999999997  0.16334000000000004  1.0000
  H   H35       1.0  0.5959100000000003  0.52041  0.23520000000000002  1.0000
  H   H36       1.0  0.16667000000000004  0.7181299999999998  0.26275  1.0000
  H   H37       1.0  0.5491800000000002  0.2744400000000001  0.55221  1.0000
  H   H38       1.0  0.9461899999999999  0.23986999999999997  0.4496200000000001  1.0000
  H   H39       1.0  0.98223  0.79954  0.84397  1.0000
  H   H40       1.0  0.2845600000000001  0.9772  0.6496  1.0000
  H   H41       1.0  0.98709  0.60907  0.13185  1.0000
  H   H42       1.0  0.78029  0.6137499999999999  0.36676  1.0000
  H   H43       1.0  0.73294  0.8773699999999999  0.63557  1.0000
  H   H44       1.0  0.52371  0.88264  0.86975  1.0000
  H   H45       1.0  0.20189000000000001  0.9945  0.94574  1.0000
  H   H46       1.0  0.6987000000000001  0.48678999999999994  0.9448300000000001  1.0000
  H   H47       1.0  0.53641  0.7098399999999998  0.15601  1.0000
  H   H48       1.0  0.22614999999999993  0.5288299999999999  0.3398000000000001  1.0000
  C   C1        1.0  0.10332999999999996  0.7851899999999999  0.41409000000000007  1.0000
  C   C2        1.0  0.18059000000000003  0.7624  0.45699000000000006  1.0000
  C   C3        1.0  0.29421  0.75241  0.42702000000000007  1.0000
  C   C4        1.0  0.36418  0.7337599999999999  0.4698  1.0000
  C   C5        1.0  0.32504999999999995  0.7257599999999998  0.54072  1.0000
  C   C6        1.0  0.21132  0.73533  0.57074  1.0000
  C   C7        1.0  0.14080999999999996  0.7527499999999999  0.5282800000000002  1.0000
  C   C8        1.0  0.40428999999999987  0.7079799999999999  0.5823700000000003  1.0000
  C   C9        1.0  0.89842  0.9536399999999999  0.31939  1.0000
  C   C10       1.0  0.88516  0.034950000000000016  0.28512  1.0000
  C   C11       1.0  0.97248  0.08576999999999999  0.22993  1.0000
  C   C12       1.0  0.9518900000000001  0.16143  0.19865000000000005  1.0000
  C   C13       1.0  0.8483200000000001  0.18855  0.22135  1.0000
  C   C14       1.0  0.76095  0.13803  0.27697000000000005  1.0000
  C   C15       1.0  0.7813200000000001  0.06206999999999999  0.30792  1.0000
  C   C16       1.0  0.8368999999999998  0.26992999999999995  0.18587000000000004  1.0000
  C   C17       1.0  0.06903  0.2660299999999999  0.7073900000000001  1.0000
  C   C18       1.0  0.09234000000000002  0.32819000000000004  0.73042  1.0000
  C   C19       1.0  0.032260000000000046  0.3294099999999999  0.79774  1.0000
  C   C20       1.0  0.05763  0.38972  0.81678  1.0000
  C   C21       1.0  0.14105  0.44827  0.7712500000000001  1.0000
  C   C22       1.0  0.20015  0.44747999999999993  0.70363  1.0000
  C   C23       1.0  0.17471  0.38724  0.68461  1.0000
  C   C24       1.0  0.16883  0.5084899999999999  0.79518  1.0000
  C   C25       1.0  0.32265000000000005  0.9990499999999999  0.20296000000000003  1.0000
  C   C26       1.0  0.34668  0.06054999999999999  0.22651  1.0000
  C   C27       1.0  0.28620999999999996  0.06173999999999996  0.29367000000000004  1.0000
  C   C28       1.0  0.31253  0.12125999999999999  0.31331  1.0000
  C   C29       1.0  0.39754  0.179  0.26859  1.0000
  C   C30       1.0  0.45786999999999994  0.178  0.20126000000000002  1.0000
  C   C31       1.0  0.43111  0.11867  0.18147  1.0000
  C   C32       1.0  0.42381  0.23898999999999998  0.29323  1.0000
  C   C33       1.0  0.14864  0.95001  0.0847  1.0000
  C   C34       1.0  0.07142999999999998  0.97641  0.04214  1.0000
  C   C35       1.0  0.95582  0.97941  0.07381  1.0000
  C   C36       1.0  0.8863900000000001  0.0028599999999999997  0.0309  1.0000
  C   C37       1.0  0.34947000000000006  0.55147  0.91684  1.0000
  C   C38       1.0  0.4276099999999998  0.5247699999999998  0.9586300000000002  1.0000
  C   C39       1.0  0.5415000000000002  0.5175699999999999  0.92644  1.0000
  C   C40       1.0  0.38821000000000006  0.5072  0.03137  1.0000
  C   C41       1.0  0.59032  0.53937  0.6860100000000002  1.0000
  C   C42       1.0  0.60079  0.45759  0.7201  1.0000
  C   C43       1.0  0.51108  0.4058999999999999  0.77221  1.0000
  C   C44       1.0  0.5310999999999999  0.3300199999999999  0.8036  1.0000
  C   C45       1.0  0.6366200000000001  0.30372  0.78372  1.0000
  C   C46       1.0  0.7258299999999999  0.3552699999999999  0.7309500000000002  1.0000
  C   C47       1.0  0.7060199999999999  0.43122999999999984  0.70009  1.0000
  C   C48       1.0  0.6495600000000001  0.22247000000000003  0.81839  1.0000
  C   C49       1.0  0.8966699999999997  0.21481999999999993  0.5859100000000002  1.0000
  C   C50       1.0  0.81941  0.23759999999999998  0.54301  1.0000
  C   C51       1.0  0.7057900000000001  0.24758999999999998  0.57298  1.0000
  C   C52       1.0  0.6358199999999998  0.26624  0.53021  1.0000
  C   C53       1.0  0.67495  0.2742399999999999  0.45928000000000013  1.0000
  C   C54       1.0  0.78868  0.26468  0.42926  1.0000
  C   C55       1.0  0.85919  0.24725  0.47172000000000003  1.0000
  C   C56       1.0  0.5957100000000001  0.29202  0.41763  1.0000
  C   C57       1.0  0.10158  0.04637000000000001  0.68061  1.0000
  C   C58       1.0  0.11484000000000003  0.96505  0.71488  1.0000
  C   C59       1.0  0.027509999999999982  0.9142299999999999  0.77007  1.0000
  C   C60       1.0  0.048099999999999934  0.8385799999999998  0.8013500000000002  1.0000
  C   C61       1.0  0.15167  0.81145  0.7786500000000001  1.0000
  C   C62       1.0  0.23903999999999992  0.86197  0.7230300000000002  1.0000
  C   C63       1.0  0.21867999999999996  0.9379299999999998  0.6920800000000003  1.0000
  C   C64       1.0  0.1631  0.73008  0.81413  1.0000
  C   C65       1.0  0.93096  0.73397  0.29262  1.0000
  C   C66       1.0  0.90766  0.67181  0.26958  1.0000
  C   C67       1.0  0.9677399999999999  0.67059  0.20227000000000003  1.0000
  C   C68       1.0  0.94237  0.61028  0.18322000000000005  1.0000
  C   C69       1.0  0.85895  0.55173  0.22875  1.0000
  C   C70       1.0  0.79984  0.5525299999999997  0.29637000000000013  1.0000
  C   C71       1.0  0.82528  0.6127599999999999  0.31539  1.0000
  C   C72       1.0  0.8311699999999999  0.49152  0.20482  1.0000
  C   C73       1.0  0.6773499999999999  0.0009499999999999372  0.7970400000000001  1.0000
  C   C74       1.0  0.6533099999999998  0.9394499999999998  0.7734900000000001  1.0000
  C   C75       1.0  0.7137899999999997  0.9382699999999997  0.7063300000000002  1.0000
  C   C76       1.0  0.68747  0.87874  0.6866900000000002  1.0000
  C   C77       1.0  0.60246  0.8210100000000001  0.73141  1.0000
  C   C78       1.0  0.5421299999999999  0.822  0.7987400000000001  1.0000
  C   C79       1.0  0.5688899999999999  0.8813299999999998  0.81853  1.0000
  C   C80       1.0  0.5761900000000001  0.7610199999999999  0.7067700000000001  1.0000
  C   C81       1.0  0.85136  0.050000000000000024  0.91531  1.0000
  C   C82       1.0  0.9285699999999998  0.023599999999999923  0.9578700000000002  1.0000
  C   C83       1.0  0.044180000000000004  0.020589999999999997  0.9262000000000001  1.0000
  C   C84       1.0  0.1136  0.9971400000000002  0.9691  1.0000
  C   C85       1.0  0.65052  0.44854  0.08316  1.0000
  C   C86       1.0  0.5723899999999998  0.47522999999999993  0.04137  1.0000
  C   C87       1.0  0.4585  0.48243  0.07356  1.0000
  C   C88       1.0  0.61179  0.4927999999999998  0.9686300000000002  1.0000
  C   C89       1.0  0.40968000000000004  0.46062999999999993  0.31399000000000005  1.0000
  C   C90       1.0  0.39921  0.5424099999999998  0.27990000000000004  1.0000
  C   C91       1.0  0.48892  0.5940999999999999  0.22779000000000002  1.0000
  C   C92       1.0  0.46890000000000004  0.66998  0.1964  1.0000
  C   C93       1.0  0.36338  0.69628  0.21628000000000006  1.0000
  C   C94       1.0  0.27417  0.6447299999999999  0.26905000000000007  1.0000
  C   C95       1.0  0.29396999999999995  0.56877  0.29991000000000007  1.0000
  C   C96       1.0  0.3504299999999999  0.77754  0.18161000000000002  1.0000
  O   O1        1.0  5.999999999998085e-05  0.78876  0.44423000000000007  1.0000
  O   O2        1.0  0.14180000000000006  0.80177  0.34706  1.0000
  O   O3        1.0  0.50769  0.70506  0.55213  1.0000
  O   O4        1.0  0.3686699999999999  0.69573  0.6489300000000001  1.0000
  O   O5        1.0  0.3379  0.7600599999999998  0.35867  1.0000
  O   O6        1.0  0.16836999999999994  0.7295300000000001  0.63863  1.0000
  O   O7        1.0  0.8201300000000001  0.9101399999999998  0.37108  1.0000
  O   O8        1.0  0.9908800000000001  0.9231699999999999  0.29796  1.0000
  O   O9        1.0  0.74707  0.30221  0.20722000000000002  1.0000
  O   O10       1.0  0.9156  0.31112  0.13291000000000003  1.0000
  O   O11       1.0  0.07613000000000003  0.06559999999999999  0.20568  1.0000
  O   O12       1.0  0.6577  0.15914  0.30156  1.0000
  O   O13       1.0  0.13132999999999986  0.2627299999999999  0.6493500000000002  1.0000
  O   O14       1.0  0.98547  0.21597999999999998  0.7468  1.0000
  O   O15       1.0  0.2543599999999999  0.5568499999999998  0.7556500000000003  1.0000
  O   O16       1.0  0.11017000000000006  0.5120499999999999  0.85391  1.0000
  O   O17       1.0  0.9521799999999999  0.2738699999999999  0.8449600000000003  1.0000
  O   O18       1.0  0.28035  0.5028099999999999  0.65631  1.0000
  O   O19       1.0  0.23845  0.9491199999999999  0.24185000000000004  1.0000
  O   O20       1.0  0.38548  0.99598  0.14503000000000002  1.0000
  O   O21       1.0  0.36449  0.24057999999999993  0.35255000000000003  1.0000
  O   O22       1.0  0.50761  0.28904  0.25404  1.0000
  O   O23       1.0  0.20475  0.006910000000000002  0.34022  1.0000
  O   O24       1.0  0.5402  0.23245  0.15501000000000004  1.0000
  O   O25       1.0  0.10984000000000002  0.9279199999999999  0.15218  1.0000
  O   O26       1.0  0.25244  0.9487999999999999  0.05398  1.0000
  O   O27       1.0  0.9097900000000001  0.9604599999999999  0.14401  1.0000
  O   O28       1.0  0.38564  0.56966  0.84949  1.0000
  O   O29       1.0  0.24717  0.55648  0.9477800000000001  1.0000
  O   O30       1.0  0.5851700000000001  0.53398  0.8564000000000002  1.0000
  O   O31       1.0  0.6718999999999999  0.58215  0.63655  1.0000
  O   O32       1.0  0.49793999999999994  0.57073  0.70496  1.0000
  O   O33       1.0  0.74264  0.19227999999999995  0.7981  1.0000
  O   O34       1.0  0.57063  0.17891  0.86947  1.0000
  O   O35       1.0  0.4058399999999998  0.4257499999999999  0.7933000000000002  1.0000
  O   O36       1.0  0.8307  0.33557  0.70873  1.0000
  O   O37       1.0  0.99994  0.21124  0.55578  1.0000
  O   O38       1.0  0.8581999999999999  0.19822999999999993  0.6529400000000001  1.0000
  O   O39       1.0  0.49231  0.2949399999999999  0.44787000000000005  1.0000
  O   O40       1.0  0.63133  0.30428  0.35107  1.0000
  O   O41       1.0  0.6620999999999999  0.23993999999999996  0.64134  1.0000
  O   O42       1.0  0.83163  0.27047  0.3613700000000001  1.0000
  O   O43       1.0  0.17985999999999994  0.08987000000000002  0.62893  1.0000
  O   O44       1.0  0.009119999999999979  0.07684000000000003  0.70204  1.0000
  O   O45       1.0  0.2529199999999999  0.6978  0.7927800000000003  1.0000
  O   O46       1.0  0.08439999999999989  0.6888899999999999  0.8670900000000001  1.0000
  O   O47       1.0  0.92387  0.9344099999999999  0.79432  1.0000
  O   O48       1.0  0.34230000000000005  0.8408599999999999  0.69844  1.0000
  O   O49       1.0  0.86866  0.7372699999999999  0.35066  1.0000
  O   O50       1.0  0.014519999999999974  0.7840199999999999  0.2532100000000001  1.0000
  O   O51       1.0  0.74563  0.44316  0.24435000000000004  1.0000
  O   O52       1.0  0.88983  0.48795  0.14609  1.0000
  O   O53       1.0  0.04782  0.72613  0.15504  1.0000
  O   O54       1.0  0.7196499999999999  0.49719  0.34369  1.0000
  O   O55       1.0  0.7615500000000001  0.050889999999999914  0.7581500000000002  1.0000
  O   O56       1.0  0.6145199999999998  0.004029999999999953  0.8549700000000001  1.0000
  O   O57       1.0  0.6355099999999999  0.7594299999999999  0.6474500000000002  1.0000
  O   O58       1.0  0.49238999999999994  0.71096  0.74596  1.0000
  O   O59       1.0  0.7952500000000003  0.9930899999999999  0.65978  1.0000
  O   O60       1.0  0.45979999999999993  0.76756  0.8449900000000001  1.0000
  O   O61       1.0  0.8901599999999997  0.07207999999999992  0.8478200000000001  1.0000
  O   O62       1.0  0.7475500000000002  0.05120999999999996  0.9460300000000001  1.0000
  O   O63       1.0  0.09020999999999986  0.039539999999999915  0.8560000000000002  1.0000
  O   O64       1.0  0.61436  0.43033999999999994  0.15051000000000006  1.0000
  O   O65       1.0  0.75283  0.44352  0.05222  1.0000
  O   O66       1.0  0.41483  0.46603  0.1436  1.0000
  O   O67       1.0  0.3281  0.41786  0.36345  1.0000
  O   O68       1.0  0.5020599999999998  0.42928  0.2950400000000001  1.0000
  O   O69       1.0  0.25736  0.8077199999999999  0.20191  1.0000
  O   O70       1.0  0.42937  0.8210999999999999  0.13053  1.0000
  O   O71       1.0  0.59416  0.57425  0.20670000000000005  1.0000
  O   O72       1.0  0.16928999999999997  0.66443  0.29127  1.0000
