data_image0
_chemical_formula_structural       Ag6H96C128S8N16
_chemical_formula_sum              "Ag6 H96 C128 S8 N16"
_cell_length_a       13.95169
_cell_length_b       14.93846
_cell_length_c       20.37198
_cell_angle_alpha    90.0
_cell_angle_beta     108.33841
_cell_angle_gamma    90.0

_symmetry_space_group_name_H-M    'P 1'
_symmetry_Int_Tables_number       1

loop_
  _symmetry_equiv_pos_as_xyz
  'x,y,z'

loop_
  _atom_site_type_symbol
  _atom_site_label
  _atom_site_symmetry_multiplicity
  _atom_site_fract_x
  _atom_site_fract_y
  _atom_site_fract_z
  _atom_site_occupancy
  Ag  Ag1       1.0  0.29324000000000006  0.8323000000000003  0.32562  1.0000
  Ag  Ag2       1.0  0.20675999999999994  0.8323000000000003  0.67438  1.0000
  Ag  Ag3       1.0  0.7067600000000003  0.16770000000000004  0.67438  1.0000
  Ag  Ag4       1.0  0.79324  0.16770000000000004  0.32562  1.0000
  Ag  Ag5       1.0  0.25  0.29018  0.0  1.0000
  Ag  Ag6       1.0  0.75  0.70982  0.0  1.0000
  H   H1        1.0  0.17386000000000004  0.88304  0.0409  1.0000
  H   H2        1.0  0.10636999999999996  0.97834  0.93703  1.0000
  H   H3        1.0  0.08222000000000003  0.20064000000000004  0.06554  1.0000
  H   H4        1.0  0.14971  0.10656000000000003  0.17041  1.0000
  H   H5        1.0  0.9986700000000002  0.20696000000000006  0.94116  1.0000
  H   H6        1.0  0.9938900000000002  0.11048000000000001  0.88833  1.0000
  H   H7        1.0  0.11911  0.2977800000000001  0.80726  1.0000
  H   H8        1.0  0.012179999999999969  0.22623  0.79285  1.0000
  H   H9        1.0  0.86645  0.27537  0.82838  1.0000
  H   H10       1.0  0.77992  0.39799000000000007  0.86993  1.0000
  H   H11       1.0  0.05681  0.55242  0.92692  1.0000
  H   H12       1.0  0.1423700000000001  0.42859  0.8868000000000001  1.0000
  H   H13       1.0  0.7238600000000001  0.8311400000000002  0.55029  1.0000
  H   H14       1.0  0.63386  0.70238  0.48059  1.0000
  H   H15       1.0  0.35019  0.8023200000000003  0.4933100000000001  1.0000
  H   H16       1.0  0.43771  0.93246  0.56099  1.0000
  H   H17       1.0  0.35528000000000004  0.6595900000000002  0.43990000000000007  1.0000
  H   H18       1.0  0.47262  0.6071900000000001  0.44339  1.0000
  H   H19       1.0  0.27584  0.59688  0.31736  1.0000
  H   H20       1.0  0.3127  0.62834  0.24476  1.0000
  H   H21       1.0  0.49363  0.57727  0.24584  1.0000
  H   H22       1.0  0.60947  0.44874  0.26543  1.0000
  H   H23       1.0  0.4511200000000002  0.3239900000000001  0.39348000000000005  1.0000
  H   H24       1.0  0.33462  0.45389  0.37279  1.0000
  H   H25       1.0  0.32614  0.88304  0.9591000000000001  1.0000
  H   H26       1.0  0.3936300000000001  0.97834  0.06297  1.0000
  H   H27       1.0  0.4177800000000001  0.20064000000000004  0.9344600000000001  1.0000
  H   H28       1.0  0.35029000000000016  0.10656000000000003  0.8296000000000001  1.0000
  H   H29       1.0  0.50133  0.20696000000000006  0.05884000000000001  1.0000
  H   H30       1.0  0.50612  0.11048000000000001  0.11167  1.0000
  H   H31       1.0  0.38089  0.2977800000000001  0.19275  1.0000
  H   H32       1.0  0.48782  0.22623  0.20716  1.0000
  H   H33       1.0  0.63355  0.27537  0.17162  1.0000
  H   H34       1.0  0.7200800000000003  0.39799000000000007  0.13007  1.0000
  H   H35       1.0  0.44319  0.55242  0.07309  1.0000
  H   H36       1.0  0.35763  0.42859  0.11321000000000002  1.0000
  H   H37       1.0  0.7761500000000001  0.8311400000000002  0.44972000000000006  1.0000
  H   H38       1.0  0.8661400000000002  0.70238  0.5194100000000001  1.0000
  H   H39       1.0  0.14980999999999997  0.8023200000000003  0.5067  1.0000
  H   H40       1.0  0.06229  0.93246  0.43901  1.0000
  H   H41       1.0  0.14472000000000013  0.6595900000000002  0.5601100000000001  1.0000
  H   H42       1.0  0.027380000000000005  0.6071900000000001  0.55661  1.0000
  H   H43       1.0  0.22416  0.59688  0.68264  1.0000
  H   H44       1.0  0.1873000000000001  0.62834  0.75524  1.0000
  H   H45       1.0  0.006370000000000003  0.57727  0.75416  1.0000
  H   H46       1.0  0.8905300000000003  0.44874  0.73458  1.0000
  H   H47       1.0  0.04888  0.3239900000000001  0.60653  1.0000
  H   H48       1.0  0.16538000000000003  0.45389  0.62721  1.0000
  H   H49       1.0  0.82614  0.11696000000000002  0.9591000000000001  1.0000
  H   H50       1.0  0.89363  0.02166  0.06297  1.0000
  H   H51       1.0  0.9177800000000003  0.7993500000000002  0.9344600000000001  1.0000
  H   H52       1.0  0.85029  0.8934400000000002  0.8296000000000001  1.0000
  H   H53       1.0  0.0013300000000000052  0.7930400000000002  0.05884000000000001  1.0000
  H   H54       1.0  0.006119999999999998  0.8895200000000002  0.11167  1.0000
  H   H55       1.0  0.8808900000000002  0.70222  0.19275  1.0000
  H   H56       1.0  0.98782  0.7737700000000002  0.20716  1.0000
  H   H57       1.0  0.13355  0.7246300000000002  0.17162  1.0000
  H   H58       1.0  0.22008  0.6020100000000003  0.13007  1.0000
  H   H59       1.0  0.9431900000000002  0.44758000000000003  0.07309  1.0000
  H   H60       1.0  0.8576300000000004  0.57141  0.11321000000000002  1.0000
  H   H61       1.0  0.27614  0.16886  0.44972000000000006  1.0000
  H   H62       1.0  0.3661400000000001  0.29762  0.5194100000000001  1.0000
  H   H63       1.0  0.64981  0.19768  0.5067  1.0000
  H   H64       1.0  0.56229  0.06754  0.43901  1.0000
  H   H65       1.0  0.6447200000000003  0.34041  0.5601100000000001  1.0000
  H   H66       1.0  0.52738  0.3928100000000001  0.55661  1.0000
  H   H67       1.0  0.7241700000000002  0.4031200000000001  0.68264  1.0000
  H   H68       1.0  0.68731  0.37166  0.75524  1.0000
  H   H69       1.0  0.5063800000000002  0.42273  0.75416  1.0000
  H   H70       1.0  0.3905300000000001  0.55126  0.73458  1.0000
  H   H71       1.0  0.54888  0.67601  0.60653  1.0000
  H   H72       1.0  0.6653800000000001  0.5461  0.62721  1.0000
  H   H73       1.0  0.67386  0.11696000000000002  0.0409  1.0000
  H   H74       1.0  0.6063700000000001  0.02166  0.93703  1.0000
  H   H75       1.0  0.58222  0.7993500000000002  0.06554  1.0000
  H   H76       1.0  0.6497100000000001  0.8934400000000002  0.17041  1.0000
  H   H77       1.0  0.4986700000000001  0.7930400000000002  0.94116  1.0000
  H   H78       1.0  0.49389  0.8895200000000002  0.88833  1.0000
  H   H79       1.0  0.61911  0.70222  0.80726  1.0000
  H   H80       1.0  0.51218  0.7737700000000002  0.79285  1.0000
  H   H81       1.0  0.36645  0.7246300000000002  0.82838  1.0000
  H   H82       1.0  0.2799200000000001  0.6020100000000003  0.86993  1.0000
  H   H83       1.0  0.5568100000000001  0.44758000000000003  0.92692  1.0000
  H   H84       1.0  0.6423700000000003  0.57141  0.8868000000000001  1.0000
  H   H85       1.0  0.22386  0.16886  0.55029  1.0000
  H   H86       1.0  0.13386000000000006  0.29762  0.48059  1.0000
  H   H87       1.0  0.8501900000000002  0.19768  0.4933100000000001  1.0000
  H   H88       1.0  0.9377100000000003  0.06754  0.56099  1.0000
  H   H89       1.0  0.85528  0.34041  0.43990000000000007  1.0000
  H   H90       1.0  0.97262  0.3928100000000001  0.44339  1.0000
  H   H91       1.0  0.77584  0.4031200000000001  0.31736  1.0000
  H   H92       1.0  0.8127  0.37166  0.24476  1.0000
  H   H93       1.0  0.9936300000000001  0.42273  0.24584  1.0000
  H   H94       1.0  0.10947000000000003  0.55126  0.26543  1.0000
  H   H95       1.0  0.9511200000000002  0.67601  0.39348000000000005  1.0000
  H   H96       1.0  0.83462  0.5461  0.37279  1.0000
  C   C1        1.0  0.19352000000000005  0.9313800000000001  0.17099000000000003  1.0000
  C   C2        1.0  0.16518  0.9877600000000001  0.11295  1.0000
  C   C3        1.0  0.15393  0.9524  0.04612  1.0000
  C   C4        1.0  0.11605000000000006  0.00583  0.9882000000000001  1.0000
  C   C5        1.0  0.08700000000000004  0.09491000000000002  0.99411  1.0000
  C   C6        1.0  0.10175000000000002  0.13087  0.06068  1.0000
  C   C7        1.0  0.13977  0.07883  0.11936000000000001  1.0000
  C   C8        1.0  0.04246999999999996  0.1506  0.93105  1.0000
  C   C9        1.0  0.06399000000000002  0.2708000000000001  0.8304  1.0000
  C   C10       1.0  0.010519999999999988  0.34336000000000005  0.85464  1.0000
  C   C11       1.0  0.9080600000000002  0.33568  0.85069  1.0000
  C   C12       1.0  0.85897  0.40439  0.87325  1.0000
  C   C13       1.0  0.9121000000000002  0.4843900000000001  0.9007  1.0000
  C   C14       1.0  0.015710000000000033  0.49174  0.90553  1.0000
  C   C15       1.0  0.06315000000000005  0.4223700000000001  0.8831200000000001  1.0000
  C   C16       1.0  0.8639000000000002  0.55649  0.92154  1.0000
  C   C17       1.0  0.6334100000000003  0.9704700000000003  0.59182  1.0000
  C   C18       1.0  0.5863700000000002  0.89205  0.55885  1.0000
  C   C19       1.0  0.64226  0.8248  0.5372200000000001  1.0000
  C   C20       1.0  0.59167  0.75286  0.49862  1.0000
  C   C21       1.0  0.48578  0.74391  0.48146000000000005  1.0000
  C   C22       1.0  0.4316300000000001  0.8091000000000003  0.50549  1.0000
  C   C23       1.0  0.48037000000000013  0.88193  0.54358  1.0000
  C   C24       1.0  0.4306300000000001  0.6705300000000002  0.43522000000000005  1.0000
  C   C25       1.0  0.34085  0.60603  0.2988  1.0000
  C   C26       1.0  0.40592  0.52518  0.30833000000000005  1.0000
  C   C27       1.0  0.4845400000000002  0.52213  0.27825000000000005  1.0000
  C   C28       1.0  0.55057  0.4506400000000001  0.28983  1.0000
  C   C29       1.0  0.5399700000000001  0.3782000000000001  0.33209000000000005  1.0000
  C   C30       1.0  0.4600900000000001  0.37959  0.36154  1.0000
  C   C31       1.0  0.39512  0.45266  0.34963  1.0000
  C   C32       1.0  0.61025  0.30738  0.34667  1.0000
  C   C33       1.0  0.3064800000000001  0.9313800000000001  0.82901  1.0000
  C   C34       1.0  0.3348200000000001  0.9877600000000001  0.88705  1.0000
  C   C35       1.0  0.3460700000000001  0.9524  0.95388  1.0000
  C   C36       1.0  0.3839500000000001  0.00583  0.01181  1.0000
  C   C37       1.0  0.413  0.09491000000000002  0.00589  1.0000
  C   C38       1.0  0.39825  0.13087  0.93933  1.0000
  C   C39       1.0  0.3602300000000001  0.07883  0.8806400000000001  1.0000
  C   C40       1.0  0.45753  0.1506  0.06895  1.0000
  C   C41       1.0  0.43601  0.2708000000000001  0.16961  1.0000
  C   C42       1.0  0.48948  0.34336000000000005  0.14537  1.0000
  C   C43       1.0  0.59194  0.33568  0.14931  1.0000
  C   C44       1.0  0.6410400000000003  0.40439  0.12676  1.0000
  C   C45       1.0  0.5879  0.4843900000000001  0.09931  1.0000
  C   C46       1.0  0.48429  0.49174  0.09448  1.0000
  C   C47       1.0  0.43686  0.4223700000000001  0.11688  1.0000
  C   C48       1.0  0.6361  0.55649  0.07847  1.0000
  C   C49       1.0  0.86659  0.9704700000000003  0.40819  1.0000
  C   C50       1.0  0.91363  0.89205  0.44115000000000004  1.0000
  C   C51       1.0  0.85774  0.8248  0.46278  1.0000
  C   C52       1.0  0.90833  0.75286  0.50138  1.0000
  C   C53       1.0  0.014220000000000017  0.74391  0.51855  1.0000
  C   C54       1.0  0.06837000000000004  0.8091000000000003  0.49452  1.0000
  C   C55       1.0  0.01963000000000007  0.88193  0.45643000000000006  1.0000
  C   C56       1.0  0.06937000000000007  0.6705300000000002  0.5647800000000001  1.0000
  C   C57       1.0  0.15915  0.60603  0.70121  1.0000
  C   C58       1.0  0.09408  0.52518  0.69167  1.0000
  C   C59       1.0  0.01546000000000005  0.52213  0.72175  1.0000
  C   C60       1.0  0.94943  0.4506400000000001  0.71017  1.0000
  C   C61       1.0  0.96003  0.3782000000000001  0.66791  1.0000
  C   C62       1.0  0.03991  0.37959  0.63847  1.0000
  C   C63       1.0  0.10488000000000004  0.45266  0.65037  1.0000
  C   C64       1.0  0.8897500000000003  0.30738  0.65333  1.0000
  C   C65       1.0  0.8064800000000002  0.06861  0.82901  1.0000
  C   C66       1.0  0.8348200000000002  0.012240000000000003  0.88705  1.0000
  C   C67       1.0  0.84607  0.04760000000000002  0.95388  1.0000
  C   C68       1.0  0.8839500000000002  0.99416  0.01181  1.0000
  C   C69       1.0  0.913  0.90508  0.00589  1.0000
  C   C70       1.0  0.8982500000000001  0.8691300000000001  0.93933  1.0000
  C   C71       1.0  0.8602300000000003  0.9211700000000003  0.8806400000000001  1.0000
  C   C72       1.0  0.9575300000000001  0.8494000000000003  0.06895  1.0000
  C   C73       1.0  0.93601  0.7292  0.16961  1.0000
  C   C74       1.0  0.98948  0.65663  0.14537  1.0000
  C   C75       1.0  0.09194  0.66432  0.14931  1.0000
  C   C76       1.0  0.14103000000000004  0.5956100000000002  0.12676  1.0000
  C   C77       1.0  0.08790000000000003  0.51561  0.09931  1.0000
  C   C78       1.0  0.9842900000000002  0.50825  0.09448  1.0000
  C   C79       1.0  0.9368600000000001  0.57763  0.11688  1.0000
  C   C80       1.0  0.1361  0.4435100000000001  0.07847  1.0000
  C   C81       1.0  0.36659  0.02953  0.40819  1.0000
  C   C82       1.0  0.41363000000000005  0.10795000000000003  0.44115000000000004  1.0000
  C   C83       1.0  0.3577400000000001  0.1752  0.46278  1.0000
  C   C84       1.0  0.40833  0.24714000000000005  0.50138  1.0000
  C   C85       1.0  0.51423  0.2560900000000001  0.51855  1.0000
  C   C86       1.0  0.56838  0.19090000000000004  0.49452  1.0000
  C   C87       1.0  0.51963  0.11806000000000003  0.45643000000000006  1.0000
  C   C88       1.0  0.5693700000000003  0.3294700000000001  0.5647800000000001  1.0000
  C   C89       1.0  0.65915  0.3939700000000001  0.70121  1.0000
  C   C90       1.0  0.59408  0.47482000000000013  0.69167  1.0000
  C   C91       1.0  0.5154600000000001  0.47787000000000013  0.72175  1.0000
  C   C92       1.0  0.44943  0.54936  0.71017  1.0000
  C   C93       1.0  0.46003  0.6218  0.66791  1.0000
  C   C94       1.0  0.53991  0.62041  0.63847  1.0000
  C   C95       1.0  0.60489  0.54733  0.65037  1.0000
  C   C96       1.0  0.38975  0.69261  0.65333  1.0000
  C   C97       1.0  0.6935200000000001  0.06861  0.17099000000000003  1.0000
  C   C98       1.0  0.6651800000000001  0.012240000000000003  0.11295  1.0000
  C   C99       1.0  0.6539300000000001  0.04760000000000002  0.04612  1.0000
  C   C100      1.0  0.61605  0.99416  0.9882000000000001  1.0000
  C   C101      1.0  0.5870000000000001  0.90508  0.99411  1.0000
  C   C102      1.0  0.60175  0.8691300000000001  0.06068  1.0000
  C   C103      1.0  0.63977  0.9211700000000003  0.11936000000000001  1.0000
  C   C104      1.0  0.54247  0.8494000000000003  0.93105  1.0000
  C   C105      1.0  0.5639900000000001  0.7292  0.8304  1.0000
  C   C106      1.0  0.51052  0.65663  0.85464  1.0000
  C   C107      1.0  0.40806  0.66432  0.85069  1.0000
  C   C108      1.0  0.35897000000000007  0.5956100000000002  0.87325  1.0000
  C   C109      1.0  0.4121  0.51561  0.9007  1.0000
  C   C110      1.0  0.5157100000000001  0.50825  0.90553  1.0000
  C   C111      1.0  0.5631500000000003  0.57763  0.8831200000000001  1.0000
  C   C112      1.0  0.3639  0.4435100000000001  0.92154  1.0000
  C   C113      1.0  0.13341  0.02953  0.59182  1.0000
  C   C114      1.0  0.08637000000000004  0.10795000000000003  0.55885  1.0000
  C   C115      1.0  0.14226000000000008  0.1752  0.5372200000000001  1.0000
  C   C116      1.0  0.09167  0.24714000000000005  0.49862  1.0000
  C   C117      1.0  0.9857800000000002  0.2560900000000001  0.48146000000000005  1.0000
  C   C118      1.0  0.9316300000000002  0.19090000000000004  0.50549  1.0000
  C   C119      1.0  0.9803700000000001  0.11806000000000003  0.54358  1.0000
  C   C120      1.0  0.9306300000000001  0.3294700000000001  0.43522000000000005  1.0000
  C   C121      1.0  0.8408500000000002  0.3939700000000001  0.2988  1.0000
  C   C122      1.0  0.9059200000000002  0.47482000000000013  0.30833000000000005  1.0000
  C   C123      1.0  0.9845500000000003  0.47787000000000013  0.27825000000000005  1.0000
  C   C124      1.0  0.050570000000000004  0.54936  0.28983  1.0000
  C   C125      1.0  0.03997000000000006  0.6218  0.33209000000000005  1.0000
  C   C126      1.0  0.9600900000000002  0.62041  0.36154  1.0000
  C   C127      1.0  0.8951200000000002  0.54733  0.34963  1.0000
  C   C128      1.0  0.11025000000000006  0.69261  0.34667  1.0000
  S   S1        1.0  0.1428100000000001  0.19664  0.9006800000000001  1.0000
  S   S2        1.0  0.41343  0.70475  0.34515  1.0000
  S   S3        1.0  0.35719000000000006  0.19664  0.09932  1.0000
  S   S4        1.0  0.08656999999999995  0.70475  0.65485  1.0000
  S   S5        1.0  0.8571900000000002  0.8033600000000002  0.09932  1.0000
  S   S6        1.0  0.58657  0.29524  0.65485  1.0000
  S   S7        1.0  0.64282  0.8033600000000002  0.9006800000000001  1.0000
  S   S8        1.0  0.9134300000000002  0.29524  0.34515  1.0000
  N   N1        1.0  0.21197000000000002  0.8817400000000002  0.21827000000000002  1.0000
  N   N2        1.0  0.82458  0.6185800000000002  0.9379  1.0000
  N   N3        1.0  0.66932  0.03921  0.61509  1.0000
  N   N4        1.0  0.66978  0.24888000000000005  0.36051  1.0000
  N   N5        1.0  0.28803  0.8817400000000002  0.78174  1.0000
  N   N6        1.0  0.6754300000000002  0.6185800000000002  0.06211  1.0000
  N   N7        1.0  0.8306800000000001  0.03921  0.38492  1.0000
  N   N8        1.0  0.83022  0.24888000000000005  0.6395  1.0000
  N   N9        1.0  0.7880300000000002  0.11825  0.78174  1.0000
  N   N10       1.0  0.17542  0.3814200000000001  0.06211  1.0000
  N   N11       1.0  0.33068  0.9607800000000002  0.38492  1.0000
  N   N12       1.0  0.33022  0.7511200000000001  0.6395  1.0000
  N   N13       1.0  0.71197  0.11825  0.21827000000000002  1.0000
  N   N14       1.0  0.32458  0.3814200000000001  0.9379  1.0000
  N   N15       1.0  0.1693200000000001  0.9607800000000002  0.61509  1.0000
  N   N16       1.0  0.16978  0.7511200000000001  0.36051  1.0000
