data_image0
_chemical_formula_structural       Si16Ni4H192C128N16
_chemical_formula_sum              "Si16 Ni4 H192 C128 N16"
_cell_length_a       15.39771
_cell_length_b       18.08673
_cell_length_c       18.09106
_cell_angle_alpha    79.29428
_cell_angle_beta     64.44279000000002
_cell_angle_gamma    64.49141

_symmetry_space_group_name_H-M    'P 1'
_symmetry_Int_Tables_number       1

loop_
  _symmetry_equiv_pos_as_xyz
  'x,y,z'

loop_
  _atom_site_type_symbol
  _atom_site_label
  _atom_site_symmetry_multiplicity
  _atom_site_fract_x
  _atom_site_fract_y
  _atom_site_fract_z
  _atom_site_occupancy
  Si  Si1       1.0  0.45174000000000003  0.12548999999999993  0.4370300000000001  1.0000
  Si  Si2       1.0  0.01388000000000008  0.3742999999999999  0.06236  1.0000
  Si  Si3       1.0  0.9224699999999998  0.12529  0.06314  1.0000
  Si  Si4       1.0  0.1117  0.37427  0.43732  1.0000
  Si  Si5       1.0  0.54771  0.8746299999999998  0.5632700000000003  1.0000
  Si  Si6       1.0  0.9859999999999994  0.62563  0.9374300000000002  1.0000
  Si  Si7       1.0  0.07713999999999985  0.87465  0.9371000000000003  1.0000
  Si  Si8       1.0  0.8881199999999997  0.62583  0.5624  1.0000
  Si  Si9       1.0  0.57739  0.43702  0.37467  1.0000
  Si  Si10      1.0  0.3882699999999999  0.06278  0.12566  1.0000
  Si  Si11      1.0  0.04824999999999998  0.06301  0.37449  1.0000
  Si  Si12      1.0  0.4860699999999999  0.43769999999999987  0.12575  1.0000
  Si  Si13      1.0  0.42294999999999994  0.56269  0.62549  1.0000
  Si  Si14      1.0  0.6119199999999995  0.93743  0.8741800000000002  1.0000
  Si  Si15      1.0  0.9522499999999996  0.93676  0.62539  1.0000
  Si  Si16      1.0  0.5140899999999997  0.56259  0.87437  1.0000
  Ni  Ni1       1.0  0.12445000000000006  0.2502  0.75009  1.0000
  Ni  Ni2       1.0  0.8745399999999998  0.74993  0.24994  1.0000
  Ni  Ni3       1.0  0.37523  0.74997  0.25  1.0000
  Ni  Ni4       1.0  0.6255399999999999  0.25002  0.75007  1.0000
  H   H1        1.0  0.2707899999999999  0.15575  0.59686  1.0000
  H   H2        1.0  0.51273  0.25086  0.47629  1.0000
  H   H3        1.0  0.42593  0.34169  0.59904  1.0000
  H   H4        1.0  0.27058  0.3299699999999999  0.71671  1.0000
  H   H5        1.0  0.36390999999999996  0.08279  0.37424  1.0000
  H   H6        1.0  0.2859599999999997  0.10525  0.47943  1.0000
  H   H7        1.0  0.28994000000000014  0.18610999999999994  0.40837000000000007  1.0000
  H   H8        1.0  0.56434  0.1277  0.2885  1.0000
  H   H9        1.0  0.48802  0.22854  0.32865  1.0000
  H   H10       1.0  0.6022699999999997  0.16644  0.34732  1.0000
  H   H11       1.0  0.5986299999999998  0.01945  0.4687  1.0000
  H   H12       1.0  0.56648  0.97858  0.4081  1.0000
  H   H13       1.0  0.02191999999999985  0.34455  0.9035000000000002  1.0000
  H   H14       1.0  0.24117999999999987  0.24789999999999998  0.02116  1.0000
  H   H15       1.0  0.3680899999999999  0.15660999999999994  0.89828  1.0000
  H   H16       1.0  0.31758999999999976  0.16933999999999994  0.78193  1.0000
  H   H17       1.0  0.8189599999999997  0.4180199999999999  0.127  1.0000
  H   H18       1.0  0.8683599999999998  0.39646  0.021830000000000006  1.0000
  H   H19       1.0  0.8828299999999998  0.3149899999999999  0.09219000000000002  1.0000
  H   H20       1.0  0.9802599999999998  0.37135  0.21054000000000003  1.0000
  H   H21       1.0  0.045190000000000036  0.2706599999999999  0.17022000000000007  1.0000
  H   H22       1.0  0.11672000000000002  0.33197  0.15087  1.0000
  H   H23       1.0  0.08781000000000004  0.4789799999999999  0.030440000000000005  1.0000
  H   H24       1.0  0.9532899999999999  0.52056  0.09201  1.0000
  H   H25       1.0  0.07308  0.15558999999999995  0.90335  1.0000
  H   H26       1.0  0.7349199999999998  0.25091  0.02378  1.0000
  H   H27       1.0  0.7300899999999999  0.34196  0.90125  1.0000
  H   H28       1.0  0.89729  0.33029  0.78369  1.0000
  H   H29       1.0  0.053969999999999976  0.08197  0.12567  1.0000
  H   H30       1.0  0.10918  0.10392  0.02036  1.0000
  H   H31       1.0  0.024220000000000012  0.18510999999999994  0.09109000000000003  1.0000
  H   H32       1.0  0.8077899999999998  0.12786  0.21183  1.0000
  H   H33       1.0  0.7829299999999999  0.22862  0.17164000000000001  1.0000
  H   H34       1.0  0.7304299999999998  0.16725  0.15325  1.0000
  H   H35       1.0  0.8811599999999998  0.020119999999999996  0.03185  1.0000
  H   H36       1.0  0.95475  0.97851  0.09231  1.0000
  H   H37       1.0  0.1313899999999997  0.34516  0.5970000000000002  1.0000
  H   H38       1.0  0.012639999999999908  0.2477  0.4775100000000001  1.0000
  H   H39       1.0  0.9765299999999996  0.15692  0.60048  1.0000
  H   H40       1.0  0.012829999999999979  0.16971  0.7176  1.0000
  H   H41       1.0  0.26326999999999995  0.41707  0.37304  1.0000
  H   H42       1.0  0.23560999999999993  0.39474  0.4781600000000001  1.0000
  H   H43       1.0  0.30281  0.31378  0.4073  1.0000
  H   H44       1.0  0.14840000000000003  0.37178  0.28904  1.0000
  H   H45       1.0  0.18427999999999994  0.27102  0.32928  1.0000
  H   H46       1.0  0.05095999999999996  0.33312  0.3485500000000001  1.0000
  H   H47       1.0  0.93245  0.4800999999999999  0.46942  1.0000
  H   H48       1.0  0.02580999999999993  0.5208  0.4076200000000001  1.0000
  H   H49       1.0  0.7280800000000001  0.8446599999999997  0.40308  1.0000
  H   H50       1.0  0.48684999999999995  0.74893  0.52449  1.0000
  H   H51       1.0  0.5730999999999999  0.65831  0.40173  1.0000
  H   H52       1.0  0.72819  0.6701  0.28376  1.0000
  H   H53       1.0  0.636  0.9172  0.62583  1.0000
  H   H54       1.0  0.7135999999999996  0.89467  0.5206  1.0000
  H   H55       1.0  0.7096699999999999  0.81386  0.5917300000000002  1.0000
  H   H56       1.0  0.43545  0.87241  0.71189  1.0000
  H   H57       1.0  0.5115599999999999  0.77158  0.6717  1.0000
  H   H58       1.0  0.39711999999999986  0.83376  0.6533  1.0000
  H   H59       1.0  0.40081999999999995  0.9807799999999999  0.53168  1.0000
  H   H60       1.0  0.43303  0.02156  0.5923400000000001  1.0000
  H   H61       1.0  0.9771199999999995  0.65515  0.09674000000000003  1.0000
  H   H62       1.0  0.7589  0.75224  0.97811  1.0000
  H   H63       1.0  0.6316100000000001  0.8434199999999997  0.1009  1.0000
  H   H64       1.0  0.6813799999999997  0.8307  0.21766  1.0000
  H   H65       1.0  0.18092  0.58208  0.87312  1.0000
  H   H66       1.0  0.13111  0.60376  0.97831  1.0000
  H   H67       1.0  0.11681000000000008  0.6851399999999997  0.90786  1.0000
  H   H68       1.0  0.020000000000000066  0.62849  0.78918  1.0000
  H   H69       1.0  0.9549599999999996  0.72923  0.8294  1.0000
  H   H70       1.0  0.88347  0.6679  0.8486400000000002  1.0000
  H   H71       1.0  0.91222  0.52089  0.9692900000000002  1.0000
  H   H72       1.0  0.04669999999999998  0.4793  0.90766  1.0000
  H   H73       1.0  0.9260899999999996  0.84409  0.09648  1.0000
  H   H74       1.0  0.2643599999999998  0.74928  0.97698  1.0000
  H   H75       1.0  0.26874000000000003  0.6581799999999998  0.09965  1.0000
  H   H76       1.0  0.10128000000000005  0.66977  0.21683  1.0000
  H   H77       1.0  0.9460200000000001  0.9181  0.8742300000000001  1.0000
  H   H78       1.0  0.8903999999999994  0.89629  0.97949  1.0000
  H   H79       1.0  0.9753799999999999  0.81502  0.90886  1.0000
  H   H80       1.0  0.19212000000000004  0.8719999999999998  0.78858  1.0000
  H   H81       1.0  0.21688  0.77122  0.82872  1.0000
  H   H82       1.0  0.26929000000000003  0.83255  0.84732  1.0000
  H   H83       1.0  0.11855000000000018  0.9796999999999998  0.96846  1.0000
  H   H84       1.0  0.04485999999999995  0.02134  0.90809  1.0000
  H   H85       1.0  0.8673499999999995  0.65537  0.40317  1.0000
  H   H86       1.0  0.9875799999999998  0.7522299999999997  0.52184  1.0000
  H   H87       1.0  0.02330999999999995  0.84314  0.3988200000000001  1.0000
  H   H88       1.0  0.9863700000000001  0.83042  0.28203  1.0000
  H   H89       1.0  0.7367400000000001  0.5829199999999998  0.62693  1.0000
  H   H90       1.0  0.76409  0.60511  0.52186  1.0000
  H   H91       1.0  0.6969099999999996  0.68615  0.5926  1.0000
  H   H92       1.0  0.8517399999999992  0.62832  0.71058  1.0000
  H   H93       1.0  0.8157599999999998  0.7291199999999998  0.6703800000000002  1.0000
  H   H94       1.0  0.9491299999999999  0.66699  0.65091  1.0000
  H   H95       1.0  0.06743000000000005  0.52011  0.53017  1.0000
  H   H96       1.0  0.9742199999999992  0.4793  0.59194  1.0000
  H   H97       1.0  0.42673  0.59658  0.3446  1.0000
  H   H98       1.0  0.76476  0.47658  0.24905  1.0000
  H   H99       1.0  0.7694799999999997  0.59914  0.15794  1.0000
  H   H100      1.0  0.6021900000000002  0.7164899999999997  0.16984  1.0000
  H   H101      1.0  0.44611  0.37425  0.41821  1.0000
  H   H102      1.0  0.3906200000000001  0.47957  0.39646  1.0000
  H   H103      1.0  0.47547999999999996  0.40898  0.31511  1.0000
  H   H104      1.0  0.69211  0.28833  0.37166  1.0000
  H   H105      1.0  0.71676  0.32883  0.27097  1.0000
  H   H106      1.0  0.76951  0.34703  0.3322700000000001  1.0000
  H   H107      1.0  0.6188499999999998  0.46822  0.4797400000000001  1.0000
  H   H108      1.0  0.5453800000000001  0.40759  0.52129  1.0000
  H   H109      1.0  0.36868999999999996  0.90302  0.15485  1.0000
  H   H110      1.0  0.4872099999999998  0.022849999999999992  0.2521600000000001  1.0000
  H   H111      1.0  0.5232900000000001  0.89994  0.34304  1.0000
  H   H112      1.0  0.48709  0.78267  0.33032  1.0000
  H   H113      1.0  0.23671  0.1269  0.08304  1.0000
  H   H114      1.0  0.2641899999999998  0.02184  0.10553  1.0000
  H   H115      1.0  0.1970799999999999  0.09278  0.18635  1.0000
  H   H116      1.0  0.35193  0.211  0.12783  1.0000
  H   H117      1.0  0.31589999999999985  0.17103  0.22873  1.0000
  H   H118      1.0  0.44928999999999986  0.15153  0.16648000000000004  1.0000
  H   H119      1.0  0.56746  0.03073  0.01976  1.0000
  H   H120      1.0  0.47418999999999967  0.09232  0.979  1.0000
  H   H121      1.0  0.22891999999999996  0.90331  0.34441  1.0000
  H   H122      1.0  0.9874799999999999  0.02373  0.24902  1.0000
  H   H123      1.0  0.07458999999999995  0.90108  0.158  1.0000
  H   H124      1.0  0.22960000000000008  0.7834199999999998  0.17003  1.0000
  H   H125      1.0  0.13591999999999999  0.12602  0.41711  1.0000
  H   H126      1.0  0.21388000000000001  0.02088  0.39473  1.0000
  H   H127      1.0  0.2100499999999999  0.09181  0.31385  1.0000
  H   H128      1.0  0.9357699999999999  0.21154999999999993  0.37215  1.0000
  H   H129      1.0  0.012120000000000004  0.17131  0.27136  1.0000
  H   H130      1.0  0.8978399999999995  0.15265999999999996  0.33348  1.0000
  H   H131      1.0  0.9014899999999999  0.03111  0.48054  1.0000
  H   H132      1.0  0.9334299999999996  0.09186  0.5214  1.0000
  H   H133      1.0  0.47791999999999996  0.59651  0.15567  1.0000
  H   H134      1.0  0.25866999999999984  0.4787  0.25209  1.0000
  H   H135      1.0  0.13154000000000002  0.60161  0.34325  1.0000
  H   H136      1.0  0.18196999999999994  0.71801  0.33062  1.0000
  H   H137      1.0  0.6808899999999999  0.37328  0.08192  1.0000
  H   H138      1.0  0.6315099999999999  0.47842  0.10354  1.0000
  H   H139      1.0  0.6171399999999997  0.40802  0.18496  1.0000
  H   H140      1.0  0.51958  0.28948  0.12867  1.0000
  H   H141      1.0  0.4546699999999998  0.32977  0.22940000000000005  1.0000
  H   H142      1.0  0.38314999999999994  0.34922  0.16811  1.0000
  H   H143      1.0  0.41225999999999996  0.46945  0.02111  1.0000
  H   H144      1.0  0.5468199999999999  0.40802  0.97944  1.0000
  H   H145      1.0  0.5738700000000001  0.4034599999999999  0.6559900000000002  1.0000
  H   H146      1.0  0.23563999999999996  0.52267  0.75101  1.0000
  H   H147      1.0  0.23129  0.40009  0.84222  1.0000
  H   H148      1.0  0.39880000000000004  0.28302  0.83043  1.0000
  H   H149      1.0  0.55402  0.62568  0.58184  1.0000
  H   H150      1.0  0.6098199999999995  0.52038  0.60345  1.0000
  H   H151      1.0  0.5249099999999998  0.5908499999999998  0.68488  1.0000
  H   H152      1.0  0.3077300000000001  0.71135  0.6286  1.0000
  H   H153      1.0  0.28346000000000016  0.6707299999999998  0.7292100000000001  1.0000
  H   H154      1.0  0.23078999999999997  0.65233  0.668  1.0000
  H   H155      1.0  0.38139999999999996  0.53121  0.52059  1.0000
  H   H156      1.0  0.45477999999999963  0.59189  0.47887000000000013  1.0000
  H   H157      1.0  0.6329100000000001  0.09668  0.84465  1.0000
  H   H158      1.0  0.5122799999999995  0.97809  0.74797  1.0000
  H   H159      1.0  0.4766  0.10122999999999997  0.6571600000000002  1.0000
  H   H160      1.0  0.5137499999999998  0.21799999999999994  0.66978  1.0000
  H   H161      1.0  0.7633099999999998  0.8729199999999999  0.91702  1.0000
  H   H162      1.0  0.7361099999999996  0.97796  0.89468  1.0000
  H   H163      1.0  0.8032399999999995  0.9071  0.8137400000000001  1.0000
  H   H164      1.0  0.64794  0.78931  0.87196  1.0000
  H   H165      1.0  0.68413  0.82931  0.7710900000000002  1.0000
  H   H166      1.0  0.5506700000000001  0.8488999999999998  0.8332400000000002  1.0000
  H   H167      1.0  0.43262000000000006  0.96964  0.97997  1.0000
  H   H168      1.0  0.52577  0.9080499999999998  0.02083  1.0000
  H   H169      1.0  0.77231  0.09703  0.65512  1.0000
  H   H170      1.0  0.013070000000000005  0.97547  0.75109  1.0000
  H   H171      1.0  0.9266099999999996  0.09798  0.84201  1.0000
  H   H172      1.0  0.77187  0.21607  0.83005  1.0000
  H   H173      1.0  0.8639299999999993  0.87413  0.5829300000000002  1.0000
  H   H174      1.0  0.7863299999999995  0.97936  0.60549  1.0000
  H   H175      1.0  0.79028  0.90827  0.6863  1.0000
  H   H176      1.0  0.06447000000000003  0.78809  0.62767  1.0000
  H   H177      1.0  0.9882099999999999  0.82837  0.72847  1.0000
  H   H178      1.0  0.10267000000000001  0.8468  0.66632  1.0000
  H   H179      1.0  0.09910999999999999  0.9685  0.51921  1.0000
  H   H180      1.0  0.06711999999999992  0.90768  0.47847  1.0000
  H   H181      1.0  0.5226999999999996  0.40332  0.84496  1.0000
  H   H182      1.0  0.7411499999999999  0.52203  0.74781  1.0000
  H   H183      1.0  0.8685300000000001  0.39905  0.65681  1.0000
  H   H184      1.0  0.8186099999999998  0.2822899999999999  0.66948  1.0000
  H   H185      1.0  0.31911  0.6268  0.91816  1.0000
  H   H186      1.0  0.3689799999999998  0.52161  0.89637  1.0000
  H   H187      1.0  0.38316  0.59217  0.81505  1.0000
  H   H188      1.0  0.48005999999999993  0.7108599999999998  0.8714700000000002  1.0000
  H   H189      1.0  0.5451999999999996  0.67052  0.77075  1.0000
  H   H190      1.0  0.6166199999999998  0.65145  0.83205  1.0000
  H   H191      1.0  0.5876  0.53101  0.9791900000000002  1.0000
  H   H192      1.0  0.45300999999999997  0.59244  0.02073  1.0000
  C   C1        1.0  0.31013999999999997  0.19421999999999995  0.59468  1.0000
  C   C2        1.0  0.39920999999999984  0.19394999999999996  0.52592  1.0000
  C   C3        1.0  0.44327  0.24799  0.52777  1.0000
  C   C4        1.0  0.39579999999999993  0.29829  0.59587  1.0000
  C   C5        1.0  0.30849999999999983  0.29262  0.6623500000000002  1.0000
  C   C6        1.0  0.33795999999999976  0.12476  0.42327  1.0000
  C   C7        1.0  0.53426  0.16563999999999995  0.3419800000000001  1.0000
  C   C8        1.0  0.53185  0.01827  0.46143  1.0000
  C   C9        1.0  0.09826999999999991  0.30576  0.90498  1.0000
  C   C10       1.0  0.11891999999999994  0.30568  0.9730200000000002  1.0000
  C   C11       1.0  0.21971  0.25104  0.97034  1.0000
  C   C12       1.0  0.29079999999999984  0.20057  0.90214  1.0000
  C   C13       1.0  0.26367999999999997  0.20665  0.83643  1.0000
  C   C14       1.0  0.8843299999999998  0.3762299999999999  0.07745  1.0000
  C   C15       1.0  0.041939999999999956  0.33338  0.15680000000000005  1.0000
  C   C16       1.0  0.011769999999999985  0.48113  0.038260000000000016  1.0000
  C   C17       1.0  0.9948499999999999  0.19421  0.9055600000000003  1.0000
  C   C18       1.0  0.9059899999999995  0.19392999999999994  0.97427  1.0000
  C   C19       1.0  0.8073499999999996  0.24807  0.97239  1.0000
  C   C20       1.0  0.80409  0.29849  0.90437  1.0000
  C   C21       1.0  0.8971899999999999  0.2929  0.838  1.0000
  C   C22       1.0  0.037549999999999986  0.12384  0.07656  1.0000
  C   C23       1.0  0.7996599999999998  0.16588999999999995  0.15834  1.0000
  C   C24       1.0  0.9495099999999997  0.01832  0.039000000000000014  1.0000
  C   C25       1.0  0.09465000000000003  0.30622  0.59515  1.0000
  C   C26       1.0  0.07512999999999989  0.30587  0.5266200000000002  1.0000
  C   C27       1.0  0.02997999999999999  0.25113  0.52879  1.0000
  C   C28       1.0  0.009259999999999899  0.20083  0.5970000000000002  1.0000
  C   C29       1.0  0.029409999999999954  0.20702  0.66316  1.0000
  C   C30       1.0  0.23980999999999986  0.37518  0.42232  1.0000
  C   C31       1.0  0.12457999999999991  0.33392  0.3427300000000001  1.0000
  C   C32       1.0  0.006780000000000003  0.4815  0.46142  1.0000
  C   C33       1.0  0.6887799999999997  0.80609  0.4054100000000001  1.0000
  C   C34       1.0  0.60004  0.8061499999999998  0.47443000000000013  1.0000
  C   C35       1.0  0.55599  0.75204  0.47277000000000013  1.0000
  C   C36       1.0  0.60323  0.70178  0.4047000000000001  1.0000
  C   C37       1.0  0.69049  0.7073999999999998  0.33811000000000013  1.0000
  C   C38       1.0  0.6616499999999997  0.8752399999999998  0.57688  1.0000
  C   C39       1.0  0.4652800000000003  0.8344999999999998  0.65844  1.0000
  C   C40       1.0  0.46761  0.98194  0.53896  1.0000
  C   C41       1.0  0.9009200000000002  0.69405  0.09501  1.0000
  C   C42       1.0  0.8806799999999999  0.69424  0.02672  1.0000
  C   C43       1.0  0.7800399999999998  0.74896  0.02915  1.0000
  C   C44       1.0  0.70879  0.7994499999999998  0.09729  1.0000
  C   C45       1.0  0.7355299999999997  0.79331  0.16325  1.0000
  C   C46       1.0  0.11537000000000003  0.6238899999999998  0.92258  1.0000
  C   C47       1.0  0.9581899999999999  0.66651  0.8428500000000001  1.0000
  C   C48       1.0  0.9882699999999995  0.51872  0.96144  1.0000
  C   C49       1.0  0.00428000000000011  0.8056799999999997  0.09452  1.0000
  C   C50       1.0  0.09326999999999999  0.80604  0.02603  1.0000
  C   C51       1.0  0.19181000000000015  0.7520699999999998  0.02822  1.0000
  C   C52       1.0  0.19485  0.70165  0.09630000000000002  1.0000
  C   C53       1.0  0.10163000000000003  0.70714  0.16244  1.0000
  C   C54       1.0  0.9621799999999999  0.8762399999999998  0.92342  1.0000
  C   C55       1.0  0.20012999999999984  0.83394  0.84207  1.0000
  C   C56       1.0  0.05012999999999984  0.98155  0.9613900000000002  1.0000
  C   C57       1.0  0.9044199999999992  0.69413  0.4048200000000001  1.0000
  C   C58       1.0  0.9244299999999999  0.69432  0.47313  1.0000
  C   C59       1.0  0.9698899999999999  0.7489099999999997  0.47073  1.0000
  C   C60       1.0  0.9904099999999999  0.79926  0.4025  1.0000
  C   C61       1.0  0.9698999999999994  0.79314  0.33653  1.0000
  C   C62       1.0  0.76002  0.6248  0.57757  1.0000
  C   C63       1.0  0.8754299999999997  0.6662  0.6568800000000002  1.0000
  C   C64       1.0  0.9931499999999995  0.51863  0.53816  1.0000
  C   C65       1.0  0.5048299999999997  0.5946199999999998  0.3059600000000001  1.0000
  C   C66       1.0  0.59369  0.52597  0.30613  1.0000
  C   C67       1.0  0.6923399999999998  0.5279  0.25196  1.0000
  C   C68       1.0  0.69554  0.59592  0.20153  1.0000
  C   C69       1.0  0.6024199999999995  0.6622  0.2072  1.0000
  C   C70       1.0  0.4622899999999999  0.42347  0.37635  1.0000
  C   C71       1.0  0.7002299999999996  0.3419  0.33373000000000014  1.0000
  C   C72       1.0  0.5504699999999998  0.4610399999999999  0.48164  1.0000
  C   C73       1.0  0.40524999999999994  0.905  0.19385  1.0000
  C   C74       1.0  0.4247299999999999  0.9735999999999998  0.19416000000000005  1.0000
  C   C75       1.0  0.4698900000000002  0.9715199999999998  0.24884000000000003  1.0000
  C   C76       1.0  0.49053  0.9033499999999998  0.2991900000000001  1.0000
  C   C77       1.0  0.47042000000000017  0.8371099999999998  0.29305  1.0000
  C   C78       1.0  0.26011999999999996  0.07768  0.12495  1.0000
  C   C79       1.0  0.37559  0.15741  0.1658  1.0000
  C   C80       1.0  0.49318999999999996  0.03861  0.01836  1.0000
  C   C81       1.0  0.18971999999999983  0.90538  0.30590000000000006  1.0000
  C   C82       1.0  0.10079999999999989  0.97413  0.3060400000000001  1.0000
  C   C83       1.0  0.05686000000000008  0.9722999999999998  0.25195  1.0000
  C   C84       1.0  0.10442999999999995  0.90422  0.20160000000000006  1.0000
  C   C85       1.0  0.19165000000000007  0.8378099999999998  0.20731  1.0000
  C   C86       1.0  0.16189999999999988  0.07694  0.37518  1.0000
  C   C87       1.0  0.96584  0.158  0.33430000000000004  1.0000
  C   C88       1.0  0.9681799999999999  0.03851  0.4817300000000001  1.0000
  C   C89       1.0  0.40154999999999996  0.5950099999999998  0.19442  1.0000
  C   C90       1.0  0.3809299999999999  0.52695  0.19443  1.0000
  C   C91       1.0  0.2800699999999998  0.52959  0.24893000000000004  1.0000
  C   C92       1.0  0.20890999999999996  0.59777  0.29941  1.0000
  C   C93       1.0  0.23600999999999994  0.66352  0.29337000000000013  1.0000
  C   C94       1.0  0.6155399999999999  0.42277  0.12377  1.0000
  C   C95       1.0  0.45797  0.34321  0.16667  1.0000
  C   C96       1.0  0.4882799999999998  0.46176  0.01889  1.0000
  C   C97       1.0  0.49576  0.40529  0.69451  1.0000
  C   C98       1.0  0.40679999999999983  0.47372  0.6941400000000002  1.0000
  C   C99       1.0  0.30820999999999993  0.47157  0.74824  1.0000
  C   C100      1.0  0.3051800000000002  0.40349  0.79868  1.0000
  C   C101      1.0  0.3983899999999998  0.33738  0.79309  1.0000
  C   C102      1.0  0.5380300000000001  0.57639  0.62366  1.0000
  C   C103      1.0  0.29997  0.65767  0.66646  1.0000
  C   C104      1.0  0.4497499999999999  0.5385  0.51862  1.0000
  C   C105      1.0  0.5958600000000001  0.09500999999999997  0.80588  1.0000
  C   C106      1.0  0.5757299999999995  0.02672  0.8057100000000003  1.0000
  C   C107      1.0  0.5301499999999998  0.029189999999999997  0.7512  1.0000
  C   C108      1.0  0.50963  0.09747  0.70093  1.0000
  C   C109      1.0  0.5302399999999998  0.16344  0.707  1.0000
  C   C110      1.0  0.7400900000000001  0.9222199999999998  0.87511  1.0000
  C   C111      1.0  0.6243799999999996  0.84293  0.83399  1.0000
  C   C112      1.0  0.50688  0.96173  0.98141  1.0000
  C   C113      1.0  0.8113900000000001  0.09466  0.69384  1.0000
  C   C114      1.0  0.9000199999999996  0.025629999999999993  0.6938100000000003  1.0000
  C   C115      1.0  0.9438699999999999  0.02711  0.7481000000000002  1.0000
  C   C116      1.0  0.8966099999999998  0.09513  0.7984100000000002  1.0000
  C   C117      1.0  0.8096  0.16182  0.79264  1.0000
  C   C118      1.0  0.8382799999999996  0.92311  0.62487  1.0000
  C   C119      1.0  0.034570000000000094  0.84161  0.66552  1.0000
  C   C120      1.0  0.032399999999999964  0.96109  0.51807  1.0000
  C   C121      1.0  0.5989399999999999  0.40506  0.80597  1.0000
  C   C122      1.0  0.61931  0.47333  0.80574  1.0000
  C   C123      1.0  0.7199900000000001  0.47095  0.75103  1.0000
  C   C124      1.0  0.7912399999999999  0.40275  0.70063  1.0000
  C   C125      1.0  0.76445  0.33676  0.7068  1.0000
  C   C126      1.0  0.3846499999999996  0.5774  0.87627  1.0000
  C   C127      1.0  0.54192  0.65719  0.83347  1.0000
  C   C128      1.0  0.5116300000000003  0.5386999999999997  0.98131  1.0000
  N   N1        1.0  0.26436  0.24116999999999994  0.66238  1.0000
  N   N2        1.0  0.16735999999999998  0.25866  0.83715  1.0000
  N   N3        1.0  0.9933499999999996  0.24129  0.83791  1.0000
  N   N4        1.0  0.07274999999999987  0.25914  0.6629200000000002  1.0000
  N   N5        1.0  0.7344999999999996  0.75907  0.33778  1.0000
  N   N6        1.0  0.8316699999999999  0.74115  0.16281  1.0000
  N   N7        1.0  0.005590000000000019  0.75865  0.16225  1.0000
  N   N8        1.0  0.92627  0.74116  0.33699  1.0000
  N   N9        1.0  0.5062499999999999  0.66229  0.25892  1.0000
  N   N10       1.0  0.42717  0.83724  0.24091  1.0000
  N   N11       1.0  0.23557999999999998  0.83768  0.25892  1.0000
  N   N12       1.0  0.33238000000000006  0.66286  0.24144  1.0000
  N   N13       1.0  0.4944699999999997  0.33761  0.74158  1.0000
  N   N14       1.0  0.5740199999999996  0.16286  0.75889  1.0000
  N   N15       1.0  0.7656799999999999  0.16226  0.74089  1.0000
  N   N16       1.0  0.6682  0.33724  0.7589  1.0000
