data_image0
_chemical_formula_structural       Zn8H112C160N16O32
_chemical_formula_sum              "Zn8 H112 C160 N16 O32"
_cell_length_a       13.49286
_cell_length_b       15.051430000000002
_cell_length_c       20.32199
_cell_angle_alpha    89.99552000000001
_cell_angle_beta     90.0
_cell_angle_gamma    90.00226000000002

_space_group_name_H-M_alt    "P 1"
_space_group_IT_number       1

loop_
  _space_group_symop_operation_xyz
  'x, y, z'

loop_
  _atom_site_type_symbol
  _atom_site_label
  _atom_site_symmetry_multiplicity
  _atom_site_fract_x
  _atom_site_fract_y
  _atom_site_fract_z
  _atom_site_occupancy
  Zn  Zn1       1.0  0.4976099999999999  0.61355  0.56369  1.0000
  Zn  Zn2       1.0  0.5023799999999999  0.11366  0.9362699999999999  1.0000
  Zn  Zn3       1.0  0.5024  0.38646  0.43631  1.0000
  Zn  Zn4       1.0  0.4976299999999999  0.8863399999999998  0.06373  1.0000
  Zn  Zn5       1.0  0.002409999999999999  0.3864899999999999  0.0636  1.0000
  Zn  Zn6       1.0  0.9976299999999999  0.88636  0.4363  1.0000
  Zn  Zn7       1.0  0.9976  0.6135099999999998  0.9363999999999999  1.0000
  Zn  Zn8       1.0  0.00237  0.11363999999999998  0.5636999999999999  1.0000
  H   H1        1.0  0.6771699999999998  0.5399  0.6377199999999998  1.0000
  H   H2        1.0  0.8565599999999999  0.51098  0.6181299999999998  1.0000
  H   H3        1.0  0.8354199999999998  0.67623  0.44497999999999993  1.0000
  H   H4        1.0  0.6547699999999997  0.6955999999999999  0.47114  1.0000
  H   H5        1.0  0.9936699999999998  0.6244299999999998  0.4798099999999999  1.0000
  H   H6        1.0  0.3174799999999999  0.67436  0.48287  1.0000
  H   H7        1.0  0.13891  0.63898  0.47139999999999993  1.0000
  H   H8        1.0  0.16303999999999993  0.48715  0.65147  1.0000
  H   H9        1.0  0.34125  0.5338999999999998  0.6565399999999999  1.0000
  H   H10       1.0  0.004539999999999999  0.4927699999999999  0.5948999999999999  1.0000
  H   H11       1.0  0.5044799999999999  0.64455  0.78118  1.0000
  H   H12       1.0  0.4982099999999999  0.7175499999999999  0.89274  1.0000
  H   H13       1.0  0.4886199999999999  0.9738899999999998  0.80018  1.0000
  H   H14       1.0  0.4926399999999999  0.89966  0.6885099999999998  1.0000
  H   H15       1.0  0.3229099999999999  0.03979999999999999  0.8622799999999999  1.0000
  H   H16       1.0  0.14352  0.010859999999999996  0.88191  1.0000
  H   H17       1.0  0.16471  0.17610999999999993  0.05501999999999999  1.0000
  H   H18       1.0  0.3453499999999999  0.19546999999999995  0.028849999999999997  1.0000
  H   H19       1.0  0.00637  0.12444999999999998  0.020139999999999998  1.0000
  H   H20       1.0  0.68246  0.17426999999999995  0.01712  1.0000
  H   H21       1.0  0.8610299999999997  0.13887999999999995  0.02859  1.0000
  H   H22       1.0  0.8368599999999998  0.9870299999999997  0.84854  1.0000
  H   H23       1.0  0.6586699999999998  0.03384  0.84347  1.0000
  H   H24       1.0  0.9954399999999999  0.9927299999999998  0.9050999999999999  1.0000
  H   H25       1.0  0.4954399999999999  0.14465  0.71871  1.0000
  H   H26       1.0  0.5017299999999999  0.21747999999999995  0.6071599999999998  1.0000
  H   H27       1.0  0.5113399999999999  0.47371999999999986  0.6992899999999999  1.0000
  H   H28       1.0  0.50731  0.40011  0.8110399999999999  1.0000
  H   H29       1.0  0.32283  0.4601099999999999  0.36227999999999994  1.0000
  H   H30       1.0  0.14344  0.4890199999999999  0.38186999999999993  1.0000
  H   H31       1.0  0.16457999999999998  0.32377  0.55502  1.0000
  H   H32       1.0  0.34522999999999987  0.3043999999999999  0.5288599999999999  1.0000
  H   H33       1.0  0.00633  0.3755699999999999  0.52019  1.0000
  H   H34       1.0  0.6825199999999999  0.32565  0.5171299999999999  1.0000
  H   H35       1.0  0.86109  0.36102999999999996  0.5286  1.0000
  H   H36       1.0  0.8369599999999998  0.5128599999999998  0.34852999999999995  1.0000
  H   H37       1.0  0.65875  0.4661099999999999  0.34345999999999993  1.0000
  H   H38       1.0  0.9954599999999998  0.50723  0.4051  1.0000
  H   H39       1.0  0.49551999999999996  0.35545  0.21881999999999993  1.0000
  H   H40       1.0  0.50179  0.28246  0.10727  1.0000
  H   H41       1.0  0.5113899999999999  0.02612  0.19981999999999997  1.0000
  H   H42       1.0  0.50736  0.10034  0.31148999999999993  1.0000
  H   H43       1.0  0.6771  0.9602099999999998  0.13771999999999998  1.0000
  H   H44       1.0  0.8564799999999998  0.98914  0.11809  1.0000
  H   H45       1.0  0.83529  0.8238899999999998  0.9449799999999999  1.0000
  H   H46       1.0  0.65465  0.8045299999999997  0.9711599999999998  1.0000
  H   H47       1.0  0.9936299999999998  0.8755499999999998  0.9798599999999997  1.0000
  H   H48       1.0  0.31754  0.82573  0.98288  1.0000
  H   H49       1.0  0.13897  0.8611299999999997  0.9714099999999999  1.0000
  H   H50       1.0  0.16314  0.012969999999999997  0.15146  1.0000
  H   H51       1.0  0.34133999999999987  0.9661599999999998  0.15653  1.0000
  H   H52       1.0  0.004559999999999999  0.007269999999999999  0.09489999999999998  1.0000
  H   H53       1.0  0.50456  0.8553599999999998  0.28129  1.0000
  H   H54       1.0  0.49827  0.78253  0.39283999999999997  1.0000
  H   H55       1.0  0.48866  0.52628  0.3007099999999999  1.0000
  H   H56       1.0  0.49269  0.5998999999999998  0.18895999999999993  1.0000
  H   H57       1.0  0.8228499999999999  0.4600599999999999  0.1377  1.0000
  H   H58       1.0  0.6434499999999999  0.4889699999999999  0.11812  1.0000
  H   H59       1.0  0.66459  0.3237899999999999  0.94496  1.0000
  H   H60       1.0  0.84525  0.3044399999999999  0.9711099999999999  1.0000
  H   H61       1.0  0.5063399999999999  0.3755799999999999  0.9797899999999999  1.0000
  H   H62       1.0  0.18249999999999994  0.32566999999999996  0.98285  1.0000
  H   H63       1.0  0.36107999999999996  0.36102  0.9713799999999999  1.0000
  H   H64       1.0  0.33695  0.51281  0.15145  1.0000
  H   H65       1.0  0.15872999999999995  0.4660699999999999  0.15652  1.0000
  H   H66       1.0  0.49544999999999995  0.50717  0.09489999999999998  1.0000
  H   H67       1.0  0.9954999999999998  0.3555  0.28119  1.0000
  H   H68       1.0  0.00179  0.28246  0.39274  1.0000
  H   H69       1.0  0.01139  0.026139999999999993  0.30016999999999994  1.0000
  H   H70       1.0  0.007359999999999999  0.10043  0.1885  1.0000
  H   H71       1.0  0.17709999999999998  0.96028  0.36227999999999994  1.0000
  H   H72       1.0  0.35649  0.9891799999999997  0.38188  1.0000
  H   H73       1.0  0.33531999999999995  0.8238599999999999  0.55499  1.0000
  H   H74       1.0  0.15466999999999997  0.8045199999999999  0.52882  1.0000
  H   H75       1.0  0.4936399999999999  0.8755399999999998  0.5201  1.0000
  H   H76       1.0  0.8175099999999997  0.82574  0.51711  1.0000
  H   H77       1.0  0.63894  0.8611299999999997  0.52857  1.0000
  H   H78       1.0  0.6631199999999998  0.013019999999999997  0.34851  1.0000
  H   H79       1.0  0.84133  0.96622  0.34345999999999993  1.0000
  H   H80       1.0  0.5045499999999999  0.007349999999999998  0.40510999999999997  1.0000
  H   H81       1.0  0.004549999999999999  0.85538  0.21892  1.0000
  H   H82       1.0  0.9982699999999999  0.7826899999999999  0.10731  1.0000
  H   H83       1.0  0.9886599999999998  0.5263199999999998  0.19943999999999998  1.0000
  H   H84       1.0  0.99268  0.5999899999999998  0.3112  1.0000
  H   H85       1.0  0.17715999999999998  0.5399499999999998  0.8622999999999998  1.0000
  H   H86       1.0  0.35654999999999987  0.51103  0.8818799999999999  1.0000
  H   H87       1.0  0.33541  0.67621  0.05503999999999999  1.0000
  H   H88       1.0  0.15475  0.69557  0.028889999999999996  1.0000
  H   H89       1.0  0.4936699999999999  0.6244199999999998  0.020209999999999995  1.0000
  H   H90       1.0  0.8174999999999998  0.67434  0.01715  1.0000
  H   H91       1.0  0.6389199999999998  0.63898  0.02862  1.0000
  H   H92       1.0  0.6630599999999999  0.4872  0.84855  1.0000
  H   H93       1.0  0.8412699999999997  0.53393  0.84348  1.0000
  H   H94       1.0  0.5045499999999999  0.49284  0.9050999999999999  1.0000
  H   H95       1.0  0.0045  0.6444999999999997  0.7188199999999999  1.0000
  H   H96       1.0  0.9982099999999999  0.71754  0.60726  1.0000
  H   H97       1.0  0.9886099999999998  0.9738599999999997  0.69983  1.0000
  H   H98       1.0  0.9926399999999999  0.8995699999999998  0.8114999999999999  1.0000
  H   H99       1.0  0.8228999999999999  0.039729999999999994  0.63773  1.0000
  H   H100      1.0  0.6435099999999998  0.01082  0.61812  1.0000
  H   H101      1.0  0.66468  0.17613999999999994  0.44500999999999996  1.0000
  H   H102      1.0  0.8453299999999998  0.19549  0.47118  1.0000
  H   H103      1.0  0.50636  0.12447  0.4799  1.0000
  H   H104      1.0  0.18249  0.17426999999999995  0.48288999999999993  1.0000
  H   H105      1.0  0.36105999999999994  0.13887999999999995  0.47142999999999996  1.0000
  H   H106      1.0  0.33688  0.98699  0.65149  1.0000
  H   H107      1.0  0.15867999999999993  0.033789999999999994  0.6565399999999999  1.0000
  H   H108      1.0  0.49544999999999995  0.9926499999999998  0.59489  1.0000
  H   H109      1.0  0.9954599999999998  0.14462  0.78108  1.0000
  H   H110      1.0  0.00173  0.21732  0.8926899999999998  1.0000
  H   H111      1.0  0.011339999999999996  0.47368  0.80056  1.0000
  H   H112      1.0  0.007319999999999999  0.4000099999999999  0.6888  1.0000
  C   C1        1.0  0.7153499999999999  0.5687  0.59559  1.0000
  C   C2        1.0  0.8158099999999998  0.5533399999999998  0.5841899999999999  1.0000
  C   C3        1.0  0.8608199999999998  0.5893399999999998  0.52807  1.0000
  C   C4        1.0  0.80256  0.64441  0.48796  1.0000
  C   C5        1.0  0.70278  0.65571  0.5023199999999999  1.0000
  C   C6        1.0  0.9619299999999998  0.5654599999999997  0.50344  1.0000
  C   C7        1.0  0.2796599999999999  0.6342599999999998  0.51958  1.0000
  C   C8        1.0  0.17973  0.6133899999999998  0.51356  1.0000
  C   C9        1.0  0.13543999999999998  0.55699  0.55987  1.0000
  C   C10       1.0  0.19379999999999994  0.5301799999999998  0.61352  1.0000
  C   C11       1.0  0.29304  0.5551399999999997  0.61657  1.0000
  C   C12       1.0  0.03612  0.51563  0.5482099999999999  1.0000
  C   C13       1.0  0.49991  0.7236099999999998  0.66281  1.0000
  C   C14       1.0  0.4985199999999999  0.7681599999999997  0.72875  1.0000
  C   C15       1.0  0.50057  0.7163799999999998  0.78622  1.0000
  C   C16       1.0  0.49736999999999987  0.75677  0.8477899999999999  1.0000
  C   C17       1.0  0.49296  0.8496499999999998  0.8527699999999999  1.0000
  C   C18       1.0  0.4916699999999999  0.9018299999999998  0.79534  1.0000
  C   C19       1.0  0.4940799999999999  0.8610199999999998  0.7338099999999999  1.0000
  C   C20       1.0  0.49083999999999994  0.8938899999999997  0.91888  1.0000
  C   C21       1.0  0.2847199999999999  0.06864  0.90438  1.0000
  C   C22       1.0  0.18424999999999994  0.05327999999999999  0.9157999999999998  1.0000
  C   C23       1.0  0.13924  0.08929999999999998  0.97191  1.0000
  C   C24       1.0  0.19753999999999997  0.14432999999999996  0.01201  1.0000
  C   C25       1.0  0.29731  0.15563999999999995  0.9976499999999998  1.0000
  C   C26       1.0  0.03809  0.06546  0.99654  1.0000
  C   C27       1.0  0.7202899999999998  0.13421  0.9804  1.0000
  C   C28       1.0  0.8202199999999997  0.11332999999999997  0.98641  1.0000
  C   C29       1.0  0.86452  0.05694999999999999  0.94011  1.0000
  C   C30       1.0  0.8061399999999999  0.03012  0.88647  1.0000
  C   C31       1.0  0.7069099999999998  0.05509999999999999  0.8834299999999998  1.0000
  C   C32       1.0  0.9638599999999998  0.015609999999999997  0.95178  1.0000
  C   C33       1.0  0.50007  0.22361999999999996  0.8371199999999999  1.0000
  C   C34       1.0  0.50143  0.26824  0.77118  1.0000
  C   C35       1.0  0.49938  0.21643999999999994  0.71373  1.0000
  C   C36       1.0  0.50259  0.25665999999999994  0.65211  1.0000
  C   C37       1.0  0.507  0.3494799999999999  0.64706  1.0000
  C   C38       1.0  0.50831  0.40171  0.70439  1.0000
  C   C39       1.0  0.5058899999999998  0.36109999999999987  0.76596  1.0000
  C   C40       1.0  0.50915  0.3938099999999999  0.58105  1.0000
  C   C41       1.0  0.28466  0.4312999999999999  0.40440999999999994  1.0000
  C   C42       1.0  0.18418999999999994  0.4466699999999999  0.41581  1.0000
  C   C43       1.0  0.13918  0.41067  0.47193  1.0000
  C   C44       1.0  0.19744  0.3555899999999999  0.51204  1.0000
  C   C45       1.0  0.29721999999999993  0.34429  0.49768  1.0000
  C   C46       1.0  0.03806999999999999  0.4345499999999999  0.49657  1.0000
  C   C47       1.0  0.7203399999999998  0.3657399999999999  0.48042  1.0000
  C   C48       1.0  0.82027  0.3866099999999999  0.48643999999999993  1.0000
  C   C49       1.0  0.86456  0.4430199999999999  0.44014  1.0000
  C   C50       1.0  0.8061999999999998  0.46982  0.38648  1.0000
  C   C51       1.0  0.7069599999999998  0.4448599999999999  0.38344  1.0000
  C   C52       1.0  0.9638799999999997  0.4843699999999999  0.45179  1.0000
  C   C53       1.0  0.5000899999999998  0.2764  0.33719  1.0000
  C   C54       1.0  0.50148  0.23184999999999995  0.27125  1.0000
  C   C55       1.0  0.49943  0.2836299999999999  0.21377999999999997  1.0000
  C   C56       1.0  0.50263  0.24322999999999995  0.15221  1.0000
  C   C57       1.0  0.5070399999999999  0.15034999999999996  0.14723999999999998  1.0000
  C   C58       1.0  0.50834  0.09816999999999997  0.20466  1.0000
  C   C59       1.0  0.50592  0.13898999999999995  0.2661899999999999  1.0000
  C   C60       1.0  0.5091699999999998  0.10611999999999998  0.08111999999999998  1.0000
  C   C61       1.0  0.7152799999999998  0.93136  0.09561999999999997  1.0000
  C   C62       1.0  0.8157499999999999  0.9467299999999997  0.0842  1.0000
  C   C63       1.0  0.8607699999999998  0.91071  0.028089999999999997  1.0000
  C   C64       1.0  0.80246  0.8556699999999998  0.9879899999999999  1.0000
  C   C65       1.0  0.70269  0.84436  0.0023599999999999997  1.0000
  C   C66       1.0  0.96191  0.93455  0.0034599999999999995  1.0000
  C   C67       1.0  0.27971  0.8657899999999997  0.019609999999999995  1.0000
  C   C68       1.0  0.17977999999999997  0.8866699999999997  0.01359  1.0000
  C   C69       1.0  0.13548  0.9430599999999998  0.05989  1.0000
  C   C70       1.0  0.19385999999999995  0.96989  0.11353  1.0000
  C   C71       1.0  0.29309  0.9448999999999997  0.11657  1.0000
  C   C72       1.0  0.03614  0.98439  0.04821999999999999  1.0000
  C   C73       1.0  0.4999299999999999  0.77639  0.16288  1.0000
  C   C74       1.0  0.4985699999999999  0.73177  0.22882  1.0000
  C   C75       1.0  0.5006199999999998  0.7835599999999998  0.28627  1.0000
  C   C76       1.0  0.4974099999999999  0.7433499999999997  0.34789  1.0000
  C   C77       1.0  0.4929999999999999  0.6505199999999998  0.35293999999999986  1.0000
  C   C78       1.0  0.4916899999999999  0.59829  0.29561  1.0000
  C   C79       1.0  0.4941099999999999  0.6389099999999998  0.23403999999999997  1.0000
  C   C80       1.0  0.4908499999999999  0.6062  0.41894999999999993  1.0000
  C   C81       1.0  0.7846699999999998  0.43127  0.09557999999999997  1.0000
  C   C82       1.0  0.6842  0.44663  0.08417999999999999  1.0000
  C   C83       1.0  0.63919  0.4106499999999999  0.028059999999999998  1.0000
  C   C84       1.0  0.6974499999999998  0.3555999999999999  0.9879499999999998  1.0000
  C   C85       1.0  0.79724  0.34429999999999994  0.0023  1.0000
  C   C86       1.0  0.5380699999999998  0.43453999999999987  0.003419999999999999  1.0000
  C   C87       1.0  0.22033  0.3657299999999999  0.019569999999999994  1.0000
  C   C88       1.0  0.3202599999999999  0.38659  0.013549999999999998  1.0000
  C   C89       1.0  0.36455  0.4429799999999999  0.05985  1.0000
  C   C90       1.0  0.30619  0.46977999999999986  0.1135  1.0000
  C   C91       1.0  0.20694999999999994  0.4448299999999999  0.11655  1.0000
  C   C92       1.0  0.46386999999999995  0.4843399999999999  0.04821  1.0000
  C   C93       1.0  8e-05  0.27644999999999986  0.16279  1.0000
  C   C94       1.0  0.0014699999999999997  0.23190999999999995  0.22874  1.0000
  C   C95       1.0  0.9994199999999999  0.2836699999999999  0.28622  1.0000
  C   C96       1.0  0.00263  0.24325  0.34779  1.0000
  C   C97       1.0  0.007049999999999998  0.15034999999999996  0.35275  1.0000
  C   C98       1.0  0.00834  0.09819999999999997  0.29532  1.0000
  C   C99       1.0  0.005919999999999998  0.13904999999999995  0.23381  1.0000
  C   C100      1.0  0.00917  0.10609999999999997  0.41885  1.0000
  C   C101      1.0  0.21527999999999994  0.9314099999999997  0.40436999999999995  1.0000
  C   C102      1.0  0.31576  0.94676  0.41578  1.0000
  C   C103      1.0  0.3607699999999999  0.9107199999999999  0.47189  1.0000
  C   C104      1.0  0.30247999999999997  0.85566  0.51199  1.0000
  C   C105      1.0  0.20270999999999995  0.84437  0.49763  1.0000
  C   C106      1.0  0.46191  0.93455  0.4965199999999999  1.0000
  C   C107      1.0  0.7796799999999998  0.8658099999999997  0.48039  1.0000
  C   C108      1.0  0.67975  0.8866899999999998  0.48639999999999994  1.0000
  C   C109      1.0  0.63547  0.9431  0.4401  1.0000
  C   C110      1.0  0.69385  0.9699299999999998  0.38645  1.0000
  C   C111      1.0  0.7930799999999998  0.9449499999999997  0.38340999999999986  1.0000
  C   C112      1.0  0.53613  0.9844299999999998  0.45178  1.0000
  C   C113      1.0  0.9999299999999999  0.7762899999999998  0.33719999999999994  1.0000
  C   C114      1.0  0.9985599999999999  0.73175  0.27127  1.0000
  C   C115      1.0  0.0005999999999999997  0.78359  0.21383999999999995  1.0000
  C   C116      1.0  0.9973999999999997  0.74339  0.15221999999999997  1.0000
  C   C117      1.0  0.9929999999999998  0.6505399999999998  0.14714  1.0000
  C   C118      1.0  0.9916799999999998  0.5983199999999997  0.20449  1.0000
  C   C119      1.0  0.9940999999999998  0.6389199999999998  0.26607  1.0000
  C   C120      1.0  0.9908599999999997  0.6061599999999998  0.08110999999999999  1.0000
  C   C121      1.0  0.21533  0.56874  0.9044199999999998  1.0000
  C   C122      1.0  0.3158  0.5533699999999998  0.91582  1.0000
  C   C123      1.0  0.36081  0.58935  0.9719399999999999  1.0000
  C   C124      1.0  0.30255  0.6443999999999998  0.012049999999999998  1.0000
  C   C125      1.0  0.20276999999999995  0.6557  0.99771  1.0000
  C   C126      1.0  0.46193  0.5654599999999997  0.9965799999999999  1.0000
  C   C127      1.0  0.77967  0.6342699999999998  0.9804299999999999  1.0000
  C   C128      1.0  0.67974  0.6134099999999998  0.98645  1.0000
  C   C129      1.0  0.6354499999999997  0.5570199999999998  0.9401499999999998  1.0000
  C   C130      1.0  0.69381  0.5302299999999999  0.8864999999999997  1.0000
  C   C131      1.0  0.7930499999999999  0.55518  0.8834499999999998  1.0000
  C   C132      1.0  0.53613  0.51566  0.95179  1.0000
  C   C133      1.0  0.99992  0.72355  0.8372099999999999  1.0000
  C   C134      1.0  0.9985299999999999  0.76809  0.77126  1.0000
  C   C135      1.0  0.0005799999999999998  0.71633  0.7137799999999999  1.0000
  C   C136      1.0  0.9973699999999999  0.7567599999999998  0.6522099999999998  1.0000
  C   C137      1.0  0.9929599999999997  0.8496499999999998  0.64725  1.0000
  C   C138      1.0  0.99166  0.9018  0.70468  1.0000
  C   C139      1.0  0.99408  0.8609499999999998  0.7662  1.0000
  C   C140      1.0  0.9908299999999998  0.8939099999999998  0.58115  1.0000
  C   C141      1.0  0.7847199999999998  0.0686  0.59563  1.0000
  C   C142      1.0  0.68424  0.05324  0.58422  1.0000
  C   C143      1.0  0.63923  0.08927999999999997  0.5281099999999999  1.0000
  C   C144      1.0  0.69752  0.14434  0.48801  1.0000
  C   C145      1.0  0.7972999999999999  0.15563999999999995  0.5023799999999999  1.0000
  C   C146      1.0  0.53809  0.06544999999999997  0.50348  1.0000
  C   C147      1.0  0.22032  0.13418999999999995  0.5196199999999999  1.0000
  C   C148      1.0  0.32025  0.11330999999999997  0.5136  1.0000
  C   C149      1.0  0.36453  0.056899999999999985  0.5599  1.0000
  C   C150      1.0  0.30615  0.030069999999999993  0.61355  1.0000
  C   C151      1.0  0.20691999999999997  0.055059999999999984  0.61659  1.0000
  C   C152      1.0  0.46386999999999995  0.01557  0.54822  1.0000
  C   C153      1.0  6.999999999999998e-05  0.22371999999999995  0.6627999999999998  1.0000
  C   C154      1.0  0.0014399999999999997  0.2682499999999999  0.72873  1.0000
  C   C155      1.0  0.9993999999999998  0.21641999999999995  0.78616  1.0000
  C   C156      1.0  0.0026  0.25662  0.8477799999999999  1.0000
  C   C157      1.0  0.007  0.34946  0.85286  1.0000
  C   C158      1.0  0.00832  0.40167999999999987  0.7955099999999999  1.0000
  C   C159      1.0  0.005899999999999998  0.36108  0.73393  1.0000
  C   C160      1.0  0.009139999999999999  0.3938399999999999  0.9188899999999999  1.0000
  N   N1        1.0  0.65851  0.61687  0.55442  1.0000
  N   N2        1.0  0.33661  0.60433  0.56922  1.0000
  N   N3        1.0  0.34157  0.11683999999999997  0.9455299999999999  1.0000
  N   N4        1.0  0.6633399999999999  0.10430999999999997  0.9307499999999999  1.0000
  N   N5        1.0  0.34149  0.3831299999999999  0.44557999999999987  1.0000
  N   N6        1.0  0.6633899999999999  0.39567  0.43078  1.0000
  N   N7        1.0  0.6584399999999998  0.88316  0.05447  1.0000
  N   N8        1.0  0.33666  0.8956899999999998  0.06924999999999999  1.0000
  N   N9        1.0  0.8415099999999998  0.3831199999999999  0.0544  1.0000
  N   N10       1.0  0.16337  0.3956499999999999  0.0692  1.0000
  N   N11       1.0  0.15844999999999995  0.8831999999999998  0.44551999999999997  1.0000
  N   N12       1.0  0.83664  0.89573  0.43074999999999997  1.0000
  N   N13       1.0  0.15848999999999994  0.61688  0.9456  1.0000
  N   N14       1.0  0.8366299999999998  0.60435  0.9307999999999998  1.0000
  N   N15       1.0  0.8415499999999998  0.11680999999999997  0.55448  1.0000
  N   N16       1.0  0.16336  0.10427  0.5692499999999999  1.0000
  O   O1        1.0  0.50513  0.63804  0.66323  1.0000
  O   O2        1.0  0.4950299999999999  0.76856  0.6102199999999999  1.0000
  O   O3        1.0  0.4854  0.8426499999999998  0.96936  1.0000
  O   O4        1.0  0.49489  0.97751  0.9203899999999999  1.0000
  O   O5        1.0  0.49487  0.13805  0.8366999999999999  1.0000
  O   O6        1.0  0.50496  0.2684899999999999  0.8897199999999998  1.0000
  O   O7        1.0  0.51459  0.3425999999999999  0.53055  1.0000
  O   O8        1.0  0.50515  0.4774299999999999  0.57961  1.0000
  O   O9        1.0  0.49487  0.36197  0.33677  1.0000
  O   O10       1.0  0.50497  0.23144999999999993  0.38977999999999996  1.0000
  O   O11       1.0  0.5145999999999998  0.15735999999999994  0.030639999999999994  1.0000
  O   O12       1.0  0.50512  0.02249  0.07961  1.0000
  O   O13       1.0  0.50513  0.8619499999999999  0.1633  1.0000
  O   O14       1.0  0.4950399999999999  0.73151  0.11028  1.0000
  O   O15       1.0  0.4854099999999999  0.6574099999999998  0.46945999999999993  1.0000
  O   O16       1.0  0.4948499999999999  0.5225799999999998  0.42039  1.0000
  O   O17       1.0  0.9948699999999998  0.3620099999999999  0.16320999999999997  1.0000
  O   O18       1.0  0.004969999999999999  0.2315  0.11021  1.0000
  O   O19       1.0  0.014609999999999996  0.15734999999999993  0.46932  1.0000
  O   O20       1.0  0.005109999999999998  0.022479999999999993  0.42039999999999994  1.0000
  O   O21       1.0  0.00512  0.8618599999999997  0.33674  1.0000
  O   O22       1.0  0.99504  0.7313699999999997  0.38977  1.0000
  O   O23       1.0  0.98539  0.65738  0.030609999999999995  1.0000
  O   O24       1.0  0.9948799999999998  0.52256  0.07963  1.0000
  O   O25       1.0  0.00514  0.6379899999999997  0.8367999999999999  1.0000
  O   O26       1.0  0.9950299999999997  0.7684999999999997  0.88979  1.0000
  O   O27       1.0  0.98539  0.8426499999999998  0.53068  1.0000
  O   O28       1.0  0.9948899999999998  0.9775299999999998  0.57961  1.0000
  O   O29       1.0  0.9948899999999998  0.13815  0.66326  1.0000
  O   O30       1.0  0.00496  0.26864  0.61023  1.0000
  O   O31       1.0  0.014609999999999996  0.34263  0.9693899999999998  1.0000
  O   O32       1.0  0.005129999999999998  0.4774499999999999  0.92037  1.0000
