data_image0
_chemical_formula_structural       Cd8H124C196N32O24
_chemical_formula_sum              "Cd8 H124 C196 N32 O24"
_cell_length_a       14.11038
_cell_length_b       17.97175
_cell_length_c       20.97991
_cell_angle_alpha    94.47766
_cell_angle_beta     89.94583000000002
_cell_angle_gamma    90.01776000000001

_symmetry_space_group_name_H-M    'P 1'
_symmetry_Int_Tables_number       1

loop_
  _symmetry_equiv_pos_as_xyz
  'x,y,z'

loop_
  _atom_site_type_symbol
  _atom_site_label
  _atom_site_symmetry_multiplicity
  _atom_site_fract_x
  _atom_site_fract_y
  _atom_site_fract_z
  _atom_site_occupancy
  Cd  Cd1       1.0  0.7568899999999998  0.40183  0.00275  1.0000
  Cd  Cd2       1.0  0.7655699999999999  0.24902  0.14699000000000004  1.0000
  Cd  Cd3       1.0  0.25585  0.09825  0.49633000000000005  1.0000
  Cd  Cd4       1.0  0.26532  0.25057  0.3525100000000001  1.0000
  Cd  Cd5       1.0  0.24311  0.59817  0.9972500000000001  1.0000
  Cd  Cd6       1.0  0.23442999999999994  0.75098  0.8530100000000002  1.0000
  Cd  Cd7       1.0  0.7441499999999998  0.90175  0.50367  1.0000
  Cd  Cd8       1.0  0.73468  0.74943  0.64748  1.0000
  H   H1        1.0  0.9847199999999998  0.42132  0.04264  1.0000
  H   H2        1.0  0.07673999999999997  0.49774  0.12183000000000002  1.0000
  H   H3        1.0  0.8146299999999999  0.6038999999999999  0.18703  1.0000
  H   H4        1.0  0.7310499999999999  0.5219299999999999  0.10303000000000001  1.0000
  H   H5        1.0  0.14285  0.57783  0.17791  1.0000
  H   H6        1.0  0.12163999999999998  0.71786  0.3532  1.0000
  H   H7        1.0  0.04067999999999999  0.7661100000000001  0.4199  1.0000
  H   H8        1.0  0.9329599999999998  0.83886  0.4919200000000001  1.0000
  H   H9        1.0  0.7975799999999997  0.69238  0.30675  1.0000
  H   H10       1.0  0.69724  0.76933  0.3838600000000001  1.0000
  H   H11       1.0  0.2796999999999999  0.57053  0.18997  1.0000
  H   H12       1.0  0.4527099999999999  0.57989  0.19821000000000003  1.0000
  H   H13       1.0  0.4361199999999999  0.7426  0.3485500000000001  1.0000
  H   H14       1.0  0.26196999999999987  0.73934  0.3483800000000001  1.0000
  H   H15       1.0  0.7582299999999997  0.56971  0.82297  1.0000
  H   H16       1.0  0.49677  0.66574  0.7644200000000001  1.0000
  H   H17       1.0  0.50553  0.54943  0.9362100000000001  1.0000
  H   H18       1.0  0.7980899999999999  0.13913  0.01863  1.0000
  H   H19       1.0  0.7040499999999997  0.06511  0.9394800000000001  1.0000
  H   H20       1.0  0.4510999999999999  0.14789  0.0372  1.0000
  H   H21       1.0  0.55708  0.2213  0.11407000000000003  1.0000
  H   H22       1.0  0.6227899999999997  0.012550000000000016  0.8773900000000002  1.0000
  H   H23       1.0  0.3425799999999999  0.94872  0.8141600000000001  1.0000
  H   H24       1.0  0.6665599999999998  0.9943999999999998  0.7872800000000001  1.0000
  H   H25       1.0  0.74667  0.91075  0.70643  1.0000
  H   H26       1.0  0.50633  0.7797  0.6768  1.0000
  H   H27       1.0  0.41489999999999994  0.85746  0.7570600000000001  1.0000
  H   H28       1.0  0.20656999999999995  0.9936399999999999  0.8138200000000002  1.0000
  H   H29       1.0  0.03615  0.002169999999999993  0.83876  1.0000
  H   H30       1.0  0.08792  0.0752  0.02723  1.0000
  H   H31       1.0  0.26398999999999995  0.07243999999999999  0.00905  1.0000
  H   H32       1.0  0.48398999999999986  0.07811  0.45757  1.0000
  H   H33       1.0  0.5766099999999997  0.001320000000000005  0.37886000000000003  1.0000
  H   H34       1.0  0.3148999999999999  0.8953  0.31302  1.0000
  H   H35       1.0  0.23066999999999996  0.97751  0.39660000000000006  1.0000
  H   H36       1.0  0.6429699999999998  0.9215999999999999  0.3222  1.0000
  H   H37       1.0  0.6216099999999998  0.7819699999999999  0.14667  1.0000
  H   H38       1.0  0.5402  0.73322  0.08024000000000002  1.0000
  H   H39       1.0  0.4319599999999999  0.66069  0.008500000000000002  1.0000
  H   H40       1.0  0.29760999999999993  0.8082699999999999  0.19353000000000004  1.0000
  H   H41       1.0  0.19672  0.73157  0.1167  1.0000
  H   H42       1.0  0.7797999999999998  0.92872  0.31012  1.0000
  H   H43       1.0  0.9528299999999998  0.91954  0.30149  1.0000
  H   H44       1.0  0.9360899999999998  0.75746  0.15066000000000002  1.0000
  H   H45       1.0  0.7619399999999997  0.76068  0.15115000000000003  1.0000
  H   H46       1.0  0.25881  0.9309399999999999  0.67716  1.0000
  H   H47       1.0  0.9967799999999999  0.83668  0.7378100000000002  1.0000
  H   H48       1.0  0.00553  0.95  0.56459  1.0000
  H   H49       1.0  0.29793999999999987  0.36043  0.4807  1.0000
  H   H50       1.0  0.20435  0.43433000000000005  0.5602400000000001  1.0000
  H   H51       1.0  0.9509599999999998  0.35229  0.46304  1.0000
  H   H52       1.0  0.05642  0.27877  0.38576  1.0000
  H   H53       1.0  0.12317999999999997  0.48729  0.6225600000000001  1.0000
  H   H54       1.0  0.8431599999999999  0.55175  0.68601  1.0000
  H   H55       1.0  0.16710999999999995  0.50648  0.7124400000000001  1.0000
  H   H56       1.0  0.24679999999999994  0.59048  0.79331  1.0000
  H   H57       1.0  0.00634  0.7216200000000002  0.8220900000000001  1.0000
  H   H58       1.0  0.9154099999999997  0.64357  0.74192  1.0000
  H   H59       1.0  0.70703  0.50776  0.68637  1.0000
  H   H60       1.0  0.53663  0.49935  0.6617200000000001  1.0000
  H   H61       1.0  0.58805  0.42502  0.47344000000000014  1.0000
  H   H62       1.0  0.7641199999999998  0.42754  0.49138  1.0000
  H   H63       1.0  0.015279999999999997  0.57868  0.9573600000000001  1.0000
  H   H64       1.0  0.92326  0.50226  0.87817  1.0000
  H   H65       1.0  0.18536999999999998  0.39610000000000006  0.8129700000000001  1.0000
  H   H66       1.0  0.2689499999999999  0.47807000000000005  0.89697  1.0000
  H   H67       1.0  0.85715  0.42217  0.8220900000000001  1.0000
  H   H68       1.0  0.87837  0.28214  0.6468000000000002  1.0000
  H   H69       1.0  0.9593199999999997  0.23389000000000001  0.5801  1.0000
  H   H70       1.0  0.06704  0.16114  0.50808  1.0000
  H   H71       1.0  0.20241999999999993  0.30762  0.69325  1.0000
  H   H72       1.0  0.30277  0.23067  0.61614  1.0000
  H   H73       1.0  0.7202999999999998  0.42946999999999996  0.81003  1.0000
  H   H74       1.0  0.5472899999999998  0.42011  0.80179  1.0000
  H   H75       1.0  0.56388  0.2574  0.6514500000000001  1.0000
  H   H76       1.0  0.7380299999999997  0.26066  0.65161  1.0000
  H   H77       1.0  0.24177  0.43029  0.17703000000000002  1.0000
  H   H78       1.0  0.50323  0.33426  0.23558  1.0000
  H   H79       1.0  0.49447999999999986  0.45057  0.06379  1.0000
  H   H80       1.0  0.20191999999999993  0.86087  0.9813700000000001  1.0000
  H   H81       1.0  0.29596  0.93489  0.06051000000000001  1.0000
  H   H82       1.0  0.5489  0.85211  0.9628000000000001  1.0000
  H   H83       1.0  0.44291999999999987  0.7787  0.8859300000000001  1.0000
  H   H84       1.0  0.37721  0.9874499999999999  0.12261  1.0000
  H   H85       1.0  0.65742  0.05128  0.18584000000000003  1.0000
  H   H86       1.0  0.33343999999999996  0.0056  0.21272  1.0000
  H   H87       1.0  0.25332999999999994  0.08925  0.29357  1.0000
  H   H88       1.0  0.4936699999999999  0.2203  0.32320000000000004  1.0000
  H   H89       1.0  0.5850999999999997  0.14254  0.24294000000000002  1.0000
  H   H90       1.0  0.79343  0.006360000000000004  0.18618000000000007  1.0000
  H   H91       1.0  0.9638499999999998  0.9978300000000001  0.16124  1.0000
  H   H92       1.0  0.91208  0.9248000000000001  0.9727600000000002  1.0000
  H   H93       1.0  0.73601  0.92756  0.9909500000000002  1.0000
  H   H94       1.0  0.51601  0.92189  0.54243  1.0000
  H   H95       1.0  0.42338999999999993  0.99868  0.6211400000000001  1.0000
  H   H96       1.0  0.6850999999999998  0.1047  0.68698  1.0000
  H   H97       1.0  0.76933  0.022489999999999996  0.6034  1.0000
  H   H98       1.0  0.3570299999999999  0.07840000000000001  0.6778000000000001  1.0000
  H   H99       1.0  0.37839  0.21802999999999997  0.85333  1.0000
  H   H100      1.0  0.4597999999999999  0.26678  0.91976  1.0000
  H   H101      1.0  0.5680399999999998  0.33931  0.9915000000000002  1.0000
  H   H102      1.0  0.7023899999999997  0.19173  0.80647  1.0000
  H   H103      1.0  0.80329  0.26843  0.8832900000000001  1.0000
  H   H104      1.0  0.22019999999999998  0.07128  0.68988  1.0000
  H   H105      1.0  0.04717  0.08046000000000002  0.6985100000000001  1.0000
  H   H106      1.0  0.06391  0.24254  0.84934  1.0000
  H   H107      1.0  0.23805999999999994  0.23933  0.84885  1.0000
  H   H108      1.0  0.74119  0.06906000000000001  0.32284000000000007  1.0000
  H   H109      1.0  0.00322  0.16332  0.26219000000000003  1.0000
  H   H110      1.0  0.99448  0.05  0.43541  1.0000
  H   H111      1.0  0.7020599999999998  0.63957  0.5193000000000001  1.0000
  H   H112      1.0  0.7956499999999997  0.56567  0.43976000000000004  1.0000
  H   H113      1.0  0.049039999999999986  0.64771  0.53696  1.0000
  H   H114      1.0  0.9435799999999998  0.72123  0.6142400000000001  1.0000
  H   H115      1.0  0.87682  0.51271  0.37744000000000005  1.0000
  H   H116      1.0  0.15683999999999995  0.4482499999999999  0.31399  1.0000
  H   H117      1.0  0.8328899999999998  0.49352  0.28756  1.0000
  H   H118      1.0  0.7531999999999998  0.40953  0.20669000000000004  1.0000
  H   H119      1.0  0.9936599999999999  0.27838  0.17791  1.0000
  H   H120      1.0  0.08458999999999997  0.35643  0.25808000000000003  1.0000
  H   H121      1.0  0.29297  0.49223999999999996  0.31363  1.0000
  H   H122      1.0  0.4633699999999999  0.50065  0.3382800000000001  1.0000
  H   H123      1.0  0.41194999999999987  0.57498  0.52656  1.0000
  H   H124      1.0  0.23587999999999995  0.57246  0.50862  1.0000
  C   C1        1.0  0.9490699999999997  0.46219  0.07532  1.0000
  C   C2        1.0  0.00031999999999999997  0.50586  0.12036000000000002  1.0000
  C   C3        1.0  0.95322  0.55828  0.16311  1.0000
  C   C4        1.0  0.8541099999999998  0.56422  0.15547  1.0000
  C   C5        1.0  0.80754  0.51881  0.10929000000000003  1.0000
  C   C6        1.0  0.00245  0.60296  0.21472  1.0000
  C   C7        1.0  0.10201999999999997  0.60669  0.21619000000000002  1.0000
  C   C8        1.0  0.14804999999999993  0.64858  0.26627000000000006  1.0000
  C   C9        1.0  0.08985999999999998  0.68553  0.31299  1.0000
  C   C10       1.0  0.929  0.72231  0.35514  1.0000
  C   C11       1.0  0.9654099999999998  0.76473  0.40902000000000005  1.0000
  C   C12       1.0  0.9054899999999998  0.80579  0.45034  1.0000
  C   C13       1.0  0.8297  0.72376  0.34755  1.0000
  C   C14       1.0  0.7735999999999997  0.7666500000000002  0.39053  1.0000
  C   C15       1.0  0.2525799999999999  0.6536699999999999  0.26906  1.0000
  C   C16       1.0  0.3102799999999999  0.6094499999999999  0.22651000000000002  1.0000
  C   C17       1.0  0.4085299999999999  0.61505  0.23090000000000002  1.0000
  C   C18       1.0  0.3992199999999999  0.70444  0.31406  1.0000
  C   C19       1.0  0.30039  0.70253  0.3138  1.0000
  C   C20       1.0  0.68894  0.50606  0.9270100000000001  1.0000
  C   C21       1.0  0.6369099999999998  0.55348  0.8833000000000002  1.0000
  C   C22       1.0  0.6829099999999998  0.57991  0.83027  1.0000
  C   C23       1.0  0.6319599999999997  0.61935  0.78677  1.0000
  C   C24       1.0  0.53598  0.63388  0.79748  1.0000
  C   C25       1.0  0.4906999999999999  0.61085  0.85191  1.0000
  C   C26       1.0  0.54065  0.5694799999999998  0.89456  1.0000
  C   C27       1.0  0.6778999999999997  0.65246  0.73149  1.0000
  C   C28       1.0  0.3909499999999999  0.63641  0.86396  1.0000
  C   C29       1.0  0.7210399999999998  0.14111  0.02087  1.0000
  C   C30       1.0  0.66683  0.09915  0.97648  1.0000
  C   C31       1.0  0.5671099999999998  0.10072000000000003  0.9802300000000003  1.0000
  C   C32       1.0  0.52762  0.14552  0.031560000000000005  1.0000
  C   C33       1.0  0.5861499999999997  0.18636999999999998  0.07407  1.0000
  C   C34       1.0  0.5060299999999998  0.05893999999999999  0.93313  1.0000
  C   C35       1.0  0.5463599999999998  0.01621  0.8816900000000001  1.0000
  C   C36       1.0  0.48919  0.9765199999999999  0.83633  1.0000
  C   C37       1.0  0.39053  0.98069  0.8462600000000001  1.0000
  C   C38       1.0  0.3547  0.02544  0.89864  1.0000
  C   C39       1.0  0.5340299999999999  0.9318799999999999  0.78307  1.0000
  C   C40       1.0  0.6284199999999998  0.9462899999999999  0.76573  1.0000
  C   C41       1.0  0.6734999999999999  0.9007899999999999  0.71916  1.0000
  C   C42       1.0  0.5389299999999999  0.82819  0.7021700000000001  1.0000
  C   C43       1.0  0.48844  0.87188  0.74799  1.0000
  C   C44       1.0  0.25101  0.03120000000000001  0.9101200000000003  1.0000
  C   C45       1.0  0.18448999999999993  0.011520000000000004  0.86217  1.0000
  C   C46       1.0  0.08795  0.01695000000000001  0.8761400000000003  1.0000
  C   C47       1.0  0.11714  0.058430000000000024  0.9801600000000003  1.0000
  C   C48       1.0  0.21496  0.056060000000000006  0.9705300000000001  1.0000
  C   C49       1.0  0.9906599999999999  0.68072  0.30792  1.0000
  C   C50       1.0  0.4485699999999999  0.03719  0.4248700000000001  1.0000
  C   C51       1.0  0.50015  0.9933599999999999  0.38007000000000013  1.0000
  C   C52       1.0  0.45325999999999994  0.941  0.33721  1.0000
  C   C53       1.0  0.35411  0.93505  0.34464  1.0000
  C   C54       1.0  0.30723  0.9805800000000001  0.3905800000000001  1.0000
  C   C55       1.0  0.5025999999999998  0.89647  0.28556  1.0000
  C   C56       1.0  0.60216  0.89276  0.28395000000000004  1.0000
  C   C57       1.0  0.64812  0.85099  0.23373  1.0000
  C   C58       1.0  0.58987  0.81416  0.187  1.0000
  C   C59       1.0  0.4288  0.77762  0.14506  1.0000
  C   C60       1.0  0.4649299999999999  0.73499  0.09119000000000002  1.0000
  C   C61       1.0  0.4047399999999999  0.6940499999999998  0.050010000000000006  1.0000
  C   C62       1.0  0.3294999999999999  0.77665  0.15275000000000002  1.0000
  C   C63       1.0  0.2730999999999999  0.73389  0.1099  1.0000
  C   C64       1.0  0.7526299999999998  0.84594  0.23078000000000004  1.0000
  C   C65       1.0  0.8103699999999998  0.8899899999999998  0.2733900000000001  1.0000
  C   C66       1.0  0.9086099999999998  0.88448  0.2687800000000001  1.0000
  C   C67       1.0  0.89923  0.79544  0.18536000000000002  1.0000
  C   C68       1.0  0.8003999999999999  0.79732  0.1858  1.0000
  C   C69       1.0  0.18905999999999995  0.9938000000000001  0.57259  1.0000
  C   C70       1.0  0.13714  0.9469600000000001  0.61718  1.0000
  C   C71       1.0  0.18331  0.92085  0.67029  1.0000
  C   C72       1.0  0.13223  0.88199  0.7143200000000001  1.0000
  C   C73       1.0  0.03593  0.86787  0.70418  1.0000
  C   C74       1.0  0.9904999999999998  0.89015  0.6496100000000001  1.0000
  C   C75       1.0  0.04067  0.9309500000000002  0.6065400000000001  1.0000
  C   C76       1.0  0.17768  0.8483  0.7695900000000001  1.0000
  C   C77       1.0  0.8909099999999999  0.8638899999999999  0.63756  1.0000
  C   C78       1.0  0.22089  0.35847999999999997  0.47868000000000005  1.0000
  C   C79       1.0  0.16693999999999998  0.40045  0.52327  1.0000
  C   C80       1.0  0.06720999999999998  0.39916  0.5197300000000001  1.0000
  C   C81       1.0  0.0275  0.35446  0.46845000000000003  1.0000
  C   C82       1.0  0.08578  0.31353  0.42574000000000006  1.0000
  C   C83       1.0  0.006309999999999998  0.44111  0.56691  1.0000
  C   C84       1.0  0.046749999999999986  0.48383000000000004  0.61829  1.0000
  C   C85       1.0  0.9896399999999997  0.52375  0.66359  1.0000
  C   C86       1.0  0.8909699999999998  0.51967  0.65384  1.0000
  C   C87       1.0  0.85504  0.47493  0.60153  1.0000
  C   C88       1.0  0.034419999999999985  0.5687199999999999  0.7166400000000002  1.0000
  C   C89       1.0  0.12876  0.55448  0.73403  1.0000
  C   C90       1.0  0.17356999999999995  0.60014  0.78058  1.0000
  C   C91       1.0  0.03897  0.67286  0.7971100000000002  1.0000
  C   C92       1.0  0.9887699999999998  0.62901  0.7513  1.0000
  C   C93       1.0  0.7513399999999999  0.46932999999999997  0.59019  1.0000
  C   C94       1.0  0.6848999999999997  0.4894800000000001  0.63814  1.0000
  C   C95       1.0  0.5883399999999998  0.48419999999999996  0.62432  1.0000
  C   C96       1.0  0.61733  0.44203  0.52041  1.0000
  C   C97       1.0  0.71516  0.44421  0.52992  1.0000
  C   C98       1.0  0.4906999999999999  0.81899  0.19224000000000002  1.0000
  C   C99       1.0  0.05092999999999999  0.53781  0.92468  1.0000
  C   C100      1.0  0.9996799999999999  0.49414  0.87964  1.0000
  C   C101      1.0  0.04678  0.44172  0.83689  1.0000
  C   C102      1.0  0.14589  0.43578  0.8445300000000002  1.0000
  C   C103      1.0  0.19245999999999994  0.48118999999999995  0.89071  1.0000
  C   C104      1.0  0.9975499999999998  0.39705000000000007  0.78528  1.0000
  C   C105      1.0  0.89798  0.39330999999999994  0.7838100000000001  1.0000
  C   C106      1.0  0.8519499999999998  0.35142  0.73373  1.0000
  C   C107      1.0  0.9101399999999998  0.3144799999999999  0.68701  1.0000
  C   C108      1.0  0.07101  0.27769  0.64486  1.0000
  C   C109      1.0  0.03459999999999999  0.23527  0.59098  1.0000
  C   C110      1.0  0.09450999999999998  0.19421  0.54966  1.0000
  C   C111      1.0  0.17031  0.27624  0.65245  1.0000
  C   C112      1.0  0.22639999999999993  0.23334999999999997  0.60947  1.0000
  C   C113      1.0  0.74742  0.34633  0.7309400000000001  1.0000
  C   C114      1.0  0.6897199999999998  0.39055  0.7734900000000001  1.0000
  C   C115      1.0  0.5914699999999998  0.38495  0.7691000000000001  1.0000
  C   C116      1.0  0.60078  0.29556  0.68594  1.0000
  C   C117      1.0  0.69962  0.29747000000000007  0.6862000000000001  1.0000
  C   C118      1.0  0.3110599999999999  0.49395  0.07299000000000001  1.0000
  C   C119      1.0  0.3630899999999999  0.44652  0.1167  1.0000
  C   C120      1.0  0.3171  0.42009  0.16973  1.0000
  C   C121      1.0  0.36803999999999987  0.38065  0.21323  1.0000
  C   C122      1.0  0.4640199999999999  0.36612  0.20252  1.0000
  C   C123      1.0  0.5093  0.38915  0.14809  1.0000
  C   C124      1.0  0.45935  0.43052  0.10544  1.0000
  C   C125      1.0  0.3220999999999999  0.34754  0.26851  1.0000
  C   C126      1.0  0.6090499999999998  0.36359  0.13604000000000002  1.0000
  C   C127      1.0  0.27896  0.85889  0.97913  1.0000
  C   C128      1.0  0.33317  0.9008499999999999  0.02352  1.0000
  C   C129      1.0  0.4328899999999999  0.89928  0.01977  1.0000
  C   C130      1.0  0.4723899999999999  0.85448  0.9684300000000001  1.0000
  C   C131      1.0  0.41385  0.81363  0.92593  1.0000
  C   C132      1.0  0.4939699999999999  0.94106  0.06687  1.0000
  C   C133      1.0  0.45364  0.98379  0.11831  1.0000
  C   C134      1.0  0.5108099999999999  0.02348  0.16367  1.0000
  C   C135      1.0  0.60947  0.019310000000000004  0.15374000000000002  1.0000
  C   C136      1.0  0.6453  0.9745599999999999  0.10136000000000002  1.0000
  C   C137      1.0  0.46597  0.06812  0.21692  1.0000
  C   C138      1.0  0.37159  0.05371000000000001  0.23427  1.0000
  C   C139      1.0  0.3265099999999999  0.09920999999999999  0.28084  1.0000
  C   C140      1.0  0.46107  0.17181  0.29783  1.0000
  C   C141      1.0  0.5115599999999999  0.12812  0.25201  1.0000
  C   C142      1.0  0.74899  0.9687999999999999  0.08988  1.0000
  C   C143      1.0  0.81551  0.98848  0.13782  1.0000
  C   C144      1.0  0.9120499999999998  0.98305  0.12386  1.0000
  C   C145      1.0  0.8828599999999999  0.94157  0.019840000000000003  1.0000
  C   C146      1.0  0.7850399999999998  0.94394  0.029470000000000007  1.0000
  C   C147      1.0  0.009339999999999996  0.31928  0.6920800000000003  1.0000
  C   C148      1.0  0.55143  0.96281  0.57513  1.0000
  C   C149      1.0  0.49985999999999997  0.006640000000000001  0.61993  1.0000
  C   C150      1.0  0.54674  0.05899999999999999  0.66279  1.0000
  C   C151      1.0  0.6458899999999997  0.06495000000000001  0.6553600000000002  1.0000
  C   C152      1.0  0.6927799999999998  0.01942  0.60942  1.0000
  C   C153      1.0  0.4974099999999999  0.10353  0.71444  1.0000
  C   C154      1.0  0.39784  0.10724000000000002  0.71605  1.0000
  C   C155      1.0  0.3518799999999999  0.14901  0.7662700000000002  1.0000
  C   C156      1.0  0.41013  0.18584  0.813  1.0000
  C   C157      1.0  0.5712  0.22238  0.85494  1.0000
  C   C158      1.0  0.53507  0.26501  0.90881  1.0000
  C   C159      1.0  0.5952599999999998  0.30595  0.9499900000000001  1.0000
  C   C160      1.0  0.6704999999999999  0.22335  0.84725  1.0000
  C   C161      1.0  0.7268999999999998  0.26611  0.89009  1.0000
  C   C162      1.0  0.24736999999999998  0.15406  0.76922  1.0000
  C   C163      1.0  0.18963999999999995  0.11001  0.7266100000000001  1.0000
  C   C164      1.0  0.09139  0.11551999999999998  0.73122  1.0000
  C   C165      1.0  0.10077  0.20456  0.8146400000000001  1.0000
  C   C166      1.0  0.19959999999999994  0.20268  0.8142  1.0000
  C   C167      1.0  0.8109499999999998  0.0062000000000000015  0.4274  1.0000
  C   C168      1.0  0.8628699999999998  0.053040000000000004  0.3828200000000001  1.0000
  C   C169      1.0  0.8166899999999998  0.07915  0.32971  1.0000
  C   C170      1.0  0.86777  0.11801  0.28568  1.0000
  C   C171      1.0  0.9640699999999999  0.13213  0.29582  1.0000
  C   C172      1.0  0.009499999999999996  0.10985000000000002  0.35039  1.0000
  C   C173      1.0  0.9593299999999999  0.06905  0.39346000000000003  1.0000
  C   C174      1.0  0.82232  0.1517  0.23041  1.0000
  C   C175      1.0  0.10908999999999998  0.13610999999999998  0.36244  1.0000
  C   C176      1.0  0.7791099999999997  0.64152  0.52132  1.0000
  C   C177      1.0  0.83306  0.59955  0.47673000000000004  1.0000
  C   C178      1.0  0.9327899999999998  0.60084  0.48027  1.0000
  C   C179      1.0  0.9724999999999999  0.64554  0.5315500000000001  1.0000
  C   C180      1.0  0.9142299999999998  0.68647  0.57426  1.0000
  C   C181      1.0  0.9936899999999997  0.55889  0.43309  1.0000
  C   C182      1.0  0.9532599999999998  0.51618  0.38171  1.0000
  C   C183      1.0  0.010359999999999996  0.47625  0.33641000000000004  1.0000
  C   C184      1.0  0.10902999999999997  0.48033  0.34616  1.0000
  C   C185      1.0  0.14497  0.52507  0.39847000000000005  1.0000
  C   C186      1.0  0.96558  0.43128  0.28336000000000006  1.0000
  C   C187      1.0  0.8712499999999999  0.44552  0.26597000000000004  1.0000
  C   C188      1.0  0.8264299999999999  0.39986  0.21942  1.0000
  C   C189      1.0  0.96103  0.32714  0.20289000000000001  1.0000
  C   C190      1.0  0.01123  0.37099  0.2487  1.0000
  C   C191      1.0  0.24866999999999995  0.53067  0.40981  1.0000
  C   C192      1.0  0.3151099999999999  0.51052  0.36186  1.0000
  C   C193      1.0  0.41166  0.5158  0.37568  1.0000
  C   C194      1.0  0.38267  0.55797  0.47959000000000007  1.0000
  C   C195      1.0  0.28485  0.55579  0.47008000000000005  1.0000
  C   C196      1.0  0.5093099999999998  0.18101000000000003  0.8077600000000001  1.0000
  N   N1        1.0  0.05294  0.039650000000000026  0.9340600000000002  1.0000
  N   N2        1.0  0.8533799999999998  0.46712999999999993  0.06958  1.0000
  N   N3        1.0  0.8099799999999998  0.80794  0.44185  1.0000
  N   N4        1.0  0.6819899999999999  0.18556  0.06897000000000002  1.0000
  N   N5        1.0  0.6311699999999998  0.8408  0.6879100000000001  1.0000
  N   N6        1.0  0.45453999999999994  0.66167  0.27378  1.0000
  N   N7        1.0  0.9470999999999999  0.63975  0.25972  1.0000
  N   N8        1.0  0.4109299999999999  0.06455000000000001  0.9414300000000001  1.0000
  N   N9        1.0  0.55321  0.46125  0.56653  1.0000
  N   N10       1.0  0.3528099999999999  0.032380000000000006  0.43026000000000003  1.0000
  N   N11       1.0  0.30923  0.6923  0.05864  1.0000
  N   N12       1.0  0.18164999999999995  0.31415  0.43061000000000005  1.0000
  N   N13       1.0  0.131  0.6601  0.8117200000000001  1.0000
  N   N14       1.0  0.9545799999999999  0.83807  0.22567  1.0000
  N   N15       1.0  0.4472199999999999  0.85981  0.24058000000000004  1.0000
  N   N16       1.0  0.9111799999999998  0.43575  0.55869  1.0000
  N   N17       1.0  0.9470599999999998  0.9603499999999999  0.06594000000000001  1.0000
  N   N18       1.0  0.14661999999999997  0.53287  0.9304200000000001  1.0000
  N   N19       1.0  0.19002  0.19206  0.55815  1.0000
  N   N20       1.0  0.3180099999999999  0.81444  0.93103  1.0000
  N   N21       1.0  0.3688299999999999  0.1592  0.31209  1.0000
  N   N22       1.0  0.5454699999999998  0.33833  0.7262200000000002  1.0000
  N   N23       1.0  0.05289999999999999  0.36025  0.74028  1.0000
  N   N24       1.0  0.58907  0.93545  0.05857000000000001  1.0000
  N   N25       1.0  0.4467899999999999  0.53875  0.4334700000000001  1.0000
  N   N26       1.0  0.64719  0.96762  0.56973  1.0000
  N   N27       1.0  0.6907799999999997  0.3077  0.9413600000000001  1.0000
  N   N28       1.0  0.8183599999999998  0.68585  0.5693900000000001  1.0000
  N   N29       1.0  0.8689999999999999  0.3399  0.18828  1.0000
  N   N30       1.0  0.04541999999999999  0.16193  0.7743300000000001  1.0000
  N   N31       1.0  0.55278  0.14019  0.75942  1.0000
  N   N32       1.0  0.08881999999999997  0.56425  0.44131  1.0000
  O   O1        1.0  0.6470899999999998  0.48944999999999994  0.9781300000000002  1.0000
  O   O2        1.0  0.7712799999999997  0.48108999999999996  0.9109900000000001  1.0000
  O   O3        1.0  0.3571899999999999  0.67764  0.82234  1.0000
  O   O4        1.0  0.34796  0.6187  0.91368  1.0000
  O   O5        1.0  0.7664399999999998  0.66631  0.73341  1.0000
  O   O6        1.0  0.62389  0.66969  0.6857300000000001  1.0000
  O   O7        1.0  0.14689999999999995  0.00995  0.52146  1.0000
  O   O8        1.0  0.27161  0.018780000000000015  0.5878800000000001  1.0000
  O   O9        1.0  0.8573999999999999  0.82231  0.6790600000000001  1.0000
  O   O10       1.0  0.84785  0.88139  0.58781  1.0000
  O   O11       1.0  0.26604999999999995  0.8335099999999999  0.7677900000000002  1.0000
  O   O12       1.0  0.12340999999999998  0.83128  0.81532  1.0000
  O   O13       1.0  0.3529099999999999  0.51055  0.02187  1.0000
  O   O14       1.0  0.22871999999999995  0.51891  0.08901  1.0000
  O   O15       1.0  0.64281  0.32236  0.17766000000000007  1.0000
  O   O16       1.0  0.65204  0.3813  0.08632  1.0000
  O   O17       1.0  0.23356  0.33369  0.26659  1.0000
  O   O18       1.0  0.37612  0.33031  0.31427000000000005  1.0000
  O   O19       1.0  0.85311  0.99005  0.47854  1.0000
  O   O20       1.0  0.72839  0.98122  0.41212000000000004  1.0000
  O   O21       1.0  0.14261  0.17769  0.32094000000000006  1.0000
  O   O22       1.0  0.15215  0.11861000000000001  0.41219000000000006  1.0000
  O   O23       1.0  0.7339499999999998  0.16649  0.23221000000000006  1.0000
  O   O24       1.0  0.8765899999999998  0.16872  0.18468  1.0000
