data_image0
_chemical_formula_structural       Zn20H120C120N80
_chemical_formula_sum              "Zn20 H120 C120 N80"
_cell_length_a       9.67988
_cell_length_b       24.42221
_cell_length_c       25.05269
_cell_angle_alpha    91.41647
_cell_angle_beta     90.0
_cell_angle_gamma    90.0

_space_group_name_H-M_alt    "P 1"
_space_group_IT_number       1

loop_
  _space_group_symop_operation_xyz
  'x, y, z'

loop_
  _atom_site_type_symbol
  _atom_site_label
  _atom_site_symmetry_multiplicity
  _atom_site_fract_x
  _atom_site_fract_y
  _atom_site_fract_z
  _atom_site_occupancy
  Zn  Zn1       1.0  0.9686700000000001  0.23402  0.31857  1.0000
  Zn  Zn2       1.0  0.7402500000000001  0.01298  0.27433  1.0000
  Zn  Zn3       1.0  0.23781  0.0323  0.13605  1.0000
  Zn  Zn4       1.0  0.32852  0.34032  0.48253  1.0000
  Zn  Zn5       1.0  0.44109  0.2174  0.6840500000000002  1.0000
  Zn  Zn6       1.0  0.46867000000000003  0.26598  0.18143  1.0000
  Zn  Zn7       1.0  0.24025  0.48701  0.22567  1.0000
  Zn  Zn8       1.0  0.73781  0.46769999999999995  0.36395  1.0000
  Zn  Zn9       1.0  0.8285200000000001  0.15967  0.01747  1.0000
  Zn  Zn10      1.0  0.9410900000000001  0.2826  0.81595  1.0000
  Zn  Zn11      1.0  0.031330000000000004  0.76597  0.68144  1.0000
  Zn  Zn12      1.0  0.25975  0.9870099999999999  0.7256699999999999  1.0000
  Zn  Zn13      1.0  0.76219  0.9676999999999998  0.86396  1.0000
  Zn  Zn14      1.0  0.67148  0.65967  0.51747  1.0000
  Zn  Zn15      1.0  0.55891  0.7826  0.31595  1.0000
  Zn  Zn16      1.0  0.5313200000000001  0.73402  0.81857  1.0000
  Zn  Zn17      1.0  0.75974  0.5129799999999999  0.7743300000000001  1.0000
  Zn  Zn18      1.0  0.26219  0.5323  0.63605  1.0000
  Zn  Zn19      1.0  0.17148  0.84032  0.98253  1.0000
  Zn  Zn20      1.0  0.058910000000000004  0.7174  0.18405  1.0000
  H   H1        1.0  0.17491  0.28754  0.23219  1.0000
  H   H2        1.0  0.2098  0.14033  0.3156  1.0000
  H   H3        1.0  0.44098000000000004  0.15279  0.25146  1.0000
  H   H4        1.0  0.9494400000000001  0.11092  0.27203  1.0000
  H   H5        1.0  0.74556  0.18504999999999996  0.40367  1.0000
  H   H6        1.0  0.6332800000000001  0.08210999999999997  0.38331999999999994  1.0000
  H   H7        1.0  0.42685  0.9898299999999998  0.23091  1.0000
  H   H8        1.0  0.72811  0.10385999999999997  0.18419  1.0000
  H   H9        1.0  0.49588  0.11436999999999999  0.12051  1.0000
  H   H10       1.0  0.9481500000000002  0.05638999999999999  0.18239000000000002  1.0000
  H   H11       1.0  0.20693  0.923  0.21515  1.0000
  H   H12       1.0  0.9711900000000001  0.91743  0.27834  1.0000
  H   H13       1.0  0.5349  0.43179  0.45494  1.0000
  H   H14       1.0  0.47916  0.28  0.37384  1.0000
  H   H15       1.0  0.68125  0.33939  0.32238  1.0000
  H   H16       1.0  0.3682700000000001  0.4148599999999999  0.59207  1.0000
  H   H17       1.0  0.12162  0.53373  0.51865  1.0000
  H   H18       1.0  0.15851  0.44554  0.4482  1.0000
  H   H19       1.0  0.23512  0.27651  0.37457000000000007  1.0000
  H   H20       1.0  0.9963900000000001  0.33807  0.50325  1.0000
  H   H21       1.0  0.82237  0.2942  0.42508  1.0000
  H   H22       1.0  0.28468  0.30103  0.60648  1.0000
  H   H23       1.0  0.58357  0.26072  0.48968000000000006  1.0000
  H   H24       1.0  0.6413600000000002  0.20475  0.58238  1.0000
  H   H25       1.0  0.13694  0.20661999999999997  0.7375299999999999  1.0000
  H   H26       1.0  0.19499  0.3658  0.80242  1.0000
  H   H27       1.0  0.42038  0.33728  0.73894  1.0000
  H   H28       1.0  0.60751  0.89508  0.24993  1.0000
  H   H29       1.0  0.66191  0.86078  0.41254  1.0000
  H   H30       1.0  0.73532  0.96911  0.39547000000000004  1.0000
  H   H31       1.0  0.67491  0.21245999999999995  0.26781  1.0000
  H   H32       1.0  0.7098  0.35967  0.1844  1.0000
  H   H33       1.0  0.94098  0.34720999999999996  0.24853999999999998  1.0000
  H   H34       1.0  0.44944  0.38908  0.22797  1.0000
  H   H35       1.0  0.24556000000000003  0.31495  0.09633  1.0000
  H   H36       1.0  0.13328  0.41787999999999986  0.11668  1.0000
  H   H37       1.0  0.92685  0.51017  0.26909  1.0000
  H   H38       1.0  0.22811  0.3961399999999999  0.31581  1.0000
  H   H39       1.0  0.99589  0.38563  0.37948999999999994  1.0000
  H   H40       1.0  0.44815000000000005  0.44360999999999995  0.31761  1.0000
  H   H41       1.0  0.7069300000000002  0.577  0.28485  1.0000
  H   H42       1.0  0.47119  0.58256  0.22165999999999997  1.0000
  H   H43       1.0  0.0349  0.06819999999999998  0.04506  1.0000
  H   H44       1.0  0.97916  0.22  0.12616  1.0000
  H   H45       1.0  0.18125  0.16061  0.17762  1.0000
  H   H46       1.0  0.8682700000000002  0.08514  0.90794  1.0000
  H   H47       1.0  0.62162  0.9662599999999999  0.98135  1.0000
  H   H48       1.0  0.65851  0.05446  0.0518  1.0000
  H   H49       1.0  0.73512  0.22348999999999997  0.12543  1.0000
  H   H50       1.0  0.49639  0.16193  0.99675  1.0000
  H   H51       1.0  0.32237  0.20579  0.07492  1.0000
  H   H52       1.0  0.78468  0.19896999999999998  0.89352  1.0000
  H   H53       1.0  0.08357  0.23927999999999996  0.01032  1.0000
  H   H54       1.0  0.14136  0.29524  0.91762  1.0000
  H   H55       1.0  0.63694  0.29338  0.7624700000000001  1.0000
  H   H56       1.0  0.6949900000000001  0.1342  0.69758  1.0000
  H   H57       1.0  0.9203800000000001  0.16272  0.76106  1.0000
  H   H58       1.0  0.10751  0.60492  0.25007  1.0000
  H   H59       1.0  0.16192000000000006  0.63922  0.08746  1.0000
  H   H60       1.0  0.23532  0.53089  0.10453  1.0000
  H   H61       1.0  0.8250900000000001  0.7124599999999999  0.76781  1.0000
  H   H62       1.0  0.7902  0.8596699999999999  0.6844  1.0000
  H   H63       1.0  0.5590200000000001  0.84721  0.74854  1.0000
  H   H64       1.0  0.05056  0.8890799999999999  0.7279699999999999  1.0000
  H   H65       1.0  0.25444  0.8149499999999998  0.59633  1.0000
  H   H66       1.0  0.3667200000000001  0.91788  0.61668  1.0000
  H   H67       1.0  0.57314  0.010169999999999997  0.7690899999999999  1.0000
  H   H68       1.0  0.27189  0.89614  0.81581  1.0000
  H   H69       1.0  0.50411  0.88562  0.87949  1.0000
  H   H70       1.0  0.05185  0.9436099999999998  0.81761  1.0000
  H   H71       1.0  0.79307  0.077  0.78485  1.0000
  H   H72       1.0  0.02881  0.08256  0.7216599999999999  1.0000
  H   H73       1.0  0.46510000000000007  0.5682  0.54506  1.0000
  H   H74       1.0  0.52083  0.72  0.62616  1.0000
  H   H75       1.0  0.31875  0.6605999999999999  0.67763  1.0000
  H   H76       1.0  0.63173  0.58514  0.40793999999999997  1.0000
  H   H77       1.0  0.8783800000000002  0.46626  0.48135  1.0000
  H   H78       1.0  0.84149  0.55446  0.5518  1.0000
  H   H79       1.0  0.76488  0.72349  0.62543  1.0000
  H   H80       1.0  0.00361  0.66193  0.49675  1.0000
  H   H81       1.0  0.17763  0.7057899999999999  0.57492  1.0000
  H   H82       1.0  0.7153200000000002  0.69897  0.39352  1.0000
  H   H83       1.0  0.41642000000000007  0.73928  0.51032  1.0000
  H   H84       1.0  0.35864  0.7952399999999998  0.41762  1.0000
  H   H85       1.0  0.86305  0.7933799999999998  0.26247  1.0000
  H   H86       1.0  0.80501  0.6342  0.19758  1.0000
  H   H87       1.0  0.5796200000000001  0.66272  0.26106  1.0000
  H   H88       1.0  0.39249  0.10491999999999999  0.75007  1.0000
  H   H89       1.0  0.33808000000000005  0.13922  0.58746  1.0000
  H   H90       1.0  0.26468  0.03088  0.60453  1.0000
  H   H91       1.0  0.32509  0.78754  0.73219  1.0000
  H   H92       1.0  0.2902  0.64032  0.8156  1.0000
  H   H93       1.0  0.05902  0.65279  0.75146  1.0000
  H   H94       1.0  0.55056  0.61092  0.7720300000000001  1.0000
  H   H95       1.0  0.75444  0.68505  0.90367  1.0000
  H   H96       1.0  0.86672  0.58211  0.88332  1.0000
  H   H97       1.0  0.07314  0.4898299999999999  0.7309100000000001  1.0000
  H   H98       1.0  0.7718900000000002  0.60386  0.68419  1.0000
  H   H99       1.0  0.00411  0.6143699999999999  0.62051  1.0000
  H   H100      1.0  0.55185  0.5563899999999999  0.68239  1.0000
  H   H101      1.0  0.29307000000000005  0.42299999999999993  0.71515  1.0000
  H   H102      1.0  0.5288000000000002  0.41742999999999997  0.7783400000000001  1.0000
  H   H103      1.0  0.9651  0.9317899999999999  0.9549399999999999  1.0000
  H   H104      1.0  0.02084  0.77999  0.87384  1.0000
  H   H105      1.0  0.8187500000000001  0.8393899999999999  0.8223799999999999  1.0000
  H   H106      1.0  0.13173  0.9148599999999998  0.09207  1.0000
  H   H107      1.0  0.37838  0.03374  0.01865  1.0000
  H   H108      1.0  0.34149  0.9455299999999998  0.9482  1.0000
  H   H109      1.0  0.26488  0.7765099999999999  0.87457  1.0000
  H   H110      1.0  0.5036100000000001  0.83806  0.0032500000000000003  1.0000
  H   H111      1.0  0.6776300000000001  0.7941999999999998  0.92508  1.0000
  H   H112      1.0  0.21532  0.80103  0.10648  1.0000
  H   H113      1.0  0.91642  0.76072  0.9896900000000001  1.0000
  H   H114      1.0  0.8586300000000001  0.7047499999999999  0.08238  1.0000
  H   H115      1.0  0.36305000000000004  0.70662  0.23753  1.0000
  H   H116      1.0  0.30501  0.8658  0.30242  1.0000
  H   H117      1.0  0.07962000000000001  0.8372799999999999  0.23894000000000004  1.0000
  H   H118      1.0  0.8924800000000002  0.39508  0.74993  1.0000
  H   H119      1.0  0.83808  0.36077999999999993  0.91254  1.0000
  H   H120      1.0  0.7646700000000002  0.46911  0.89547  1.0000
  C   C1        1.0  0.21599000000000002  0.24939  0.24669  1.0000
  C   C2        1.0  0.23691  0.1729  0.289  1.0000
  C   C3        1.0  0.35257  0.17942  0.25762  1.0000
  C   C4        1.0  0.8781100000000001  0.11726999999999997  0.30496  1.0000
  C   C5        1.0  0.77036  0.15473  0.37289  1.0000
  C   C6        1.0  0.71538  0.10337999999999997  0.36307999999999996  1.0000
  C   C7        1.0  0.4783400000000001  0.02175  0.20912  1.0000
  C   C8        1.0  0.63204  0.08117  0.18427  1.0000
  C   C9        1.0  0.51695  0.0865  0.15247  1.0000
  C   C10       1.0  0.9862  0.019509999999999996  0.20053000000000004  1.0000
  C   C11       1.0  0.11893000000000001  0.95024  0.21802000000000002  1.0000
  C   C12       1.0  0.00158  0.9470699999999997  0.24909  1.0000
  C   C13       1.0  0.54733  0.39848999999999996  0.42591  1.0000
  C   C14       1.0  0.51991  0.32042  0.3832  1.0000
  C   C15       1.0  0.6207200000000002  0.34978  0.35751  1.0000
  C   C16       1.0  0.3057  0.43507999999999997  0.56255  1.0000
  C   C17       1.0  0.17850000000000005  0.4960300000000001  0.5235  1.0000
  C   C18       1.0  0.19613  0.4521399999999999  0.4886  1.0000
  C   C19       1.0  0.14699  0.2868899999999999  0.39946  1.0000
  C   C20       1.0  0.02039  0.31842  0.46518  1.0000
  C   C21       1.0  0.9340600000000001  0.29604  0.42667999999999995  1.0000
  C   C22       1.0  0.37389  0.28251  0.58712  1.0000
  C   C23       1.0  0.52994  0.26047  0.5276  1.0000
  C   C24       1.0  0.55865  0.23294  0.57356  1.0000
  C   C25       1.0  0.18345  0.24602  0.74694  1.0000
  C   C26       1.0  0.21653000000000003  0.32848999999999995  0.7796900000000001  1.0000
  C   C27       1.0  0.32883  0.31412999999999996  0.74858  1.0000
  C   C28       1.0  0.63214  0.90053  0.29193  1.0000
  C   C29       1.0  0.66194  0.8840699999999998  0.37631  1.0000
  C   C30       1.0  0.69762  0.9377599999999999  0.36784  1.0000
  C   C31       1.0  0.71598  0.25060999999999994  0.25331  1.0000
  C   C32       1.0  0.73691  0.3271  0.211  1.0000
  C   C33       1.0  0.85257  0.32056999999999997  0.24238000000000004  1.0000
  C   C34       1.0  0.37811  0.38272999999999996  0.19505  1.0000
  C   C35       1.0  0.27037000000000005  0.34525999999999996  0.12711  1.0000
  C   C36       1.0  0.21538  0.39662  0.13692  1.0000
  C   C37       1.0  0.97834  0.47824999999999995  0.29088  1.0000
  C   C38       1.0  0.13205  0.41882999999999987  0.31573  1.0000
  C   C39       1.0  0.01695  0.4135  0.34753  1.0000
  C   C40       1.0  0.48621000000000003  0.4804799999999999  0.29947  1.0000
  C   C41       1.0  0.61893  0.54975  0.28198  1.0000
  C   C42       1.0  0.50158  0.5529199999999999  0.25091  1.0000
  C   C43       1.0  0.04733  0.10149999999999999  0.07409  1.0000
  C   C44       1.0  0.01991  0.17957999999999996  0.1168  1.0000
  C   C45       1.0  0.12072000000000001  0.15021  0.14249  1.0000
  C   C46       1.0  0.8057  0.06491  0.93745  1.0000
  C   C47       1.0  0.6785000000000001  0.003969999999999994  0.9765100000000001  1.0000
  C   C48       1.0  0.69612  0.04786  0.0114  1.0000
  C   C49       1.0  0.6469900000000001  0.21311  0.10054  1.0000
  C   C50       1.0  0.52039  0.18158  0.03482  1.0000
  C   C51       1.0  0.43406  0.20394999999999994  0.07333  1.0000
  C   C52       1.0  0.8738900000000002  0.21748999999999996  0.91288  1.0000
  C   C53       1.0  0.029940000000000005  0.23952  0.97241  1.0000
  C   C54       1.0  0.05865  0.26706  0.92645  1.0000
  C   C55       1.0  0.68345  0.25398  0.75306  1.0000
  C   C56       1.0  0.71652  0.17150999999999997  0.72031  1.0000
  C   C57       1.0  0.8288300000000001  0.18586999999999998  0.75142  1.0000
  C   C58       1.0  0.13214  0.59947  0.20807  1.0000
  C   C59       1.0  0.16195  0.61592  0.12369  1.0000
  C   C60       1.0  0.19763  0.5622399999999999  0.13216  1.0000
  C   C61       1.0  0.78401  0.75061  0.7533099999999999  1.0000
  C   C62       1.0  0.76309  0.8270999999999997  0.711  1.0000
  C   C63       1.0  0.6474200000000001  0.82057  0.74238  1.0000
  C   C64       1.0  0.12189000000000001  0.88273  0.69505  1.0000
  C   C65       1.0  0.22963  0.84526  0.62711  1.0000
  C   C66       1.0  0.28462  0.89662  0.63692  1.0000
  C   C67       1.0  0.52166  0.9782499999999998  0.79088  1.0000
  C   C68       1.0  0.36795  0.9188299999999998  0.8157300000000001  1.0000
  C   C69       1.0  0.4830500000000001  0.9135  0.84753  1.0000
  C   C70       1.0  0.01379  0.9804799999999998  0.79947  1.0000
  C   C71       1.0  0.8810700000000001  0.049749999999999996  0.78198  1.0000
  C   C72       1.0  0.99842  0.05292  0.75091  1.0000
  C   C73       1.0  0.4526700000000001  0.6015  0.57409  1.0000
  C   C74       1.0  0.4800900000000001  0.6795799999999997  0.6168  1.0000
  C   C75       1.0  0.37928  0.65021  0.64249  1.0000
  C   C76       1.0  0.6943  0.56491  0.43744999999999995  1.0000
  C   C77       1.0  0.8215  0.50397  0.4765  1.0000
  C   C78       1.0  0.8038700000000002  0.5478499999999998  0.5114  1.0000
  C   C79       1.0  0.8530100000000002  0.71311  0.60054  1.0000
  C   C80       1.0  0.9796100000000001  0.6815699999999999  0.53482  1.0000
  C   C81       1.0  0.06594  0.70395  0.57333  1.0000
  C   C82       1.0  0.6261  0.7174899999999997  0.41288  1.0000
  C   C83       1.0  0.47006  0.73952  0.47241  1.0000
  C   C84       1.0  0.44134  0.7670599999999999  0.42644  1.0000
  C   C85       1.0  0.8165400000000002  0.75398  0.25306  1.0000
  C   C86       1.0  0.78347  0.67151  0.22031000000000003  1.0000
  C   C87       1.0  0.67116  0.68587  0.25142  1.0000
  C   C88       1.0  0.36785  0.09947  0.70807  1.0000
  C   C89       1.0  0.33805  0.11591999999999997  0.62369  1.0000
  C   C90       1.0  0.30237  0.06224  0.63216  1.0000
  C   C91       1.0  0.28401000000000004  0.74938  0.7467  1.0000
  C   C92       1.0  0.26309000000000005  0.6729  0.789  1.0000
  C   C93       1.0  0.14743  0.67942  0.7576299999999999  1.0000
  C   C94       1.0  0.62188  0.61727  0.80496  1.0000
  C   C95       1.0  0.7296300000000001  0.65473  0.87289  1.0000
  C   C96       1.0  0.78462  0.60338  0.86308  1.0000
  C   C97       1.0  0.02166  0.52174  0.70912  1.0000
  C   C98       1.0  0.86795  0.58117  0.6842699999999999  1.0000
  C   C99       1.0  0.9830500000000002  0.5865  0.65247  1.0000
  C   C100      1.0  0.5137900000000001  0.51951  0.70053  1.0000
  C   C101      1.0  0.38107  0.45024  0.71802  1.0000
  C   C102      1.0  0.49842  0.44707  0.74909  1.0000
  C   C103      1.0  0.9526600000000001  0.8984899999999998  0.92591  1.0000
  C   C104      1.0  0.98009  0.82042  0.8832  1.0000
  C   C105      1.0  0.8792800000000001  0.8497799999999999  0.85751  1.0000
  C   C106      1.0  0.19430000000000003  0.9350799999999998  0.06255  1.0000
  C   C107      1.0  0.32150000000000006  0.99603  0.0235  1.0000
  C   C108      1.0  0.30387  0.9521399999999998  0.9886  1.0000
  C   C109      1.0  0.35301  0.78688  0.89946  1.0000
  C   C110      1.0  0.47961000000000004  0.8184199999999999  0.96518  1.0000
  C   C111      1.0  0.5659400000000001  0.79604  0.92668  1.0000
  C   C112      1.0  0.12611  0.78251  0.08712  1.0000
  C   C113      1.0  0.9700600000000003  0.76047  0.02759  1.0000
  C   C114      1.0  0.94134  0.73294  0.07356  1.0000
  C   C115      1.0  0.31654  0.74602  0.24693999999999997  1.0000
  C   C116      1.0  0.28347  0.8284899999999998  0.27969  1.0000
  C   C117      1.0  0.17116  0.8141299999999998  0.24858  1.0000
  C   C118      1.0  0.86785  0.40053  0.79193  1.0000
  C   C119      1.0  0.8380500000000001  0.38406999999999997  0.8763099999999999  1.0000
  C   C120      1.0  0.8023700000000002  0.43776  0.86784  1.0000
  N   N1        1.0  0.15034  0.21737  0.28184  1.0000
  N   N2        1.0  0.33877  0.22817999999999994  0.23095  1.0000
  N   N3        1.0  0.87372  0.16338  0.33576000000000006  1.0000
  N   N4        1.0  0.78462  0.07968  0.32002  1.0000
  N   N5        1.0  0.60707  0.039889999999999995  0.22005000000000002  1.0000
  N   N6        1.0  0.41994000000000004  0.04869  0.16853  1.0000
  N   N7        1.0  0.91772  0.9912  0.23774  1.0000
  N   N8        1.0  0.10868000000000001  0.9964799999999998  0.18739  1.0000
  N   N9        1.0  0.63789  0.39925  0.38498999999999994  1.0000
  N   N10       1.0  0.47338  0.3517  0.42655  1.0000
  N   N11       1.0  0.24808  0.4849499999999999  0.57031  1.0000
  N   N12       1.0  0.27689  0.41356  0.51368  1.0000
  N   N13       1.0  0.15538  0.31245  0.44763  1.0000
  N   N14       1.0  0.01537  0.27606  0.38509  1.0000
  N   N15       1.0  0.41256  0.29184  0.53643  1.0000
  N   N16       1.0  0.45951  0.24722  0.61123  1.0000
  N   N17       1.0  0.30736  0.26173  0.72787  1.0000
  N   N18       1.0  0.12443  0.28507  0.77843  1.0000
  N   N19       1.0  0.62056  0.8606399999999998  0.32797  1.0000
  N   N20       1.0  0.67814  0.9480599999999999  0.31419  1.0000
  N   N21       1.0  0.6503400000000001  0.28263  0.21816  1.0000
  N   N22       1.0  0.83877  0.27182  0.26905  1.0000
  N   N23       1.0  0.37372000000000005  0.33662  0.16424  1.0000
  N   N24       1.0  0.28462  0.42032  0.17998  1.0000
  N   N25       1.0  0.10708000000000002  0.46010999999999996  0.27995  1.0000
  N   N26       1.0  0.91994  0.45130999999999993  0.33147  1.0000
  N   N27       1.0  0.41772  0.5088  0.26226  1.0000
  N   N28       1.0  0.6086800000000001  0.50352  0.31261  1.0000
  N   N29       1.0  0.13789  0.10075  0.11501  1.0000
  N   N30       1.0  0.97338  0.1483  0.07345  1.0000
  N   N31       1.0  0.74808  0.015049999999999989  0.9296899999999999  1.0000
  N   N32       1.0  0.77689  0.08643999999999998  0.9863199999999999  1.0000
  N   N33       1.0  0.6553800000000001  0.18753999999999998  0.05237  1.0000
  N   N34       1.0  0.51536  0.22394  0.11491  1.0000
  N   N35       1.0  0.91256  0.20816  0.96357  1.0000
  N   N36       1.0  0.9595100000000001  0.25277  0.88877  1.0000
  N   N37       1.0  0.80736  0.23827  0.77213  1.0000
  N   N38       1.0  0.6244300000000002  0.21493  0.72157  1.0000
  N   N39       1.0  0.12057  0.63935  0.17204000000000003  1.0000
  N   N40       1.0  0.17814  0.55193  0.18581  1.0000
  N   N41       1.0  0.84966  0.78263  0.71817  1.0000
  N   N42       1.0  0.66123  0.77182  0.76905  1.0000
  N   N43       1.0  0.12627  0.8366199999999999  0.66424  1.0000
  N   N44       1.0  0.21538  0.9203099999999999  0.6799799999999999  1.0000
  N   N45       1.0  0.39292  0.9601099999999998  0.77995  1.0000
  N   N46       1.0  0.58006  0.9512999999999999  0.83147  1.0000
  N   N47       1.0  0.08228  0.0088  0.76226  1.0000
  N   N48       1.0  0.8913200000000001  0.0035199999999999997  0.81261  1.0000
  N   N49       1.0  0.36211  0.6007399999999999  0.61501  1.0000
  N   N50       1.0  0.5266200000000001  0.6482999999999999  0.57345  1.0000
  N   N51       1.0  0.75191  0.51505  0.42969  1.0000
  N   N52       1.0  0.7231  0.5864399999999999  0.48632  1.0000
  N   N53       1.0  0.84462  0.6875399999999999  0.55237  1.0000
  N   N54       1.0  0.9846300000000001  0.72394  0.61491  1.0000
  N   N55       1.0  0.58744  0.70816  0.46357  1.0000
  N   N56       1.0  0.54049  0.7527699999999999  0.38877  1.0000
  N   N57       1.0  0.6926300000000002  0.73827  0.27213  1.0000
  N   N58       1.0  0.87556  0.71493  0.22157  1.0000
  N   N59       1.0  0.37943  0.13935  0.67204  1.0000
  N   N60       1.0  0.32185000000000014  0.05192999999999998  0.68581  1.0000
  N   N61       1.0  0.34966  0.71736  0.7818399999999999  1.0000
  N   N62       1.0  0.16123  0.7281799999999999  0.73095  1.0000
  N   N63       1.0  0.62627  0.6633699999999999  0.83576  1.0000
  N   N64       1.0  0.71538  0.57968  0.8200200000000001  1.0000
  N   N65       1.0  0.89292  0.53988  0.72005  1.0000
  N   N66       1.0  0.08006000000000002  0.54869  0.66853  1.0000
  N   N67       1.0  0.58227  0.49118999999999996  0.73774  1.0000
  N   N68       1.0  0.3913200000000001  0.49648  0.68739  1.0000
  N   N69       1.0  0.86211  0.8992499999999999  0.885  1.0000
  N   N70       1.0  0.026620000000000005  0.8516999999999998  0.92655  1.0000
  N   N71       1.0  0.25192  0.9849499999999998  0.07031  1.0000
  N   N72       1.0  0.22311  0.91356  0.01368  1.0000
  N   N73       1.0  0.34462  0.81245  0.94763  1.0000
  N   N74       1.0  0.48463000000000006  0.7760599999999998  0.88509  1.0000
  N   N75       1.0  0.08744  0.7918399999999999  0.03643  1.0000
  N   N76       1.0  0.04049  0.7472199999999998  0.11123  1.0000
  N   N77       1.0  0.19264000000000003  0.76173  0.22787  1.0000
  N   N78       1.0  0.37556000000000006  0.7850699999999998  0.27843  1.0000
  N   N79       1.0  0.8794300000000002  0.36063999999999996  0.82797  1.0000
  N   N80       1.0  0.8218500000000001  0.44806  0.81419  1.0000
