data_image0
_chemical_formula_structural       In4H128C216O32
_chemical_formula_sum              "In4 H128 C216 O32"
_cell_length_a       14.82957
_cell_length_b       20.8036
_cell_length_c       32.048680000000004
_cell_angle_alpha    90.39497
_cell_angle_beta     90.19072
_cell_angle_gamma    110.66569

_symmetry_space_group_name_H-M    'P 1'
_symmetry_Int_Tables_number       1

loop_
  _symmetry_equiv_pos_as_xyz
  'x,y,z'

loop_
  _atom_site_type_symbol
  _atom_site_label
  _atom_site_symmetry_multiplicity
  _atom_site_fract_x
  _atom_site_fract_y
  _atom_site_fract_z
  _atom_site_occupancy
  In  In1       1.0  0.76647  0.56367  0.80095  1.0000
  In  In2       1.0  0.79829  0.56503  0.29971  1.0000
  In  In3       1.0  0.2016399999999999  0.43487999999999993  0.7002  1.0000
  In  In4       1.0  0.2335  0.43632  0.19906  1.0000
  H   H1        1.0  0.94484  0.44190000000000007  0.7261799999999998  1.0000
  H   H2        1.0  0.95355  0.34824  0.68056  1.0000
  H   H3        1.0  0.6443  0.27829  0.66192  1.0000
  H   H4        1.0  0.63739  0.37343  0.70834  1.0000
  H   H5        1.0  0.91528  0.23234  0.6803  1.0000
  H   H6        1.0  0.9139  0.12923  0.64105  1.0000
  H   H7        1.0  0.69859  0.15093  0.55717  1.0000
  H   H8        1.0  0.69252  0.24946  0.59897  1.0000
  H   H9        1.0  0.6982199999999997  0.022499999999999996  0.63782  1.0000
  H   H10       1.0  0.68363  0.9192399999999998  0.67897  1.0000
  H   H11       1.0  0.90972  0.8894699999999999  0.60627  1.0000
  H   H12       1.0  0.92136  0.99088  0.56404  1.0000
  H   H13       1.0  0.6319999999999998  0.80107  0.6771  1.0000
  H   H14       1.0  0.62133  0.69963  0.72069  1.0000
  H   H15       1.0  0.92733  0.75219  0.71355  1.0000
  H   H16       1.0  0.94036  0.8545199999999998  0.67028  1.0000
  H   H17       1.0  0.9478399999999998  0.20503  0.53643  1.0000
  H   H18       1.0  0.95564  0.30447  0.49291  1.0000
  H   H19       1.0  0.7072299999999998  0.17762999999999998  0.42311  1.0000
  H   H20       1.0  0.70441  0.07643999999999998  0.46427  1.0000
  H   H21       1.0  0.9843  0.34533  0.41804  1.0000
  H   H22       1.0  0.97843  0.44072  0.3719899999999999  1.0000
  H   H23       1.0  0.6747099999999999  0.38135  0.39202  1.0000
  H   H24       1.0  0.67748  0.28353  0.4365199999999999  1.0000
  H   H25       1.0  0.92174  0.06751  0.46361999999999987  1.0000
  H   H26       1.0  0.91837  0.96542  0.42227  1.0000
  H   H27       1.0  0.6820199999999998  0.83782  0.49609  1.0000
  H   H28       1.0  0.68696  0.9391799999999999  0.53821  1.0000
  H   H29       1.0  0.9563299999999999  0.8637599999999999  0.43224  1.0000
  H   H30       1.0  0.95522  0.76261  0.38908  1.0000
  H   H31       1.0  0.64743  0.69097  0.38195  1.0000
  H   H32       1.0  0.6458699999999999  0.78981  0.42675  1.0000
  H   H33       1.0  0.49967  0.44414999999999993  0.22446  1.0000
  H   H34       1.0  0.39593  0.34891  0.1803  1.0000
  H   H35       1.0  0.63443  0.27734  0.16234  1.0000
  H   H36       1.0  0.73779  0.37415  0.20734  1.0000
  H   H37       1.0  0.31795  0.23272999999999996  0.18028  1.0000
  H   H38       1.0  0.21614999999999998  0.13008  0.14086  1.0000
  H   H39       1.0  0.45223  0.15066  0.05743  1.0000
  H   H40       1.0  0.5567699999999999  0.24859999999999996  0.09948  1.0000
  H   H41       1.0  0.32493999999999995  0.02234999999999999  0.13796999999999995  1.0000
  H   H42       1.0  0.23653000000000005  0.91948  0.17917  1.0000
  H   H43       1.0  0.9808799999999999  0.8909  0.10603  1.0000
  H   H44       1.0  0.07042999999999994  0.9917999999999999  0.06366  1.0000
  H   H45       1.0  0.16966999999999993  0.80117  0.1773  1.0000
  H   H46       1.0  0.07877000000000006  0.69923  0.22007  1.0000
  H   H47       1.0  0.82633  0.75375  0.21285  1.0000
  H   H48       1.0  0.91574  0.85668  0.17034  1.0000
  H   H49       1.0  0.25685  0.20495999999999998  0.03629  1.0000
  H   H50       1.0  0.34829  0.30451  0.9930199999999998  1.0000
  H   H51       1.0  0.46946999999999994  0.17715  0.92338  1.0000
  H   H52       1.0  0.37144999999999995  0.07589  0.9642199999999997  1.0000
  H   H53       1.0  0.35992  0.34563  0.91834  1.0000
  H   H54       1.0  0.46011  0.44072999999999996  0.8723499999999997  1.0000
  H   H55       1.0  0.7041899999999999  0.37977999999999995  0.89248  1.0000
  H   H56       1.0  0.60423  0.28229999999999994  0.9369999999999998  1.0000
  H   H57       1.0  0.14527  0.06715  0.96298  1.0000
  H   H58       1.0  0.04729000000000001  0.96504  0.92167  1.0000
  H   H59       1.0  0.15715000000000007  0.83748  0.99618  1.0000
  H   H60       1.0  0.25267  0.93884  0.03833  1.0000
  H   H61       1.0  0.90797  0.8636099999999999  0.93218  1.0000
  H   H62       1.0  0.80678  0.76182  0.8899  1.0000
  H   H63       1.0  0.042309999999999987  0.6888299999999999  0.88289  1.0000
  H   H64       1.0  0.14394000000000007  0.7883  0.92685  1.0000
  H   H65       1.0  0.50033  0.5558700000000001  0.77553  1.0000
  H   H66       1.0  0.60403  0.6511099999999999  0.81969  1.0000
  H   H67       1.0  0.3655199999999999  0.72264  0.8376599999999997  1.0000
  H   H68       1.0  0.26215999999999995  0.6258499999999999  0.79266  1.0000
  H   H69       1.0  0.68201  0.76727  0.81971  1.0000
  H   H70       1.0  0.78383  0.86992  0.85914  1.0000
  H   H71       1.0  0.5477499999999998  0.8493299999999999  0.94257  1.0000
  H   H72       1.0  0.4432  0.75139  0.90052  1.0000
  H   H73       1.0  0.6750899999999999  0.9776899999999998  0.86203  1.0000
  H   H74       1.0  0.7635  0.08055  0.82084  1.0000
  H   H75       1.0  0.01913  0.1091  0.89398  1.0000
  H   H76       1.0  0.92958  0.008230000000000003  0.93635  1.0000
  H   H77       1.0  0.83038  0.19890999999999998  0.82271  1.0000
  H   H78       1.0  0.92127  0.30079  0.77988  1.0000
  H   H79       1.0  0.17361999999999994  0.24619999999999997  0.78703  1.0000
  H   H80       1.0  0.08438  0.1434  0.82968  1.0000
  H   H81       1.0  0.7429599999999998  0.7949099999999999  0.96372  1.0000
  H   H82       1.0  0.65173  0.69541  0.00706  1.0000
  H   H83       1.0  0.53055  0.8227499999999999  0.07670999999999997  1.0000
  H   H84       1.0  0.62834  0.92398  0.0358  1.0000
  H   H85       1.0  0.6398999999999999  0.65412  0.08174  1.0000
  H   H86       1.0  0.5392299999999998  0.559  0.12768  1.0000
  H   H87       1.0  0.29555  0.62033  0.10743  1.0000
  H   H88       1.0  0.39586999999999994  0.7177899999999999  0.06298  1.0000
  H   H89       1.0  0.85458  0.93274  0.03701  1.0000
  H   H90       1.0  0.9526399999999998  0.03488  0.07828  1.0000
  H   H91       1.0  0.84275  0.16242  0.00376  1.0000
  H   H92       1.0  0.7471499999999999  0.06101999999999999  0.96165  1.0000
  H   H93       1.0  0.09195999999999999  0.13630999999999996  0.06774  1.0000
  H   H94       1.0  0.19316  0.23805999999999997  0.11005  1.0000
  H   H95       1.0  0.95764  0.31104  0.11712  1.0000
  H   H96       1.0  0.85601  0.21162000000000003  0.07313  1.0000
  H   H97       1.0  0.05520000000000005  0.55823  0.27375  1.0000
  H   H98       1.0  0.04643999999999994  0.6518399999999999  0.3194299999999999  1.0000
  H   H99       1.0  0.35569  0.72189  0.3380299999999999  1.0000
  H   H100      1.0  0.36267  0.62682  0.29157  1.0000
  H   H101      1.0  0.08466999999999998  0.7676499999999999  0.31973  1.0000
  H   H102      1.0  0.08610000000000004  0.87079  0.35897  1.0000
  H   H103      1.0  0.3014  0.8491  0.44284  1.0000
  H   H104      1.0  0.3074299999999999  0.75053  0.40105  1.0000
  H   H105      1.0  0.30177  0.97749  0.36216  1.0000
  H   H106      1.0  0.31637  0.08076  0.32102  1.0000
  H   H107      1.0  0.09028  0.11052000000000001  0.39372  1.0000
  H   H108      1.0  0.07863  0.0091  0.43594  1.0000
  H   H109      1.0  0.368  0.19895  0.3229  1.0000
  H   H110      1.0  0.37868  0.30038  0.27932  1.0000
  H   H111      1.0  0.07265  0.2478  0.28645  1.0000
  H   H112      1.0  0.05967  0.14548  0.32973  1.0000
  H   H113      1.0  0.05215999999999997  0.79499  0.46355  1.0000
  H   H114      1.0  0.04434999999999999  0.69554  0.50707  1.0000
  H   H115      1.0  0.29277  0.82236  0.57686  1.0000
  H   H116      1.0  0.2956099999999998  0.9235599999999999  0.53571  1.0000
  H   H117      1.0  0.015720000000000046  0.65472  0.58195  1.0000
  H   H118      1.0  0.021629999999999983  0.5592999999999999  0.62798  1.0000
  H   H119      1.0  0.32532  0.61868  0.60794  1.0000
  H   H120      1.0  0.32254  0.71653  0.56344  1.0000
  H   H121      1.0  0.07826999999999995  0.9324799999999999  0.53636  1.0000
  H   H122      1.0  0.08162  0.03457  0.57771  1.0000
  H   H123      1.0  0.31797  0.16219  0.5039  1.0000
  H   H124      1.0  0.31303  0.06084  0.46177  1.0000
  H   H125      1.0  0.04366999999999999  0.13621999999999998  0.56775  1.0000
  H   H126      1.0  0.04476999999999998  0.23736999999999997  0.61091  1.0000
  H   H127      1.0  0.35257  0.30903  0.61803  1.0000
  H   H128      1.0  0.35413999999999984  0.21018999999999996  0.57322  1.0000
  C   C1        1.0  0.78466  0.46891  0.7480699999999998  1.0000
  C   C2        1.0  0.79039  0.41318999999999995  0.71985  1.0000
  C   C3        1.0  0.8795  0.40601  0.71204  1.0000
  C   C4        1.0  0.88385  0.35268  0.68667  1.0000
  C   C5        1.0  0.7991899999999996  0.30603  0.66815  1.0000
  C   C6        1.0  0.71005  0.31472  0.67543  1.0000
  C   C7        1.0  0.70556  0.36712  0.70141  1.0000
  C   C8        1.0  0.80303  0.24811999999999998  0.64289  1.0000
  C   C9        1.0  0.86684  0.21386  0.65373  1.0000
  C   C10       1.0  0.8663499999999997  0.15621  0.63162  1.0000
  C   C11       1.0  0.80736  0.13308  0.59583  1.0000
  C   C12       1.0  0.74505  0.16825  0.58438  1.0000
  C   C13       1.0  0.7415699999999998  0.22343  0.60795  1.0000
  C   C14       1.0  0.81163  0.07334999999999997  0.57237  1.0000
  C   C15       1.0  0.81011  0.013999999999999999  0.59757  1.0000
  C   C16       1.0  0.74412  0.99303  0.63082  1.0000
  C   C17       1.0  0.7356599999999998  0.9348  0.65377  1.0000
  C   C18       1.0  0.7952299999999999  0.89626  0.6456599999999998  1.0000
  C   C19       1.0  0.8634  0.91865  0.61329  1.0000
  C   C20       1.0  0.87001  0.97567  0.58948  1.0000
  C   C21       1.0  0.7872599999999998  0.83536  0.67062  1.0000
  C   C22       1.0  0.6972099999999999  0.7913699999999999  0.6854  1.0000
  C   C23       1.0  0.69043  0.73435  0.70943  1.0000
  C   C24       1.0  0.77364  0.72023  0.71951  1.0000
  C   C25       1.0  0.86361  0.76363  0.7049699999999998  1.0000
  C   C26       1.0  0.87022  0.82022  0.68066  1.0000
  C   C27       1.0  0.81428  0.07244  0.529  1.0000
  C   C28       1.0  0.82422  0.13365999999999997  0.50399  1.0000
  C   C29       1.0  0.89549  0.19874  0.51146  1.0000
  C   C30       1.0  0.9  0.25466  0.48689  1.0000
  C   C31       1.0  0.83099  0.24851999999999996  0.45528  1.0000
  C   C32       1.0  0.75987  0.18335  0.44789  1.0000
  C   C33       1.0  0.75834  0.12671  0.47084  1.0000
  C   C34       1.0  0.8310300000000002  0.3075  0.43015  1.0000
  C   C35       1.0  0.91652  0.35328  0.41268  1.0000
  C   C36       1.0  0.91383  0.40637  0.387  1.0000
  C   C37       1.0  0.8262799999999998  0.41603999999999997  0.37951  1.0000
  C   C38       1.0  0.74127  0.37193  0.3978  1.0000
  C   C39       1.0  0.74338  0.31763  0.42231  1.0000
  C   C40       1.0  0.8062099999999998  0.01056  0.50454  1.0000
  C   C41       1.0  0.87003  0.01696  0.4709  1.0000
  C   C42       1.0  0.86868  0.95974  0.44804  1.0000
  C   C43       1.0  0.80131  0.89407  0.45675  1.0000
  C   C44       1.0  0.73469  0.8881499999999999  0.4891  1.0000
  C   C45       1.0  0.73766  0.9449999999999998  0.51285  1.0000
  C   C46       1.0  0.80097  0.83397  0.43220999999999987  1.0000
  C   C47       1.0  0.8885199999999998  0.82618  0.42118  1.0000
  C   C48       1.0  0.8885199999999998  0.77009  0.3973  1.0000
  C   C49       1.0  0.8014699999999997  0.7217899999999999  0.38275  1.0000
  C   C50       1.0  0.714  0.72887  0.39377  1.0000
  C   C51       1.0  0.71373  0.78385  0.41874  1.0000
  C   C52       1.0  0.76776  0.6606299999999999  0.74652  1.0000
  C   C53       1.0  0.80248  0.66436  0.3546399999999999  1.0000
  C   C54       1.0  0.82184  0.47234  0.35185999999999995  1.0000
  C   C55       1.0  0.68684  0.47042  0.24633  1.0000
  C   C56       1.0  0.62478  0.4144999999999999  0.21844  1.0000
  C   C57       1.0  0.52851  0.40748  0.21078  1.0000
  C   C58       1.0  0.47018  0.35338  0.18614  1.0000
  C   C59       1.0  0.50767  0.30594  0.16815  1.0000
  C   C60       1.0  0.60555  0.31449  0.17529  1.0000
  C   C61       1.0  0.66313  0.36768  0.20053  1.0000
  C   C62       1.0  0.44558  0.24784  0.14317  1.0000
  C   C63       1.0  0.34774  0.21405999999999997  0.15378999999999995  1.0000
  C   C64       1.0  0.2905  0.15663  0.13154  1.0000
  C   C65       1.0  0.32595  0.13325  0.09578  1.0000
  C   C66       1.0  0.42322  0.16802  0.08459  1.0000
  C   C67       1.0  0.48193  0.22288  0.10831  1.0000
  C   C68       1.0  0.26205  0.07352  0.07224  1.0000
  C   C69       1.0  0.20463  0.01437  0.09746  1.0000
  C   C70       1.0  0.24964999999999996  0.9932299999999998  0.13088  1.0000
  C   C71       1.0  0.20002  0.9352  0.15386  1.0000
  C   C72       1.0  0.10204999999999997  0.89713  0.14566  1.0000
  C   C73       1.0  0.05626999999999994  0.9197299999999999  0.11312  1.0000
  C   C74       1.0  0.10654  0.97646  0.08924  1.0000
  C   C75       1.0  0.04914000000000002  0.8363  0.17051  1.0000
  C   C76       1.0  0.09482000000000003  0.79165  0.18527  1.0000
  C   C77       1.0  0.04440000000000006  0.73431  0.20886  1.0000
  C   C78       1.0  0.9471899999999995  0.72071  0.21852  1.0000
  C   C79       1.0  0.90121  0.76495  0.20426  1.0000
  C   C80       1.0  0.95136  0.82179  0.18038  1.0000
  C   C81       1.0  0.25803  0.07227  0.02884  1.0000
  C   C82       1.0  0.30899  0.13336  0.00386  1.0000
  C   C83       1.0  0.30277  0.19858  0.0114  1.0000
  C   C84       1.0  0.35394  0.25452  0.98697  1.0000
  C   C85       1.0  0.41644999999999993  0.24815999999999996  0.95544  1.0000
  C   C86       1.0  0.42258  0.18288  0.94804  1.0000
  C   C87       1.0  0.36776  0.12626  0.97084  1.0000
  C   C88       1.0  0.47502  0.30704  0.93041  1.0000
  C   C89       1.0  0.43538  0.35322  0.91293  1.0000
  C   C90       1.0  0.49076999999999993  0.40619  0.88726  1.0000
  C   C91       1.0  0.5876599999999998  0.41519999999999996  0.87982  1.0000
  C   C92       1.0  0.62845  0.37071  0.8982  1.0000
  C   C93       1.0  0.57243  0.31662  0.92268  1.0000
  C   C94       1.0  0.20431  0.0103  0.00436  1.0000
  C   C95       1.0  0.14686  0.01662  0.97048  1.0000
  C   C96       1.0  0.09139999999999993  0.9593299999999999  0.94757  1.0000
  C   C97       1.0  0.09339999999999997  0.89359  0.95647  1.0000
  C   C98       1.0  0.15434  0.88779  0.989  1.0000
  C   C99       1.0  0.20779  0.94469  0.0128  1.0000
  C   C100      1.0  0.03331000000000002  0.83326  0.9322  1.0000
  C   C101      1.0  0.93779  0.82558  0.92132  1.0000
  C   C102      1.0  0.8810599999999998  0.7690399999999998  0.89797  1.0000
  C   C103      1.0  0.9194099999999998  0.7200899999999999  0.88385  1.0000
  C   C104      1.0  0.014200000000000022  0.72722  0.8945799999999998  1.0000
  C   C105      1.0  0.07006999999999992  0.7826399999999999  0.91902  1.0000
  C   C106      1.0  0.8929000000000001  0.66118  0.24521  1.0000
  C   C107      1.0  0.8606199999999998  0.66183  0.85642  1.0000
  C   C108      1.0  0.64875  0.47091  0.85215  1.0000
  C   C109      1.0  0.31310999999999994  0.5295499999999999  0.75363  1.0000
  C   C110      1.0  0.37517  0.58549  0.78153  1.0000
  C   C111      1.0  0.4714400000000001  0.59252  0.78921  1.0000
  C   C112      1.0  0.52977  0.64663  0.81385  1.0000
  C   C113      1.0  0.49228000000000005  0.69407  0.83184  1.0000
  C   C114      1.0  0.3944  0.6855  0.82471  1.0000
  C   C115      1.0  0.33682  0.63231  0.79945  1.0000
  C   C116      1.0  0.55438  0.7521699999999999  0.8568199999999998  1.0000
  C   C117      1.0  0.65223  0.78595  0.8462  1.0000
  C   C118      1.0  0.7094799999999999  0.8433699999999998  0.86845  1.0000
  C   C119      1.0  0.67401  0.86675  0.9042199999999998  1.0000
  C   C120      1.0  0.57675  0.83198  0.9154  1.0000
  C   C121      1.0  0.51803  0.77712  0.89168  1.0000
  C   C122      1.0  0.7378899999999999  0.9264599999999998  0.92776  1.0000
  C   C123      1.0  0.7953599999999998  0.9856299999999999  0.90256  1.0000
  C   C124      1.0  0.75038  0.00679  0.86913  1.0000
  C   C125      1.0  0.80002  0.06483  0.84615  1.0000
  C   C126      1.0  0.8979999999999998  0.10291  0.85435  1.0000
  C   C127      1.0  0.94374  0.08027999999999999  0.88688  1.0000
  C   C128      1.0  0.89345  0.02355  0.91077  1.0000
  C   C129      1.0  0.95091  0.16375  0.8294899999999997  1.0000
  C   C130      1.0  0.9052099999999998  0.20839  0.81474  1.0000
  C   C131      1.0  0.9555699999999999  0.26566  0.79108  1.0000
  C   C132      1.0  0.05265  0.27908  0.78132  1.0000
  C   C133      1.0  0.09875  0.23497999999999997  0.79567  1.0000
  C   C134      1.0  0.04869999999999998  0.17824999999999996  0.8196199999999998  1.0000
  C   C135      1.0  0.74179  0.9276299999999998  0.97117  1.0000
  C   C136      1.0  0.6908499999999997  0.86653  0.99615  1.0000
  C   C137      1.0  0.69712  0.80132  0.98864  1.0000
  C   C138      1.0  0.64603  0.74539  0.01309  1.0000
  C   C139      1.0  0.58354  0.75175  0.04462  1.0000
  C   C140      1.0  0.5773899999999998  0.8170199999999999  0.05203  1.0000
  C   C141      1.0  0.6321199999999999  0.8736299999999999  0.0292  1.0000
  C   C142      1.0  0.52491  0.69288  0.06964  1.0000
  C   C143      1.0  0.56447  0.64664  0.0871  1.0000
  C   C144      1.0  0.50892  0.5937  0.11272999999999997  1.0000
  C   C145      1.0  0.41208  0.5848  0.12017  1.0000
  C   C146      1.0  0.3713000000000001  0.62931  0.10177  1.0000
  C   C147      1.0  0.4274999999999999  0.68339  0.07731999999999997  1.0000
  C   C148      1.0  0.79552  0.98959  0.99564  1.0000
  C   C149      1.0  0.853  0.98328  0.02951  1.0000
  C   C150      1.0  0.90849  0.04058  0.0524  1.0000
  C   C151      1.0  0.9064800000000001  0.10632  0.04349  1.0000
  C   C152      1.0  0.8455299999999999  0.11209999999999999  0.01096  1.0000
  C   C153      1.0  0.7920599999999999  0.05519  0.98718  1.0000
  C   C154      1.0  0.9666  0.16664  0.06777  1.0000
  C   C155      1.0  0.06212000000000001  0.17431  0.07865  1.0000
  C   C156      1.0  0.11887  0.23084  0.10201  1.0000
  C   C157      1.0  0.08054999999999995  0.27979  0.11615  1.0000
  C   C158      1.0  0.98575  0.27265  0.10542  1.0000
  C   C159      1.0  0.92985  0.21724999999999997  0.08098  1.0000
  C   C160      1.0  0.10690999999999998  0.33824999999999994  0.7544199999999998  1.0000
  C   C161      1.0  0.13934999999999997  0.3381  0.14357  1.0000
  C   C162      1.0  0.35124  0.52902  0.14785  1.0000
  C   C163      1.0  0.21555  0.53132  0.25189  1.0000
  C   C164      1.0  0.20969  0.58705  0.2800799999999999  1.0000
  C   C165      1.0  0.12052999999999998  0.59412  0.28791  1.0000
  C   C166      1.0  0.11613000000000005  0.6474  0.31332  1.0000
  C   C167      1.0  0.20076999999999995  0.69402  0.33185  1.0000
  C   C168      1.0  0.28995  0.68544  0.32455  1.0000
  C   C169      1.0  0.29449  0.6331  0.29853  1.0000
  C   C170      1.0  0.19691000000000006  0.75188  0.35715  1.0000
  C   C171      1.0  0.13311  0.78614  0.34629  1.0000
  C   C172      1.0  0.13363999999999998  0.8438  0.36839  1.0000
  C   C173      1.0  0.1926499999999999  0.8669299999999999  0.40418  1.0000
  C   C174      1.0  0.25494999999999995  0.8317699999999999  0.41563  1.0000
  C   C175      1.0  0.2584  0.77657  0.39208  1.0000
  C   C176      1.0  0.18837000000000004  0.92667  0.42762  1.0000
  C   C177      1.0  0.18990000000000004  0.986  0.40242  1.0000
  C   C178      1.0  0.25588  0.006969999999999999  0.36916  1.0000
  C   C179      1.0  0.26434  0.0652  0.34622  1.0000
  C   C180      1.0  0.20477999999999996  0.10373999999999999  0.35434  1.0000
  C   C181      1.0  0.1366  0.08134  0.3867  1.0000
  C   C182      1.0  0.12999  0.02433  0.41051  1.0000
  C   C183      1.0  0.21275  0.16465  0.32938  1.0000
  C   C184      1.0  0.30279  0.20865  0.3146  1.0000
  C   C185      1.0  0.30957  0.26566999999999996  0.2905699999999999  1.0000
  C   C186      1.0  0.22635000000000002  0.27977  0.28048  1.0000
  C   C187      1.0  0.13637999999999997  0.23636999999999997  0.29503  1.0000
  C   C188      1.0  0.12978999999999996  0.17977999999999997  0.31934  1.0000
  C   C189      1.0  0.18571999999999997  0.92757  0.4709899999999999  1.0000
  C   C190      1.0  0.17578  0.86635  0.49599  1.0000
  C   C191      1.0  0.1045  0.80128  0.48852  1.0000
  C   C192      1.0  0.09999  0.7453499999999998  0.51309  1.0000
  C   C193      1.0  0.1690099999999999  0.75149  0.54469  1.0000
  C   C194      1.0  0.24014  0.81666  0.55209  1.0000
  C   C195      1.0  0.24166999999999986  0.8732999999999999  0.52914  1.0000
  C   C196      1.0  0.16897999999999994  0.69252  0.56982  1.0000
  C   C197      1.0  0.08348999999999998  0.64675  0.58729  1.0000
  C   C198      1.0  0.08619999999999994  0.59366  0.61296  1.0000
  C   C199      1.0  0.17376999999999998  0.58399  0.62042  1.0000
  C   C200      1.0  0.25878  0.62812  0.60215  1.0000
  C   C201      1.0  0.25665  0.68241  0.57765  1.0000
  C   C202      1.0  0.19379  0.98945  0.49545  1.0000
  C   C203      1.0  0.12996999999999995  0.9830399999999999  0.5290799999999999  1.0000
  C   C204      1.0  0.13132  0.04026  0.55195  1.0000
  C   C205      1.0  0.19868  0.10593  0.54324  1.0000
  C   C206      1.0  0.2653  0.11184999999999999  0.51089  1.0000
  C   C207      1.0  0.26234  0.05501  0.48713  1.0000
  C   C208      1.0  0.19903  0.16601999999999997  0.56779  1.0000
  C   C209      1.0  0.11146999999999999  0.17378999999999997  0.57882  1.0000
  C   C210      1.0  0.11147  0.22988  0.6027  1.0000
  C   C211      1.0  0.19851  0.27818  0.61724  1.0000
  C   C212      1.0  0.286  0.27112  0.60622  1.0000
  C   C213      1.0  0.28628  0.21614  0.5812499999999998  1.0000
  C   C214      1.0  0.23222000000000004  0.33938  0.25349  1.0000
  C   C215      1.0  0.19753  0.33567  0.6453  1.0000
  C   C216      1.0  0.17815  0.52765  0.6480399999999997  1.0000
  O   O1        1.0  0.85724  0.50319  0.7702899999999998  1.0000
  O   O2        1.0  0.70532  0.48061  0.7498799999999998  1.0000
  O   O3        1.0  0.8454  0.64925  0.75429  1.0000
  O   O4        1.0  0.68717  0.62398  0.76212  1.0000
  O   O5        1.0  0.7226799999999999  0.6234  0.33994  1.0000
  O   O6        1.0  0.88309  0.65865  0.34556  1.0000
  O   O7        1.0  0.7404599999999998  0.48045  0.3478  1.0000
  O   O8        1.0  0.8966  0.51028  0.3328699999999999  1.0000
  O   O9        1.0  0.64959  0.5062  0.26795  1.0000
  O   O10       1.0  0.7771399999999998  0.48069999999999996  0.24864  1.0000
  O   O11       1.0  0.80449  0.6508  0.25327  1.0000
  O   O12       1.0  0.9363199999999999  0.62356  0.26039  1.0000
  O   O13       1.0  0.89972  0.62082  0.84175  1.0000
  O   O14       1.0  0.77382  0.65562  0.84772  1.0000
  O   O15       1.0  0.73751  0.47729  0.84795  1.0000
  O   O16       1.0  0.61315  0.51006  0.83329  1.0000
  O   O17       1.0  0.35033999999999993  0.49372  0.73204  1.0000
  O   O18       1.0  0.22281000000000004  0.51927  0.75129  1.0000
  O   O19       1.0  0.1948  0.34759  0.74589  1.0000
  O   O20       1.0  0.06404999999999997  0.37654  0.73963  1.0000
  O   O21       1.0  0.10021  0.37906  0.15826  1.0000
  O   O22       1.0  0.22619  0.34438  0.15226  1.0000
  O   O23       1.0  0.26249  0.52258  0.15208  1.0000
  O   O24       1.0  0.3869899999999999  0.48994  0.16668999999999995  1.0000
  O   O25       1.0  0.14292  0.49683  0.22976  1.0000
  O   O26       1.0  0.29491  0.51968  0.25003  1.0000
  O   O27       1.0  0.15457  0.35074  0.24571  1.0000
  O   O28       1.0  0.31280999999999987  0.37605  0.2379  1.0000
  O   O29       1.0  0.2773599999999999  0.37663999999999986  0.65996  1.0000
  O   O30       1.0  0.11694000000000002  0.34142  0.65437  1.0000
  O   O31       1.0  0.25955  0.5196  0.6522  1.0000
  O   O32       1.0  0.10326  0.48964  0.66691  1.0000
