data_image0
_chemical_formula_structural       In8P8H56C112O56
_chemical_formula_sum              "In8 P8 H56 C112 O56"
_cell_length_a       6.86105
_cell_length_b       23.489519999999995
_cell_length_c       23.47878
_cell_angle_alpha    90.05153
_cell_angle_beta     90.01266
_cell_angle_gamma    89.99277

_space_group_name_H-M_alt    "P 1"
_space_group_IT_number       1

loop_
  _space_group_symop_operation_xyz
  'x, y, z'

loop_
  _atom_site_type_symbol
  _atom_site_label
  _atom_site_symmetry_multiplicity
  _atom_site_fract_x
  _atom_site_fract_y
  _atom_site_fract_z
  _atom_site_occupancy
  In  In1       1.0  0.00032  0.12002  0.2728  1.0000
  In  In2       1.0  1.0000000000000053e-05  0.8800300000000001  0.7272500000000001  1.0000
  In  In3       1.0  0.00027  0.72635  0.12063  1.0000
  In  In4       1.0  0.9999299999999999  0.27297  0.87996  1.0000
  In  In5       1.0  0.50036  0.37985  0.77291  1.0000
  In  In6       1.0  0.50133  0.62026  0.22715  1.0000
  In  In7       1.0  0.5007399999999999  0.77326  0.62068  1.0000
  In  In8       1.0  0.5011  0.2271  0.3797  1.0000
  P   P1        1.0  0.0009199999999999996  0.6058  0.20185  1.0000
  P   P2        1.0  0.0002600000000000001  0.39415999999999995  0.79843  1.0000
  P   P3        1.0  0.0003999999999999998  0.7986100000000002  0.60604  1.0000
  P   P4        1.0  0.0007899999999999999  0.20158  0.39406  1.0000
  P   P5        1.0  0.49987  0.89423  0.70214  1.0000
  P   P6        1.0  0.50091  0.10586  0.29797  1.0000
  P   P7        1.0  0.50092  0.70164  0.10602  1.0000
  P   P8        1.0  0.49929  0.29826  0.89416  1.0000
  H   H1        1.0  0.9998799999999999  0.54767  0.09184  1.0000
  H   H2        1.0  0.9999899999999999  0.31664  0.22098  1.0000
  H   H3        1.0  0.9999799999999999  0.19377  0.08585  1.0000
  H   H4        1.0  0.00013999999999999996  0.39941  0.24323  1.0000
  H   H5        1.0  0.00027  0.50074  0.26922  1.0000
  H   H6        1.0  2.0000000000000042e-05  0.37024999999999997  0.04315  1.0000
  H   H7        1.0  0.9999799999999999  0.44617  0.06445  1.0000
  H   H8        1.0  0.9999199999999999  0.45233  0.9083199999999999  1.0000
  H   H9        1.0  6.320911070378466e-20  0.6831899999999999  0.7792  1.0000
  H   H10       1.0  0.9999899999999999  0.8065199999999999  0.9138699999999998  1.0000
  H   H11       1.0  0.0001499999999999998  0.60063  0.75704  1.0000
  H   H12       1.0  0.0002299999999999999  0.49937  0.73102  1.0000
  H   H13       1.0  0.9999699999999999  0.63017  0.95719  1.0000
  H   H14       1.0  9.999999999999958e-06  0.55383  0.9358299999999999  1.0000
  H   H15       1.0  0.9999099999999999  0.9084699999999999  0.54829  1.0000
  H   H16       1.0  1.999999999999998e-05  0.77944  0.31727  1.0000
  H   H17       1.0  0.9999799999999999  0.91364  0.19373  1.0000
  H   H18       1.0  0.00014999999999999985  0.75745  0.39940999999999993  1.0000
  H   H19       1.0  0.00023000000000000003  0.73131  0.50065  1.0000
  H   H20       1.0  0.9999499999999999  0.9574100000000001  0.3702  1.0000
  H   H21       1.0  2.0000000000000042e-05  0.93612  0.44677  1.0000
  H   H22       1.0  0.9999199999999999  0.09176000000000001  0.452  1.0000
  H   H23       1.0  3.0000000000000035e-05  0.22083  0.68332  1.0000
  H   H24       1.0  0.9999899999999999  0.08585  0.8061099999999999  1.0000
  H   H25       1.0  8.999999999999992e-05  0.24307  0.60067  1.0000
  H   H26       1.0  0.00027  0.26902  0.49933  1.0000
  H   H27       1.0  0.9999899999999999  0.04308000000000001  0.62951  1.0000
  H   H28       1.0  0.9999699999999999  0.06433  0.55349  1.0000
  H   H29       1.0  0.5000699999999998  0.95199  0.59215  1.0000
  H   H30       1.0  0.4996799999999999  0.18342999999999998  0.7208299999999999  1.0000
  H   H31       1.0  0.49956  0.306  0.58561  1.0000
  H   H32       1.0  0.4999499999999999  0.1007  0.7433899999999999  1.0000
  H   H33       1.0  0.50004  0.99948  0.7694  1.0000
  H   H34       1.0  0.50029  0.12933  0.54309  1.0000
  H   H35       1.0  0.4999599999999999  0.05337  0.56462  1.0000
  H   H36       1.0  0.5004099999999999  0.04812  0.40790000000000004  1.0000
  H   H37       1.0  0.49991  0.8167  0.27924  1.0000
  H   H38       1.0  0.49956  0.6941100000000001  0.41438  1.0000
  H   H39       1.0  0.49984999999999996  0.89934  0.25676  1.0000
  H   H40       1.0  0.5000699999999998  0.00055  0.23068999999999998  1.0000
  H   H41       1.0  0.50032  0.87074  0.45704  1.0000
  H   H42       1.0  0.49984999999999996  0.94675  0.43549  1.0000
  H   H43       1.0  0.50022  0.59173  0.04819  1.0000
  H   H44       1.0  0.4999599999999999  0.72058  0.81728  1.0000
  H   H45       1.0  0.49955  0.58613  0.69369  1.0000
  H   H46       1.0  0.4999499999999999  0.7426699999999999  0.89949  1.0000
  H   H47       1.0  0.50003  0.7689  0.0008  1.0000
  H   H48       1.0  0.5003  0.54272  0.87012  1.0000
  H   H49       1.0  0.4999399999999999  0.56402  0.94663  1.0000
  H   H50       1.0  0.4999499999999999  0.40822  0.95211  1.0000
  H   H51       1.0  0.49975999999999987  0.27936  0.18306  1.0000
  H   H52       1.0  0.49948999999999993  0.41392  0.30661  1.0000
  H   H53       1.0  0.4999499999999999  0.25728  0.10076000000000002  1.0000
  H   H54       1.0  0.5000699999999998  0.2311  0.9994799999999999  1.0000
  H   H55       1.0  0.5003  0.45730999999999994  0.13024  1.0000
  H   H56       1.0  0.4999699999999999  0.43592  0.05363  1.0000
  C   C1        1.0  0.9999099999999999  0.51443  0.12413  1.0000
  C   C2        1.0  9.999999999999999e-05  0.53106  0.18206  1.0000
  C   C3        1.0  3.999999999999994e-05  0.20532  0.20082  1.0000
  C   C4        1.0  0.9999599999999998  0.41375  0.15151  1.0000
  C   C5        1.0  0.9999899999999999  0.30879  0.17528000000000002  1.0000
  C   C6        1.0  9.99999999999999e-06  0.28181  0.058989999999999994  1.0000
  C   C7        1.0  0.0  0.35375  0.135  1.0000
  C   C8        1.0  0.9999799999999999  0.23815  0.0992  1.0000
  C   C9        1.0  0.9999799999999999  0.25209  0.15764  1.0000
  C   C10       1.0  1.999999999999998e-05  0.43127  0.20961  1.0000
  C   C11       1.0  0.9999699999999999  0.26985  0.99643  1.0000
  C   C12       1.0  6.99999999999999e-05  0.48829  0.22449999999999998  1.0000
  C   C13       1.0  9.99999999999999e-06  0.33851  0.07672  1.0000
  C   C14       1.0  0.9999199999999999  0.45748  0.10930999999999999  1.0000
  C   C15       1.0  0.9998899999999998  0.48561000000000004  0.87609  1.0000
  C   C16       1.0  0.9998799999999999  0.46896000000000004  0.81816  1.0000
  C   C17       1.0  2.0000000000000042e-05  0.7946599999999999  0.79915  1.0000
  C   C18       1.0  0.9999699999999999  0.58631  0.84877  1.0000
  C   C19       1.0  1.9999999999999853e-05  0.69122  0.8248599999999999  1.0000
  C   C20       1.0  0.9999899999999999  0.71842  0.9410699999999999  1.0000
  C   C21       1.0  1.9999999999999853e-05  0.64632  0.8652  1.0000
  C   C22       1.0  0.9999999999999999  0.76204  0.90078  1.0000
  C   C23       1.0  1.0000000000000053e-05  0.74795  0.8423899999999999  1.0000
  C   C24       1.0  9.999999999999896e-06  0.56877  0.7906699999999999  1.0000
  C   C25       1.0  3.999999999999996e-05  0.7302600000000001  0.00365  1.0000
  C   C26       1.0  1.2641822140756932e-19  0.51176  0.77576  1.0000
  C   C27       1.0  0.0  0.6617  0.92344  1.0000
  C   C28       1.0  0.9999399999999999  0.54257  0.8909499999999999  1.0000
  C   C29       1.0  0.9998799999999999  0.87633  0.51487  1.0000
  C   C30       1.0  0.9998999999999999  0.8184  0.53131  1.0000
  C   C31       1.0  5.0000000000000016e-05  0.79824  0.2065  1.0000
  C   C32       1.0  0.9999699999999999  0.8491  0.41414999999999996  1.0000
  C   C33       1.0  9.99999999999999e-06  0.82508  0.30935  1.0000
  C   C34       1.0  0.9999799999999999  0.9410499999999999  0.28184  1.0000
  C   C35       1.0  0.0  0.8655  0.35416  1.0000
  C   C36       1.0  0.9999799999999999  0.90061  0.23823  1.0000
  C   C37       1.0  0.9999799999999999  0.84233  0.25254  1.0000
  C   C38       1.0  1.999999999999998e-05  0.79099  0.43142  1.0000
  C   C39       1.0  3.999999999999998e-05  0.0035899999999999994  0.2699  1.0000
  C   C40       1.0  0.0  0.77604  0.48839  1.0000
  C   C41       1.0  0.9999799999999999  0.92364  0.33865  1.0000
  C   C42       1.0  0.9999399999999999  0.89126  0.45795  1.0000
  C   C43       1.0  0.9999399999999999  0.12399  0.48536  1.0000
  C   C44       1.0  9.000000000000007e-05  0.18189999999999998  0.46885  1.0000
  C   C45       1.0  0.9999599999999998  0.20076  0.79466  1.0000
  C   C46       1.0  0.9999699999999999  0.15137  0.58612  1.0000
  C   C47       1.0  3.0000000000000018e-05  0.17516000000000004  0.69112  1.0000
  C   C48       1.0  9.999999999999997e-06  0.05897000000000001  0.71801  1.0000
  C   C49       1.0  1.9999999999999988e-05  0.13487  0.6461  1.0000
  C   C50       1.0  1.000000000000011e-05  0.09921  0.76173  1.0000
  C   C51       1.0  2.999999999999997e-05  0.15756  0.74781  1.0000
  C   C52       1.0  1.0000000000000021e-05  0.20945  0.56873  1.0000
  C   C53       1.0  9.99999999999999e-06  0.99647  0.73007  1.0000
  C   C54       1.0  6.999999999999998e-05  0.22432  0.51172  1.0000
  C   C55       1.0  9.999999999999962e-06  0.07663  0.6613  1.0000
  C   C56       1.0  0.9999299999999999  0.10918000000000001  0.54231  1.0000
  C   C57       1.0  0.50003  0.98535  0.62437  1.0000
  C   C58       1.0  0.4999899999999999  0.96892  0.68231  1.0000
  C   C59       1.0  0.4990499999999999  0.29464  0.7006899999999999  1.0000
  C   C60       1.0  0.50005  0.08613999999999998  0.65161  1.0000
  C   C61       1.0  0.49983999999999995  0.19116  0.67513  1.0000
  C   C62       1.0  0.50013  0.21787  0.55883  1.0000
  C   C63       1.0  0.50015  0.14608  0.63493  1.0000
  C   C64       1.0  0.4997299999999999  0.26164  0.59904  1.0000
  C   C65       1.0  0.4994699999999999  0.24783  0.65746  1.0000
  C   C66       1.0  0.4999899999999999  0.06881  0.7097399999999999  1.0000
  C   C67       1.0  0.50015  0.23001999999999997  0.49629999999999996  1.0000
  C   C68       1.0  0.50002  0.01182  0.7246800000000001  1.0000
  C   C69       1.0  0.50022  0.16118  0.5766  1.0000
  C   C70       1.0  0.4999999999999999  0.04226  0.6095  1.0000
  C   C71       1.0  0.50024  0.01475  0.37571  1.0000
  C   C72       1.0  0.5003899999999999  0.03118  0.31777  1.0000
  C   C73       1.0  0.4994499999999999  0.70541  0.29935  1.0000
  C   C74       1.0  0.49997999999999987  0.91395  0.34851999999999994  1.0000
  C   C75       1.0  0.4999399999999999  0.80894  0.32494  1.0000
  C   C76       1.0  0.50017  0.7821999999999999  0.44126  1.0000
  C   C77       1.0  0.50005  0.85401  0.36519  1.0000
  C   C78       1.0  0.4997399999999999  0.7384700000000001  0.40099999999999997  1.0000
  C   C79       1.0  0.49964999999999987  0.75226  0.34257  1.0000
  C   C80       1.0  0.4999399999999999  0.9312799999999999  0.29038  1.0000
  C   C81       1.0  0.50015  0.7699899999999998  0.50379  1.0000
  C   C82       1.0  0.5000799999999999  0.9882600000000001  0.27542  1.0000
  C   C83       1.0  0.50017  0.83889  0.42353  1.0000
  C   C84       1.0  0.4999899999999999  0.9578500000000001  0.39061000000000007  1.0000
  C   C85       1.0  0.5000699999999998  0.62385  0.01479  1.0000
  C   C86       1.0  0.50021  0.6818  0.03128  1.0000
  C   C87       1.0  0.49975999999999987  0.7014  0.7063699999999999  1.0000
  C   C88       1.0  0.4999899999999999  0.65103  0.91409  1.0000
  C   C89       1.0  0.4999699999999999  0.67494  0.80929  1.0000
  C   C90       1.0  0.5001599999999999  0.55892  0.78179  1.0000
  C   C91       1.0  0.5000699999999998  0.63459  0.8540899999999999  1.0000
  C   C92       1.0  0.4997299999999999  0.59925  0.73819  1.0000
  C   C93       1.0  0.4997099999999999  0.65756  0.7525  1.0000
  C   C94       1.0  0.4999299999999999  0.70915  0.9314500000000001  1.0000
  C   C95       1.0  0.5001599999999999  0.49639  0.76989  1.0000
  C   C96       1.0  0.4999599999999999  0.7241700000000001  0.98844  1.0000
  C   C97       1.0  0.50018  0.57644  0.83858  1.0000
  C   C98       1.0  0.4999499999999999  0.60889  0.95785  1.0000
  C   C99       1.0  0.50001  0.37609  0.98549  1.0000
  C   C100      1.0  0.4999  0.31817  0.9689399999999999  1.0000
  C   C101      1.0  0.4982199999999999  0.29929  0.29462  1.0000
  C   C102      1.0  0.5000799999999999  0.34890999999999994  0.08625  1.0000
  C   C103      1.0  0.49987  0.32501  0.19117000000000003  1.0000
  C   C104      1.0  0.5001599999999999  0.44119  0.21849  1.0000
  C   C105      1.0  0.50013  0.36535000000000006  0.1463  1.0000
  C   C106      1.0  0.4996799999999999  0.40090000000000003  0.26209  1.0000
  C   C107      1.0  0.4993499999999999  0.34253999999999996  0.24793999999999997  1.0000
  C   C108      1.0  0.50005  0.29083  0.06881  1.0000
  C   C109      1.0  0.50015  0.50373  0.23034  1.0000
  C   C110      1.0  0.5000699999999998  0.27584  0.0118  1.0000
  C   C111      1.0  0.5002  0.42355  0.16174  1.0000
  C   C112      1.0  0.5000599999999998  0.39104  0.04246  1.0000
  O   O1        1.0  0.8167099999999998  0.61469  0.23756  1.0000
  O   O2        1.0  0.81589  0.38523  0.76272  1.0000
  O   O3        1.0  0.8162899999999998  0.7627699999999998  0.61485  1.0000
  O   O4        1.0  0.81666  0.2374  0.38517999999999997  1.0000
  O   O5        1.0  0.6849899999999998  0.8854600000000001  0.7375399999999999  1.0000
  O   O6        1.0  0.68543  0.11452  0.26229  1.0000
  O   O7        1.0  0.68549  0.73737  0.11462999999999998  1.0000
  O   O8        1.0  0.68461  0.26288  0.88534  1.0000
  O   O9        1.0  0.18507999999999997  0.38544  0.76281  1.0000
  O   O10       1.0  0.18626999999999994  0.61458  0.23718999999999998  1.0000
  O   O11       1.0  0.18583999999999995  0.23707  0.3853599999999999  1.0000
  O   O12       1.0  0.18531  0.7630100000000001  0.61469  1.0000
  O   O13       1.0  0.31546999999999986  0.11462  0.26266  1.0000
  O   O14       1.0  0.31496999999999997  0.8854600000000001  0.7376099999999999  1.0000
  O   O15       1.0  0.31478  0.26253  0.88549  1.0000
  O   O16       1.0  0.31547999999999987  0.73698  0.11487  1.0000
  O   O17       1.0  0.0003200000000000001  0.63737  0.14452  1.0000
  O   O18       1.0  2.0000000000000012e-05  0.21722  0.2537  1.0000
  O   O19       1.0  0.00013  0.15387  0.18293  1.0000
  O   O20       1.0  0.9999699999999999  0.22016  0.977  1.0000
  O   O21       1.0  0.9999499999999999  0.31443  0.96388  1.0000
  O   O22       1.0  4.999999999999998e-05  0.36244  0.85565  1.0000
  O   O23       1.0  0.00010000000000000003  0.78277  0.74627  1.0000
  O   O24       1.0  0.9999899999999999  0.84611  0.81707  1.0000
  O   O25       1.0  6e-05  0.77992  0.02305  1.0000
  O   O26       1.0  7.999999999999998e-05  0.68564  0.03626  1.0000
  O   O27       1.0  9.000000000000003e-05  0.85592  0.6377  1.0000
  O   O28       1.0  8.999999999999998e-05  0.74581  0.21952999999999998  1.0000
  O   O29       1.0  0.00013999999999999993  0.8150500000000002  0.15456  1.0000
  O   O30       1.0  8.000000000000003e-05  0.02295  0.2202  1.0000
  O   O31       1.0  7.999999999999995e-05  0.03624  0.31449  1.0000
  O   O32       1.0  0.00033  0.1443  0.36238  1.0000
  O   O33       1.0  0.99987  0.25361  0.78279  1.0000
  O   O34       1.0  0.9999399999999999  0.18293  0.8460999999999999  1.0000
  O   O35       1.0  0.0  0.97718  0.7798  1.0000
  O   O36       1.0  0.0  0.96371  0.68557  1.0000
  O   O37       1.0  0.49927  0.8624600000000001  0.64489  1.0000
  O   O38       1.0  0.4955  0.28279  0.75356  1.0000
  O   O39       1.0  0.5029199999999999  0.34606999999999993  0.6828799999999999  1.0000
  O   O40       1.0  0.4955599999999999  0.27976  0.47714999999999996  1.0000
  O   O41       1.0  0.5045199999999999  0.18555  0.46344  1.0000
  O   O42       1.0  0.50345  0.13767  0.35516  1.0000
  O   O43       1.0  0.50282  0.7172499999999999  0.24648  1.0000
  O   O44       1.0  0.4963599999999999  0.65397  0.31715  1.0000
  O   O45       1.0  0.49547  0.72023  0.52287  1.0000
  O   O46       1.0  0.50456  0.8144200000000001  0.53671  1.0000
  O   O47       1.0  0.5035999999999999  0.64444  0.13773  1.0000
  O   O48       1.0  0.50399  0.75391  0.71925  1.0000
  O   O49       1.0  0.4959599999999999  0.6842599999999999  0.65452  1.0000
  O   O50       1.0  0.49549  0.47703000000000007  0.72019  1.0000
  O   O51       1.0  0.50448  0.46373  0.81444  1.0000
  O   O52       1.0  0.49676  0.35535  0.8623099999999999  1.0000
  O   O53       1.0  0.4981699999999999  0.24646999999999997  0.28257  1.0000
  O   O54       1.0  0.4972899999999999  0.317  0.34617  1.0000
  O   O55       1.0  0.4955599999999999  0.52306  0.28003  1.0000
  O   O56       1.0  0.5045499999999999  0.53636  0.18576  1.0000
