data_image0
_chemical_formula_structural       Cd8H104C140N24O32
_chemical_formula_sum              "Cd8 H104 C140 N24 O32"
_cell_length_a       15.56506
_cell_length_b       15.988119999999999
_cell_length_c       16.87645
_cell_angle_alpha    89.98632
_cell_angle_beta     89.96333
_cell_angle_gamma    117.86559000000001

_symmetry_space_group_name_H-M    'P 1'
_symmetry_Int_Tables_number       1

loop_
  _symmetry_equiv_pos_as_xyz
  'x,y,z'

loop_
  _atom_site_type_symbol
  _atom_site_label
  _atom_site_symmetry_multiplicity
  _atom_site_fract_x
  _atom_site_fract_y
  _atom_site_fract_z
  _atom_site_occupancy
  Cd  Cd1       1.0  0.16996000000000006  0.82264  0.72621  1.0000
  Cd  Cd2       1.0  0.8880700000000001  0.70519  0.69886  1.0000
  Cd  Cd3       1.0  0.33  0.17706999999999998  0.22624  1.0000
  Cd  Cd4       1.0  0.6126200000000003  0.29516999999999993  0.19916000000000006  1.0000
  Cd  Cd5       1.0  0.8300300000000003  0.17736  0.2737900000000001  1.0000
  Cd  Cd6       1.0  0.11193  0.29481999999999997  0.30114  1.0000
  Cd  Cd7       1.0  0.6699999999999999  0.8229299999999998  0.77375  1.0000
  Cd  Cd8       1.0  0.38737999999999995  0.7048299999999997  0.8008400000000002  1.0000
  H   H1        1.0  0.93346  0.21990999999999997  0.08332  1.0000
  H   H2        1.0  0.06259999999999998  0.2837399999999999  0.08739  1.0000
  H   H3        1.0  0.8514100000000001  0.2955699999999999  0.02023  1.0000
  H   H4        1.0  0.8531800000000003  0.42162  0.93566  1.0000
  H   H5        1.0  0.14504  0.4896199999999999  0.85786  1.0000
  H   H6        1.0  0.14395999999999995  0.36925999999999987  0.9493500000000001  1.0000
  H   H7        1.0  0.8569  0.11574  0.961  1.0000
  H   H8        1.0  0.8663600000000002  0.9998899999999998  0.86932  1.0000
  H   H9        1.0  0.16595000000000004  0.09706999999999998  0.93858  1.0000
  H   H10       1.0  0.15771000000000004  0.21915  0.02295  1.0000
  H   H11       1.0  0.15984999999999994  0.63602  0.84641  1.0000
  H   H12       1.0  0.8553300000000003  0.4981599999999999  0.80821  1.0000
  H   H13       1.0  0.8679600000000002  0.8698499999999999  0.83359  1.0000
  H   H14       1.0  0.17581  0.021059999999999992  0.82752  1.0000
  H   H15       1.0  0.21357000000000004  0.99736  0.48757  1.0000
  H   H16       1.0  0.0032799999999999136  0.9798299999999998  0.31467  1.0000
  H   H17       1.0  0.9117300000000002  0.7953799999999998  0.51712  1.0000
  H   H18       1.0  0.7914300000000002  0.78775  0.42604  1.0000
  H   H19       1.0  0.8312500000000003  0.82047  0.32682000000000005  1.0000
  H   H20       1.0  0.81684  0.9017  0.38976  1.0000
  H   H21       1.0  0.23220000000000005  0.50258  0.6011700000000002  1.0000
  H   H22       1.0  0.09618000000000004  0.5207  0.38599  1.0000
  H   H23       1.0  0.13993  0.71652  0.57569  1.0000
  H   H24       1.0  0.02820000000000001  0.62894  0.37393  1.0000
  H   H25       1.0  0.11220999999999992  0.7413799999999998  0.41195  1.0000
  H   H26       1.0  0.0025499999999999646  0.67225  0.46281  1.0000
  H   H27       1.0  0.5665200000000002  0.7799999999999998  0.58328  1.0000
  H   H28       1.0  0.4374  0.7162299999999998  0.58745  1.0000
  H   H29       1.0  0.6485299999999999  0.7042499999999998  0.52015  1.0000
  H   H30       1.0  0.6468600000000002  0.57836  0.4355000000000001  1.0000
  H   H31       1.0  0.3550699999999999  0.5104499999999997  0.35798  1.0000
  H   H32       1.0  0.3561200000000001  0.6308  0.4494  1.0000
  H   H33       1.0  0.6432199999999999  0.8843299999999997  0.4609000000000001  1.0000
  H   H34       1.0  0.6338800000000002  0.00013000000000000002  0.36917  1.0000
  H   H35       1.0  0.33413  0.90287  0.4385900000000001  1.0000
  H   H36       1.0  0.34234  0.7808199999999997  0.52304  1.0000
  H   H37       1.0  0.3402  0.36408  0.34598  1.0000
  H   H38       1.0  0.6449400000000002  0.5018499999999999  0.3083600000000001  1.0000
  H   H39       1.0  0.63223  0.13003999999999993  0.33333  1.0000
  H   H40       1.0  0.32439  0.9790999999999997  0.32761  1.0000
  H   H41       1.0  0.2866700000000001  0.00301  0.9881600000000001  1.0000
  H   H42       1.0  0.4959500000000001  0.019819999999999994  0.81444  1.0000
  H   H43       1.0  0.58877  0.2042  0.01687  1.0000
  H   H44       1.0  0.7083000000000003  0.21188999999999997  0.9257100000000003  1.0000
  H   H45       1.0  0.6688500000000002  0.17934999999999995  0.8264400000000001  1.0000
  H   H46       1.0  0.68318  0.09805999999999997  0.8894200000000002  1.0000
  H   H47       1.0  0.26719000000000004  0.49716999999999995  0.10115  1.0000
  H   H48       1.0  0.40393999999999997  0.4791199999999999  0.88618  1.0000
  H   H49       1.0  0.35965000000000014  0.28327  0.07601  1.0000
  H   H50       1.0  0.4718700000000001  0.3710099999999999  0.87419  1.0000
  H   H51       1.0  0.38780999999999993  0.2585899999999999  0.9123000000000002  1.0000
  H   H52       1.0  0.4974100000000001  0.32761  0.9630100000000001  1.0000
  H   H53       1.0  0.06653999999999999  0.78009  0.91667  1.0000
  H   H54       1.0  0.9373900000000002  0.7162599999999999  0.9126100000000003  1.0000
  H   H55       1.0  0.14859000000000006  0.70443  0.97977  1.0000
  H   H56       1.0  0.1468199999999999  0.5783899999999997  0.06433  1.0000
  H   H57       1.0  0.8549600000000003  0.51038  0.14213  1.0000
  H   H58       1.0  0.8560400000000001  0.6307399999999997  0.05065  1.0000
  H   H59       1.0  0.1431  0.88426  0.03900000000000001  1.0000
  H   H60       1.0  0.13364  0.00011000000000000002  0.13068  1.0000
  H   H61       1.0  0.8340500000000002  0.90293  0.06142000000000001  1.0000
  H   H62       1.0  0.84229  0.7808499999999998  0.97705  1.0000
  H   H63       1.0  0.84015  0.36398999999999987  0.15359  1.0000
  H   H64       1.0  0.14467  0.5018499999999999  0.19179000000000004  1.0000
  H   H65       1.0  0.13204  0.13015  0.16641000000000006  1.0000
  H   H66       1.0  0.8241900000000001  0.9789399999999998  0.17248  1.0000
  H   H67       1.0  0.78643  0.002639999999999999  0.51242  1.0000
  H   H68       1.0  0.9967200000000003  0.02017  0.68533  1.0000
  H   H69       1.0  0.08827  0.20461999999999994  0.48287  1.0000
  H   H70       1.0  0.20856999999999998  0.21224999999999994  0.57396  1.0000
  H   H71       1.0  0.16875  0.17953  0.67317  1.0000
  H   H72       1.0  0.18316  0.09829999999999997  0.61024  1.0000
  H   H73       1.0  0.7678  0.49741999999999986  0.39883000000000013  1.0000
  H   H74       1.0  0.9038200000000002  0.4793099999999999  0.61401  1.0000
  H   H75       1.0  0.8600700000000002  0.28348999999999996  0.4243  1.0000
  H   H76       1.0  0.9718000000000001  0.3710699999999999  0.62607  1.0000
  H   H77       1.0  0.8877900000000002  0.25863  0.58805  1.0000
  H   H78       1.0  0.9974500000000004  0.32775  0.53719  1.0000
  H   H79       1.0  0.43348  0.22  0.41672  1.0000
  H   H80       1.0  0.5626000000000002  0.28378  0.41255  1.0000
  H   H81       1.0  0.3514700000000001  0.29575  0.47985000000000005  1.0000
  H   H82       1.0  0.3531400000000001  0.42164  0.56449  1.0000
  H   H83       1.0  0.6449300000000002  0.48955999999999994  0.64201  1.0000
  H   H84       1.0  0.64388  0.36919999999999986  0.5506  1.0000
  H   H85       1.0  0.3567800000000001  0.11566999999999997  0.5391000000000001  1.0000
  H   H86       1.0  0.36612000000000006  0.9998699999999999  0.63083  1.0000
  H   H87       1.0  0.6658699999999999  0.09712999999999997  0.56141  1.0000
  H   H88       1.0  0.65766  0.21919  0.47695000000000004  1.0000
  H   H89       1.0  0.6598  0.6359299999999999  0.65402  1.0000
  H   H90       1.0  0.3550600000000001  0.49815  0.69164  1.0000
  H   H91       1.0  0.36777000000000004  0.8699599999999998  0.66666  1.0000
  H   H92       1.0  0.6756  0.0209  0.67239  1.0000
  H   H93       1.0  0.7133300000000002  0.99699  0.01184  1.0000
  H   H94       1.0  0.50405  0.98018  0.18556000000000006  1.0000
  H   H95       1.0  0.41123  0.7958099999999998  0.98313  1.0000
  H   H96       1.0  0.29170000000000007  0.7881099999999998  0.07429  1.0000
  H   H97       1.0  0.33115  0.8206499999999998  0.17355  1.0000
  H   H98       1.0  0.31682  0.9019399999999997  0.11057  1.0000
  H   H99       1.0  0.73281  0.5028399999999998  0.8988400000000002  1.0000
  H   H100      1.0  0.5960600000000003  0.52088  0.11382  1.0000
  H   H101      1.0  0.6403500000000002  0.71673  0.9239900000000002  1.0000
  H   H102      1.0  0.52813  0.62899  0.12581  1.0000
  H   H103      1.0  0.61219  0.74141  0.08769  1.0000
  H   H104      1.0  0.50259  0.6723899999999998  0.03698  1.0000
  C   C1        1.0  0.9999300000000001  0.25111  0.047310000000000005  1.0000
  C   C2        1.0  0.9985900000000002  0.32581  0.99279  1.0000
  C   C3        1.0  0.9162800000000002  0.3393099999999999  0.9857100000000001  1.0000
  C   C4        1.0  0.9165100000000002  0.40946  0.93605  1.0000
  C   C5        1.0  0.9995999999999999  0.46359999999999996  0.8910900000000003  1.0000
  C   C6        1.0  0.08115999999999994  0.4486099999999999  0.89431  1.0000
  C   C7        1.0  0.08030999999999998  0.3804799999999999  0.9459300000000003  1.0000
  C   C8        1.0  0.006329999999999968  0.17519999999999994  0.9983300000000002  1.0000
  C   C9        1.0  0.9246400000000002  0.11182999999999998  0.9553400000000001  1.0000
  C   C10       1.0  0.92954  0.045919999999999996  0.9043  1.0000
  C   C11       1.0  0.01695  0.04142  0.8981100000000002  1.0000
  C   C12       1.0  0.09886000000000002  0.10242  0.94138  1.0000
  C   C13       1.0  0.09335  0.17012999999999995  0.99041  1.0000
  C   C14       1.0  0.08838999999999994  0.6206099999999999  0.82523  1.0000
  C   C15       1.0  0.9315100000000002  0.5493899999999998  0.80638  1.0000
  C   C16       1.0  0.9430400000000002  0.89207  0.81945  1.0000
  C   C17       1.0  0.1013  0.96895  0.8167300000000002  1.0000
  C   C18       1.0  0.06526999999999987  0.8928499999999998  0.51031  1.0000
  C   C19       1.0  0.13888999999999999  0.9661399999999999  0.46684  1.0000
  C   C20       1.0  0.11646000000000001  0.9966499999999998  0.3957900000000001  1.0000
  C   C21       1.0  0.01962999999999988  0.9558799999999997  0.3702600000000001  1.0000
  C   C22       1.0  0.9443500000000001  0.8859899999999998  0.41487  1.0000
  C   C23       1.0  0.9685200000000002  0.8535799999999998  0.48425000000000007  1.0000
  C   C24       1.0  0.09099000000000003  0.85568  0.5828300000000001  1.0000
  C   C25       1.0  0.19585000000000005  0.06993999999999999  0.3459700000000001  1.0000
  C   C26       1.0  0.84022  0.84653  0.38809  1.0000
  C   C27       1.0  0.19147000000000008  0.61447  0.59669  1.0000
  C   C28       1.0  0.19888000000000006  0.5365099999999999  0.56608  1.0000
  C   C29       1.0  0.16617999999999997  0.5038  0.48978  1.0000
  C   C30       1.0  0.12172999999999994  0.5472399999999997  0.4453100000000001  1.0000
  C   C31       1.0  0.10973000000000001  0.62273  0.47579999999999995  1.0000
  C   C32       1.0  0.14653000000000005  0.65667  0.55159  1.0000
  C   C33       1.0  0.23853000000000008  0.6539  0.6745100000000003  1.0000
  C   C34       1.0  0.18164000000000005  0.42417  0.45578  1.0000
  C   C35       1.0  0.060579999999999995  0.6683299999999999  0.42848000000000014  1.0000
  C   C36       1.0  0.5000900000000003  0.74885  0.5472900000000003  1.0000
  C   C37       1.0  0.5014300000000003  0.67416  0.4927599999999999  1.0000
  C   C38       1.0  0.5837100000000001  0.6606099999999999  0.48563  1.0000
  C   C39       1.0  0.5835299999999999  0.5905099999999998  0.43596  1.0000
  C   C40       1.0  0.5004900000000002  0.53641  0.3910400000000001  1.0000
  C   C41       1.0  0.4189500000000001  0.55145  0.39434000000000013  1.0000
  C   C42       1.0  0.41976  0.6195599999999998  0.4459500000000001  1.0000
  C   C43       1.0  0.49373999999999996  0.8248099999999998  0.49832999999999994  1.0000
  C   C44       1.0  0.57546  0.8882099999999998  0.45528  1.0000
  C   C45       1.0  0.5706100000000002  0.95411  0.40417  1.0000
  C   C46       1.0  0.48319  0.9585899999999998  0.39801  1.0000
  C   C47       1.0  0.40124999999999994  0.8975699999999999  0.4413700000000001  1.0000
  C   C48       1.0  0.40672  0.8298599999999998  0.49044000000000004  1.0000
  C   C49       1.0  0.41179000000000004  0.37946999999999986  0.32503  1.0000
  C   C50       1.0  0.56875  0.4506599999999999  0.30646  1.0000
  C   C51       1.0  0.55718  0.10794999999999998  0.31929000000000013  1.0000
  C   C52       1.0  0.3989200000000001  0.031209999999999995  0.31679  1.0000
  C   C53       1.0  0.4350900000000001  0.10752  0.010370000000000004  1.0000
  C   C54       1.0  0.3613  0.03422  0.96727  1.0000
  C   C55       1.0  0.3833300000000001  0.003329999999999999  0.89629  1.0000
  C   C56       1.0  0.4799700000000001  0.043909999999999984  0.87015  1.0000
  C   C57       1.0  0.55553  0.11373  0.91453  1.0000
  C   C58       1.0  0.53171  0.1463  0.98402  1.0000
  C   C59       1.0  0.40955000000000014  0.14481999999999995  0.08286  1.0000
  C   C60       1.0  0.303  0.9295599999999998  0.84772  1.0000
  C   C61       1.0  0.6597  0.15315999999999994  0.88769  1.0000
  C   C62       1.0  0.3081000000000001  0.3852199999999999  0.09682  1.0000
  C   C63       1.0  0.30064  0.4631899999999999  0.06627  1.0000
  C   C64       1.0  0.3334400000000001  0.49602  0.9899799999999999  1.0000
  C   C65       1.0  0.37818000000000007  0.45271999999999996  0.94555  1.0000
  C   C66       1.0  0.39024  0.3772599999999999  0.9760500000000001  1.0000
  C   C67       1.0  0.35324  0.3431899999999999  0.05179  1.0000
  C   C68       1.0  0.26107  0.34525  0.17453000000000005  1.0000
  C   C69       1.0  0.31791999999999987  0.5756599999999997  0.95597  1.0000
  C   C70       1.0  0.4394199999999999  0.3316399999999999  0.92877  1.0000
  C   C71       1.0  6.999999999988646e-05  0.7488899999999997  0.95269  1.0000
  C   C72       1.0  0.0014099999999998977  0.6741899999999997  0.00721  1.0000
  C   C73       1.0  0.08371999999999993  0.6606899999999998  0.014280000000000003  1.0000
  C   C74       1.0  0.08349000000000005  0.59054  0.06394000000000002  1.0000
  C   C75       1.0  0.0004000000000000034  0.53641  0.10891  1.0000
  C   C76       1.0  0.9188400000000004  0.5514  0.10569  1.0000
  C   C77       1.0  0.9196900000000002  0.61953  0.05407  1.0000
  C   C78       1.0  0.9936700000000002  0.8247999999999998  0.0016600000000000005  1.0000
  C   C79       1.0  0.0753599999999999  0.8881699999999998  0.044650000000000016  1.0000
  C   C80       1.0  0.07045999999999997  0.9540899999999998  0.0957  1.0000
  C   C81       1.0  0.9830500000000001  0.9585899999999998  0.10189  1.0000
  C   C82       1.0  0.90114  0.8975799999999998  0.05861  1.0000
  C   C83       1.0  0.90665  0.82988  0.00959  1.0000
  C   C84       1.0  0.9116100000000003  0.3794  0.17476  1.0000
  C   C85       1.0  0.06849000000000001  0.4506199999999999  0.19362  1.0000
  C   C86       1.0  0.05696000000000001  0.10793999999999998  0.18054  1.0000
  C   C87       1.0  0.8987000000000002  0.031049999999999994  0.18326  1.0000
  C   C88       1.0  0.93473  0.10716  0.48968  1.0000
  C   C89       1.0  0.8611100000000002  0.03386  0.53316  1.0000
  C   C90       1.0  0.88354  0.00335  0.60421  1.0000
  C   C91       1.0  0.9803700000000002  0.04412  0.6297400000000002  1.0000
  C   C92       1.0  0.05565  0.11401999999999997  0.58512  1.0000
  C   C93       1.0  0.031480000000000015  0.14642  0.51575  1.0000
  C   C94       1.0  0.9090100000000001  0.14432  0.41716000000000003  1.0000
  C   C95       1.0  0.8041500000000003  0.93007  0.65402  1.0000
  C   C96       1.0  0.15978000000000006  0.15347  0.61191  1.0000
  C   C97       1.0  0.8085300000000002  0.38552999999999993  0.4033  1.0000
  C   C98       1.0  0.8011200000000004  0.46349  0.4339200000000001  1.0000
  C   C99       1.0  0.8338100000000003  0.49619999999999986  0.51021  1.0000
  C   C100      1.0  0.8782700000000002  0.4527599999999999  0.55468  1.0000
  C   C101      1.0  0.8902700000000002  0.3772699999999999  0.52419  1.0000
  C   C102      1.0  0.85347  0.34334  0.44841  1.0000
  C   C103      1.0  0.76147  0.3461  0.32549  1.0000
  C   C104      1.0  0.8183600000000001  0.5758299999999997  0.54422  1.0000
  C   C105      1.0  0.9394200000000004  0.33168  0.57152  1.0000
  C   C106      1.0  0.4999000000000001  0.25116  0.4527  1.0000
  C   C107      1.0  0.49856999999999996  0.3258399999999999  0.50723  1.0000
  C   C108      1.0  0.4162800000000001  0.33939  0.51436  1.0000
  C   C109      1.0  0.41647  0.40949  0.5640400000000002  1.0000
  C   C110      1.0  0.4995100000000001  0.46359  0.60896  1.0000
  C   C111      1.0  0.58105  0.44856  0.60566  1.0000
  C   C112      1.0  0.58024  0.38044  0.5540500000000002  1.0000
  C   C113      1.0  0.50626  0.17519999999999994  0.5016600000000001  1.0000
  C   C114      1.0  0.4245400000000001  0.11178999999999999  0.54472  1.0000
  C   C115      1.0  0.4293900000000001  0.045899999999999996  0.59583  1.0000
  C   C116      1.0  0.51681  0.04142  0.6019800000000001  1.0000
  C   C117      1.0  0.59875  0.10242999999999997  0.55862  1.0000
  C   C118      1.0  0.5932800000000003  0.17013999999999999  0.50956  1.0000
  C   C119      1.0  0.58821  0.62053  0.67497  1.0000
  C   C120      1.0  0.43124000000000023  0.54934  0.6935300000000002  1.0000
  C   C121      1.0  0.44282  0.8920499999999998  0.68071  1.0000
  C   C122      1.0  0.6010800000000002  0.96879  0.68321  1.0000
  C   C123      1.0  0.56491  0.8924799999999998  0.98963  1.0000
  C   C124      1.0  0.6387000000000003  0.9657799999999997  0.03272  1.0000
  C   C125      1.0  0.61667  0.99667  0.1037  1.0000
  C   C126      1.0  0.52003  0.9560999999999997  0.12985000000000005  1.0000
  C   C127      1.0  0.4444700000000001  0.88627  0.08546  1.0000
  C   C128      1.0  0.4682899999999999  0.8536999999999998  0.01597  1.0000
  C   C129      1.0  0.5904499999999999  0.8551799999999998  0.91714  1.0000
  C   C130      1.0  0.6970000000000002  0.07044  0.15227  1.0000
  C   C131      1.0  0.34029999999999994  0.8468399999999998  0.1123  1.0000
  C   C132      1.0  0.6919  0.61479  0.9031700000000003  1.0000
  C   C133      1.0  0.69936  0.5368099999999998  0.9337200000000002  1.0000
  C   C134      1.0  0.6665600000000003  0.50399  0.01001  1.0000
  C   C135      1.0  0.6218200000000003  0.54728  0.05445  1.0000
  C   C136      1.0  0.6097599999999999  0.6227399999999998  0.023950000000000006  1.0000
  C   C137      1.0  0.64675  0.65682  0.9482000000000002  1.0000
  C   C138      1.0  0.7389300000000002  0.65475  0.82546  1.0000
  C   C139      1.0  0.68208  0.4243399999999999  0.04402  1.0000
  C   C140      1.0  0.5605800000000002  0.66836  0.07123  1.0000
  N   N1        1.0  0.06662999999999988  0.6760999999999998  0.78085  1.0000
  N   N2        1.0  0.9681600000000001  0.63154  0.76902  1.0000
  N   N3        1.0  0.005129999999999986  0.53939  0.84237  1.0000
  N   N4        1.0  0.9738200000000002  0.84436  0.77382  1.0000
  N   N5        1.0  0.07383999999999988  0.8928499999999998  0.77245  1.0000
  N   N6        1.0  0.020920000000000005  0.97172  0.8472300000000003  1.0000
  N   N7        1.0  0.43372  0.32399  0.28078  1.0000
  N   N8        1.0  0.5322400000000002  0.36853999999999987  0.26915  1.0000
  N   N9        1.0  0.49500000000000016  0.46067  0.3422900000000001  1.0000
  N   N10       1.0  0.5264700000000001  0.15582999999999997  0.27382  1.0000
  N   N11       1.0  0.4264600000000001  0.10740999999999998  0.2725500000000001  1.0000
  N   N12       1.0  0.4792500000000001  0.028299999999999995  0.3471300000000001  1.0000
  N   N13       1.0  0.9333700000000001  0.3238999999999999  0.21915  1.0000
  N   N14       1.0  0.031839999999999986  0.36847  0.23097  1.0000
  N   N15       1.0  0.9948700000000004  0.46062  0.15763000000000005  1.0000
  N   N16       1.0  0.02618  0.15564  0.22617000000000007  1.0000
  N   N17       1.0  0.9261600000000001  0.10714999999999997  0.22754000000000005  1.0000
  N   N18       1.0  0.9790800000000002  0.028279999999999996  0.15276  1.0000
  N   N19       1.0  0.56628  0.6760099999999998  0.71921  1.0000
  N   N20       1.0  0.46776000000000006  0.6314599999999999  0.73085  1.0000
  N   N21       1.0  0.50499  0.5393299999999999  0.6577100000000001  1.0000
  N   N22       1.0  0.47353  0.8441699999999998  0.72618  1.0000
  N   N23       1.0  0.5735400000000003  0.8925899999999998  0.7274500000000002  1.0000
  N   N24       1.0  0.5207499999999999  0.9716999999999998  0.65287  1.0000
  O   O1        1.0  0.02590999999999999  0.78318  0.61903  1.0000
  O   O2        1.0  0.17962  0.8959799999999998  0.60609  1.0000
  O   O3        1.0  0.2685900000000001  0.13725  0.37809  1.0000
  O   O4        1.0  0.1861  0.05799999999999999  0.2699800000000001  1.0000
  O   O5        1.0  0.2542000000000001  0.7363  0.69756  1.0000
  O   O6        1.0  0.26778999999999986  0.6046599999999998  0.7149000000000002  1.0000
  O   O7        1.0  0.20310000000000003  0.37424999999999997  0.50016  1.0000
  O   O8        1.0  0.17319  0.4174299999999999  0.37915  1.0000
  O   O9        1.0  0.4749100000000001  0.21696999999999997  0.11906  1.0000
  O   O10       1.0  0.3207900000000001  0.10474  0.10603  1.0000
  O   O11       1.0  0.23082999999999995  0.8629099999999997  0.88098  1.0000
  O   O12       1.0  0.31181  0.94107  0.77153  1.0000
  O   O13       1.0  0.24657  0.26325  0.19757  1.0000
  O   O14       1.0  0.23088  0.3937299999999999  0.21492  1.0000
  O   O15       1.0  0.29527  0.62511  0.99992  1.0000
  O   O16       1.0  0.3278299999999999  0.5827399999999998  0.87946  1.0000
  O   O17       1.0  0.9740900000000002  0.21682  0.3809700000000001  1.0000
  O   O18       1.0  0.8203800000000002  0.10401999999999997  0.3939100000000001  1.0000
  O   O19       1.0  0.73141  0.8627499999999998  0.6219100000000002  1.0000
  O   O20       1.0  0.8139000000000001  0.9419999999999997  0.73002  1.0000
  O   O21       1.0  0.7458000000000002  0.2637  0.30243  1.0000
  O   O22       1.0  0.7322100000000002  0.39534  0.28509  1.0000
  O   O23       1.0  0.7969  0.62575  0.49982999999999994  1.0000
  O   O24       1.0  0.8268100000000002  0.5825699999999999  0.6208400000000002  1.0000
  O   O25       1.0  0.5250899999999998  0.7830299999999998  0.88093  1.0000
  O   O26       1.0  0.67921  0.8952599999999997  0.89397  1.0000
  O   O27       1.0  0.7691700000000002  0.13709  0.11901000000000002  1.0000
  O   O28       1.0  0.68819  0.05893  0.22847  1.0000
  O   O29       1.0  0.7534299999999999  0.7367499999999998  0.8024300000000002  1.0000
  O   O30       1.0  0.7691200000000002  0.60628  0.78507  1.0000
  O   O31       1.0  0.70473  0.3748999999999999  8.000000000000003e-05  1.0000
  O   O32       1.0  0.6721699999999999  0.41725999999999996  0.12053000000000001  1.0000
