data_image0
_chemical_formula_structural       Zn8H84C132N32O24
_chemical_formula_sum              "Zn8 H84 C132 N32 O24"
_cell_length_a       13.95602
_cell_length_b       15.8531
_cell_length_c       18.60106
_cell_angle_alpha    90.35592
_cell_angle_beta     89.99192999999998
_cell_angle_gamma    90.04589999999999

_symmetry_space_group_name_H-M    'P 1'
_symmetry_Int_Tables_number       1

loop_
  _symmetry_equiv_pos_as_xyz
  'x,y,z'

loop_
  _atom_site_type_symbol
  _atom_site_label
  _atom_site_symmetry_multiplicity
  _atom_site_fract_x
  _atom_site_fract_y
  _atom_site_fract_z
  _atom_site_occupancy
  Zn  Zn1       1.0  0.24994000000000002  0.66822  0.35698999999999986  1.0000
  Zn  Zn2       1.0  0.24995000000000006  0.70656  0.8566899999999997  1.0000
  Zn  Zn3       1.0  0.24997000000000005  0.16772  0.14375  1.0000
  Zn  Zn4       1.0  0.24984000000000006  0.2098  0.64234  1.0000
  Zn  Zn5       1.0  0.7499700000000002  0.83228  0.85626  1.0000
  Zn  Zn6       1.0  0.74986  0.79006  0.3577  1.0000
  Zn  Zn7       1.0  0.7499000000000002  0.33175  0.6430199999999999  1.0000
  Zn  Zn8       1.0  0.75001  0.29342  0.14331  1.0000
  H   H1        1.0  0.6792000000000002  0.63081  0.49544999999999995  1.0000
  H   H2        1.0  0.4148  0.65806  0.6109399999999998  1.0000
  H   H3        1.0  0.68277  0.6910400000000002  0.7231  1.0000
  H   H4        1.0  0.37356  0.7179  0.49499999999999994  1.0000
  H   H5        1.0  0.4213500000000001  0.53022  0.33736  1.0000
  H   H6        1.0  0.5723400000000001  0.5266  0.43588999999999994  1.0000
  H   H7        1.0  0.35573000000000005  0.7291600000000003  0.6989399999999998  1.0000
  H   H8        1.0  0.4563100000000001  0.7071100000000002  0.9125  1.0000
  H   H9        1.0  0.6065100000000002  0.6752  0.81964  1.0000
  H   H10       1.0  0.8208900000000002  0.13176000000000004  0.00455  1.0000
  H   H11       1.0  0.08508000000000002  0.15829000000000004  0.88877  1.0000
  H   H12       1.0  0.81689  0.19259  0.77765  1.0000
  H   H13       1.0  0.1285  0.21609  0.00516  1.0000
  H   H14       1.0  0.07686  0.02987  0.16144  1.0000
  H   H15       1.0  0.9258600000000002  0.028030000000000006  0.06288  1.0000
  H   H16       1.0  0.14428  0.2308  0.80126  1.0000
  H   H17       1.0  0.042630000000000015  0.20734  0.58785  1.0000
  H   H18       1.0  0.8931200000000002  0.17478  0.68098  1.0000
  H   H19       1.0  0.67923  0.13122  0.004679999999999999  1.0000
  H   H20       1.0  0.41461  0.15705000000000005  0.88946  1.0000
  H   H21       1.0  0.68232  0.19182000000000005  0.77773  1.0000
  H   H22       1.0  0.3720900000000001  0.21567  0.0055  1.0000
  H   H23       1.0  0.4225600000000001  0.029610000000000008  0.16207999999999997  1.0000
  H   H24       1.0  0.57356  0.027060000000000008  0.06361  1.0000
  H   H25       1.0  0.35493000000000013  0.22907  0.8019299999999998  1.0000
  H   H26       1.0  0.45668  0.20769  0.5883999999999998  1.0000
  H   H27       1.0  0.60626  0.17477  0.68127  1.0000
  H   H28       1.0  0.8205300000000002  0.63155  0.49527999999999994  1.0000
  H   H29       1.0  0.08482  0.65756  0.61114  1.0000
  H   H30       1.0  0.8167900000000002  0.68996  0.72326  1.0000
  H   H31       1.0  0.12687  0.71734  0.49524  1.0000
  H   H32       1.0  0.07879  0.52909  0.33805999999999997  1.0000
  H   H33       1.0  0.9271700000000003  0.52657  0.43607999999999997  1.0000
  H   H34       1.0  0.14404  0.7278500000000002  0.69914  1.0000
  H   H35       1.0  0.04323000000000001  0.70644  0.9127  1.0000
  H   H36       1.0  0.8928300000000002  0.6749300000000003  0.81976  1.0000
  H   H37       1.0  0.25048  0.95648  0.52965  1.0000
  H   H38       1.0  0.2514300000000001  0.17618  0.39354  1.0000
  H   H39       1.0  0.24941000000000005  0.9282  0.29933  1.0000
  H   H40       1.0  0.25083000000000005  0.45428  0.96916  1.0000
  H   H41       1.0  0.24860000000000004  0.6760700000000002  0.10480999999999997  1.0000
  H   H42       1.0  0.24960000000000002  0.42957  0.19952  1.0000
  H   H43       1.0  0.32068  0.86809  0.9953699999999999  1.0000
  H   H44       1.0  0.58491  0.84209  0.11104999999999998  1.0000
  H   H45       1.0  0.31677  0.80781  0.2224  1.0000
  H   H46       1.0  0.62815  0.78391  0.9947999999999999  1.0000
  H   H47       1.0  0.57713  0.97011  0.8384599999999998  1.0000
  H   H48       1.0  0.4260000000000001  0.9720100000000003  0.93693  1.0000
  H   H49       1.0  0.6442300000000001  0.77024  0.19852999999999998  1.0000
  H   H50       1.0  0.54275  0.79294  0.41203  1.0000
  H   H51       1.0  0.39304  0.8252700000000002  0.31903  1.0000
  H   H52       1.0  0.17936000000000005  0.36883  0.5046499999999999  1.0000
  H   H53       1.0  0.91493  0.34187  0.3891299999999999  1.0000
  H   H54       1.0  0.18287000000000006  0.30898  0.27692  1.0000
  H   H55       1.0  0.8735300000000003  0.28199000000000013  0.50508  1.0000
  H   H56       1.0  0.9214200000000002  0.4699700000000001  0.6624899999999998  1.0000
  H   H57       1.0  0.07258000000000003  0.47339  0.56404  1.0000
  H   H58       1.0  0.8556800000000001  0.2708700000000001  0.3011  1.0000
  H   H59       1.0  0.9564300000000002  0.29289  0.08755  1.0000
  H   H60       1.0  0.10666  0.32467  0.1804  1.0000
  H   H61       1.0  0.3206900000000001  0.36876  0.50464  1.0000
  H   H62       1.0  0.58495  0.3425  0.3888  1.0000
  H   H63       1.0  0.3168800000000001  0.31004  0.27673  1.0000
  H   H64       1.0  0.6268300000000002  0.28273  0.5046799999999999  1.0000
  H   H65       1.0  0.5788800000000001  0.4706900000000001  0.66208  1.0000
  H   H66       1.0  0.4274300000000001  0.47343  0.56398  1.0000
  H   H67       1.0  0.6439800000000002  0.2720900000000001  0.30083  1.0000
  H   H68       1.0  0.54335  0.29356  0.08726  1.0000
  H   H69       1.0  0.3929900000000001  0.32525  0.18019  1.0000
  H   H70       1.0  0.17901000000000006  0.86892  0.99543  1.0000
  H   H71       1.0  0.9144400000000001  0.8425500000000002  0.11076999999999998  1.0000
  H   H72       1.0  0.18219000000000005  0.80776  0.22227  1.0000
  H   H73       1.0  0.8717100000000002  0.78434  0.9945699999999998  1.0000
  H   H74       1.0  0.92287  0.97042  0.83805  1.0000
  H   H75       1.0  0.07371  0.9729  0.93663  1.0000
  H   H76       1.0  0.85499  0.76973  0.19826999999999997  1.0000
  H   H77       1.0  0.9567700000000002  0.79192  0.4117299999999999  1.0000
  H   H78       1.0  0.10617000000000003  0.8252200000000002  0.31877  1.0000
  H   H79       1.0  0.7508200000000003  0.5457  0.03085  1.0000
  H   H80       1.0  0.7485300000000001  0.3239100000000001  0.89519  1.0000
  H   H81       1.0  0.74952  0.57043  0.80049  1.0000
  H   H82       1.0  0.7510900000000003  0.04338  0.47030999999999995  1.0000
  H   H83       1.0  0.75021  0.82375  0.6065099999999999  1.0000
  H   H84       1.0  0.7492300000000002  0.07182  0.70061  1.0000
  C   C1        1.0  0.69769  0.65665  0.61057  1.0000
  C   C2        1.0  0.64369  0.6415800000000003  0.5465299999999998  1.0000
  C   C3        1.0  0.54445  0.64482  0.54806  1.0000
  C   C4        1.0  0.4923000000000001  0.66227  0.6107799999999999  1.0000
  C   C5        1.0  0.54588  0.6783  0.67389  1.0000
  C   C6        1.0  0.6451600000000002  0.67533  0.67384  1.0000
  C   C7        1.0  0.40675  0.66613  0.46581  1.0000
  C   C8        1.0  0.43596  0.5696  0.38384  1.0000
  C   C9        1.0  0.5106400000000001  0.56737  0.43176  1.0000
  C   C10       1.0  0.40139000000000014  0.7169800000000002  0.74455  1.0000
  C   C11       1.0  0.4578600000000001  0.70682  0.8543199999999999  1.0000
  C   C12       1.0  0.5323200000000002  0.69012  0.80872  1.0000
  C   C13       1.0  0.8020500000000003  0.15766000000000005  0.8897199999999997  1.0000
  C   C14       1.0  0.8562700000000002  0.14249  0.95351  1.0000
  C   C15       1.0  0.9555800000000002  0.14539  0.95183  1.0000
  C   C16       1.0  0.007610000000000001  0.1628  0.88921  1.0000
  C   C17       1.0  0.9539500000000002  0.17914  0.8263799999999999  1.0000
  C   C18       1.0  0.8545900000000002  0.17649  0.8266099999999997  1.0000
  C   C19       1.0  0.09419000000000002  0.16501  0.034019999999999995  1.0000
  C   C20       1.0  0.06314  0.06929  0.11526999999999998  1.0000
  C   C21       1.0  0.9884100000000001  0.06787000000000003  0.06735999999999999  1.0000
  C   C22       1.0  0.09838000000000002  0.21825  0.7556999999999998  1.0000
  C   C23       1.0  0.04145000000000001  0.20730000000000007  0.64602  1.0000
  C   C24       1.0  0.9672900000000002  0.19032000000000004  0.69167  1.0000
  C   C25       1.0  0.6976300000000002  0.15727  0.88981  1.0000
  C   C26       1.0  0.64367  0.1418  0.95369  1.0000
  C   C27       1.0  0.54436  0.14438000000000006  0.9521999999999999  1.0000
  C   C28       1.0  0.49209  0.1616  0.88968  1.0000
  C   C29       1.0  0.54549  0.17806  0.82675  1.0000
  C   C30       1.0  0.64484  0.17571  0.8267799999999997  1.0000
  C   C31       1.0  0.40606  0.16447  0.03438  1.0000
  C   C32       1.0  0.4364500000000001  0.06889  0.11584999999999998  1.0000
  C   C33       1.0  0.5112400000000001  0.06711000000000003  0.06797  1.0000
  C   C34       1.0  0.4008600000000001  0.21698  0.7563  1.0000
  C   C35       1.0  0.4579000000000001  0.20712  0.64657  1.0000
  C   C36       1.0  0.5320400000000001  0.1899  0.69212  1.0000
  C   C37       1.0  0.8019500000000003  0.65662  0.61054  1.0000
  C   C38       1.0  0.856  0.64191  0.5464399999999999  1.0000
  C   C39       1.0  0.9552700000000002  0.64487  0.54809  1.0000
  C   C40       1.0  0.00735  0.66201  0.6108899999999998  1.0000
  C   C41       1.0  0.9537000000000001  0.67782  0.6740299999999999  1.0000
  C   C42       1.0  0.8544400000000002  0.67479  0.67392  1.0000
  C   C43       1.0  0.09354000000000001  0.66558  0.46606  1.0000
  C   C44       1.0  0.06424  0.56874  0.3843799999999999  1.0000
  C   C45       1.0  0.9892000000000002  0.56706  0.43203  1.0000
  C   C46       1.0  0.09825000000000003  0.71588  0.74473  1.0000
  C   C47       1.0  0.04167  0.70604  0.8545199999999997  1.0000
  C   C48       1.0  0.9671100000000002  0.6896500000000002  0.80891  1.0000
  C   C49       1.0  0.25019  0.93097  0.41561  1.0000
  C   C50       1.0  0.2505000000000001  0.98353  0.47609999999999997  1.0000
  C   C51       1.0  0.25076  0.07143000000000002  0.46828  1.0000
  C   C52       1.0  0.25106  0.1079  0.39957  1.0000
  C   C53       1.0  0.25051  0.055200000000000006  0.33878  1.0000
  C   C54       1.0  0.24997000000000005  0.96749  0.3473599999999999  1.0000
  C   C55       1.0  0.25008000000000014  0.8368  0.4239999999999999  1.0000
  C   C56       1.0  0.25028000000000006  0.12333  0.5348899999999998  1.0000
  C   C57       1.0  0.2501200000000001  0.08824  0.2635  1.0000
  C   C58       1.0  0.24982000000000004  0.4305900000000001  0.08317999999999999  1.0000
  C   C59       1.0  0.2502000000000001  0.4822900000000001  0.022639999999999997  1.0000
  C   C60       1.0  0.24966000000000005  0.57032  0.03047  1.0000
  C   C61       1.0  0.24904000000000007  0.60767  0.09925  1.0000
  C   C62       1.0  0.24931000000000006  0.55589  0.16011  1.0000
  C   C63       1.0  0.24951  0.46805  0.15140999999999996  1.0000
  C   C64       1.0  0.25008000000000014  0.3362700000000001  0.07473999999999999  1.0000
  C   C65       1.0  0.24992000000000006  0.62146  0.96386  1.0000
  C   C66       1.0  0.24977000000000002  0.58899  0.23584  1.0000
  C   C67       1.0  0.30189000000000005  0.8424  0.11026999999999999  1.0000
  C   C68       1.0  0.35609000000000013  0.8575200000000002  0.046419999999999996  1.0000
  C   C69       1.0  0.45540000000000014  0.85472  0.04806  1.0000
  C   C70       1.0  0.5074400000000002  0.8375  0.11068  1.0000
  C   C71       1.0  0.45381  0.82124  0.17356  1.0000
  C   C72       1.0  0.35445000000000004  0.82378  0.17337999999999995  1.0000
  C   C73       1.0  0.5939900000000002  0.83498  0.96589  1.0000
  C   C74       1.0  0.56326  0.93069  0.88461  1.0000
  C   C75       1.0  0.4884700000000001  0.93214  0.93249  1.0000
  C   C76       1.0  0.5983600000000001  0.78258  0.24412999999999999  1.0000
  C   C77       1.0  0.5414700000000002  0.79314  0.35386  1.0000
  C   C78       1.0  0.4672300000000001  0.80999  0.30828  1.0000
  C   C79       1.0  0.19782000000000005  0.34323  0.38947  1.0000
  C   C80       1.0  0.14384000000000005  0.35814  0.45355999999999996  1.0000
  C   C81       1.0  0.04459  0.35498  0.45200999999999997  1.0000
  C   C82       1.0  0.9924200000000002  0.33761  0.38929  1.0000
  C   C83       1.0  0.045980000000000014  0.32158  0.32615  1.0000
  C   C84       1.0  0.14526  0.3245800000000001  0.3262  1.0000
  C   C85       1.0  0.90678  0.3338100000000001  0.53424  1.0000
  C   C86       1.0  0.9360300000000003  0.4305100000000001  0.61608  1.0000
  C   C87       1.0  0.010800000000000004  0.43264  0.56821  1.0000
  C   C88       1.0  0.90139  0.28304  0.25549  1.0000
  C   C89       1.0  0.9579400000000001  0.29316  0.14572  1.0000
  C   C90       1.0  0.03242  0.3098000000000001  0.19132999999999997  1.0000
  C   C91       1.0  0.3020800000000001  0.34346  0.38943  1.0000
  C   C92       1.0  0.3561500000000001  0.35832  0.45348999999999995  1.0000
  C   C93       1.0  0.45540000000000014  0.3552900000000001  0.4518499999999999  1.0000
  C   C94       1.0  0.50747  0.33811000000000013  0.38904999999999995  1.0000
  C   C95       1.0  0.45379000000000014  0.32229  0.32593  1.0000
  C   C96       1.0  0.35454  0.32529  0.32605  1.0000
  C   C97       1.0  0.59355  0.3344400000000001  0.5339  1.0000
  C   C98       1.0  0.5643200000000003  0.4311200000000001  0.61571  1.0000
  C   C99       1.0  0.48936000000000013  0.43291  0.5680099999999999  1.0000
  C   C100      1.0  0.5982500000000002  0.28409  0.25523  1.0000
  C   C101      1.0  0.54175  0.29397  0.14543999999999999  1.0000
  C   C102      1.0  0.46722000000000014  0.31045  0.19104999999999997  1.0000
  C   C103      1.0  0.19748000000000004  0.8426500000000002  0.11024  1.0000
  C   C104      1.0  0.14348  0.85818  0.046419999999999996  1.0000
  C   C105      1.0  0.04416000000000001  0.8555  0.04795  1.0000
  C   C106      1.0  0.9919200000000002  0.83809  0.11046999999999998  1.0000
  C   C107      1.0  0.04536000000000001  0.8215700000000002  0.17334  1.0000
  C   C108      1.0  0.14472000000000002  0.8240000000000002  0.17327  1.0000
  C   C109      1.0  0.9058500000000003  0.83555  0.9657299999999998  1.0000
  C   C110      1.0  0.93658  0.93112  0.8843  1.0000
  C   C111      1.0  0.011300000000000003  0.93288  0.9322399999999998  1.0000
  C   C112      1.0  0.90086  0.7821200000000003  0.24386999999999998  1.0000
  C   C113      1.0  0.95792  0.79237  0.35356  1.0000
  C   C114      1.0  0.03198  0.80981  0.30796  1.0000
  C   C115      1.0  0.7497800000000002  0.5694  0.9168299999999999  1.0000
  C   C116      1.0  0.75015  0.51769  0.97737  1.0000
  C   C117      1.0  0.7496100000000002  0.42965  0.9695399999999998  1.0000
  C   C118      1.0  0.74901  0.3923100000000001  0.9007499999999999  1.0000
  C   C119      1.0  0.7492500000000002  0.4441000000000001  0.83989  1.0000
  C   C120      1.0  0.74947  0.5319500000000003  0.8486  1.0000
  C   C121      1.0  0.75002  0.66372  0.92528  1.0000
  C   C122      1.0  0.7498900000000002  0.37851  0.03614  1.0000
  C   C123      1.0  0.7497300000000002  0.41101  0.76416  1.0000
  C   C124      1.0  0.7501400000000003  0.06895000000000003  0.58432  1.0000
  C   C125      1.0  0.75066  0.01634  0.5238499999999999  1.0000
  C   C126      1.0  0.7504000000000002  0.92844  0.53173  1.0000
  C   C127      1.0  0.7502  0.8920300000000002  0.60045  1.0000
  C   C128      1.0  0.75  0.9447700000000002  0.66121  1.0000
  C   C129      1.0  0.7497200000000002  0.032480000000000016  0.6525899999999999  1.0000
  C   C130      1.0  0.75  0.16315  0.57593  1.0000
  C   C131      1.0  0.7502200000000001  0.87653  0.46513  1.0000
  C   C132      1.0  0.7499000000000002  0.9117600000000002  0.7364999999999998  1.0000
  N   N1        1.0  0.4911700000000001  0.62852  0.48373999999999995  1.0000
  N   N2        1.0  0.37212  0.63159  0.40552  1.0000
  N   N3        1.0  0.4961700000000001  0.69645  0.73905  1.0000
  N   N4        1.0  0.3761500000000001  0.72382  0.81434  1.0000
  N   N5        1.0  0.00897  0.12854  0.01583  1.0000
  N   N6        1.0  0.12816  0.13031  0.09406999999999997  1.0000
  N   N7        1.0  0.0036600000000000005  0.19721  0.7612999999999998  1.0000
  N   N8        1.0  0.12330000000000002  0.22494  0.6858699999999999  1.0000
  N   N9        1.0  0.49108000000000007  0.1277  0.01632  1.0000
  N   N10       1.0  0.37178  0.13004  0.09446999999999997  1.0000
  N   N11       1.0  0.4955900000000001  0.19613  0.76177  1.0000
  N   N12       1.0  0.37601  0.22422000000000006  0.68653  1.0000
  N   N13       1.0  0.0087  0.62841  0.48385  1.0000
  N   N14       1.0  0.12836000000000006  0.6305500000000003  0.40607  1.0000
  N   N15       1.0  0.0033300000000000005  0.69576  0.73923  1.0000
  N   N16       1.0  0.12351000000000002  0.72261  0.8144999999999999  1.0000
  N   N17       1.0  0.50882  0.87148  0.98403  1.0000
  N   N18       1.0  0.62813  0.8696600000000002  0.90586  1.0000
  N   N19       1.0  0.50359  0.80334  0.23862  1.0000
  N   N20       1.0  0.6233200000000002  0.77583  0.31393  1.0000
  N   N21       1.0  0.9913000000000002  0.3713800000000001  0.5163  1.0000
  N   N22       1.0  0.8721000000000001  0.36848  0.59444  1.0000
  N   N23       1.0  0.9962300000000002  0.30349  0.261  1.0000
  N   N24       1.0  0.87616  0.27623  0.18569999999999998  1.0000
  N   N25       1.0  0.50883  0.37167  0.51611  1.0000
  N   N26       1.0  0.6283400000000001  0.36934  0.59398  1.0000
  N   N27       1.0  0.5034  0.30431  0.26073  1.0000
  N   N28       1.0  0.62352  0.27732  0.18546999999999994  1.0000
  N   N29       1.0  0.99091  0.8722900000000002  0.9838699999999999  1.0000
  N   N30       1.0  0.87175  0.86999  0.90562  1.0000
  N   N31       1.0  0.9955200000000001  0.80335  0.23834999999999998  1.0000
  N   N32       1.0  0.8760500000000002  0.7749000000000003  0.31367  1.0000
  O   O1        1.0  0.24787000000000006  0.79539  0.36325999999999997  1.0000
  O   O2        1.0  0.25209  0.80408  0.48509999999999986  1.0000
  O   O3        1.0  0.25231000000000003  0.20483000000000007  0.5315299999999998  1.0000
  O   O4        1.0  0.24774000000000004  0.08742  0.59631  1.0000
  O   O5        1.0  0.25223000000000007  0.16913  0.25384  1.0000
  O   O6        1.0  0.24774000000000004  0.03708  0.21125  1.0000
  O   O7        1.0  0.24799000000000002  0.29528  0.13528999999999997  1.0000
  O   O8        1.0  0.2521900000000001  0.30328  0.01341  1.0000
  O   O9        1.0  0.24777  0.70309  0.96712  1.0000
  O   O10       1.0  0.25226  0.58446  0.90248  1.0000
  O   O11       1.0  0.24772000000000005  0.66972  0.24699999999999997  1.0000
  O   O12       1.0  0.25221  0.53738  0.2872599999999999  1.0000
  O   O13       1.0  0.7479400000000003  0.70472  0.8647399999999998  1.0000
  O   O14       1.0  0.7521300000000002  0.69671  0.98661  1.0000
  O   O15       1.0  0.7478  0.29687  0.03287999999999999  1.0000
  O   O16       1.0  0.75222  0.4155  0.09752  1.0000
  O   O17       1.0  0.7477100000000002  0.33027  0.753  1.0000
  O   O18       1.0  0.75219  0.46261000000000013  0.7127399999999999  1.0000
  O   O19       1.0  0.7478700000000003  0.20456  0.6366699999999998  1.0000
  O   O20       1.0  0.7519300000000002  0.19589000000000006  0.51482  1.0000
  O   O21       1.0  0.7478700000000003  0.79503  0.46846  1.0000
  O   O22       1.0  0.7522700000000002  0.9125  0.40372999999999987  1.0000
  O   O23       1.0  0.7521500000000002  0.83088  0.7461699999999998  1.0000
  O   O24       1.0  0.7477200000000003  0.96293  0.78874  1.0000
