data_image0
_chemical_formula_structural       Cu8H144C138N8O40
_chemical_formula_sum              "Cu8 H144 C138 N8 O40"
_cell_length_a       7.08886
_cell_length_b       31.34061
_cell_length_c       31.32423
_cell_angle_alpha    90.02236000000002
_cell_angle_beta     90.0
_cell_angle_gamma    90.0

_space_group_name_H-M_alt    "P 1"
_space_group_IT_number       1

loop_
  _space_group_symop_operation_xyz
  'x, y, z'

loop_
  _atom_site_type_symbol
  _atom_site_label
  _atom_site_symmetry_multiplicity
  _atom_site_fract_x
  _atom_site_fract_y
  _atom_site_fract_z
  _atom_site_occupancy
  Cu  Cu1       1.0  0.9064999999999998  0.52452  0.5252800000000002  1.0000
  Cu  Cu2       1.0  0.9064899999999998  0.97548  0.97472  1.0000
  Cu  Cu3       1.0  0.40685  0.47469  0.024620000000000006  1.0000
  Cu  Cu4       1.0  0.4068599999999999  0.02531  0.4753800000000001  1.0000
  Cu  Cu5       1.0  0.09351  0.47548  0.4747200000000001  1.0000
  Cu  Cu6       1.0  0.09349999999999997  0.02452  0.025280000000000007  1.0000
  Cu  Cu7       1.0  0.5931399999999999  0.52531  0.97538  1.0000
  Cu  Cu8       1.0  0.5931499999999997  0.97469  0.52462  1.0000
  H   H1        1.0  0.4937799999999999  0.5309099999999999  0.5422800000000002  1.0000
  H   H2        1.0  0.26015999999999995  0.5737  0.5833700000000003  1.0000
  H   H3        1.0  0.7292399999999999  0.64664  0.63334  1.0000
  H   H4        1.0  0.9423699999999999  0.60124  0.5888800000000002  1.0000
  H   H5        1.0  0.3310899999999999  0.563  0.6762  1.0000
  H   H6        1.0  0.11697999999999997  0.57231  0.70439  1.0000
  H   H7        1.0  0.11275  0.56014  0.6491  1.0000
  H   H8        1.0  0.9846999999999998  0.6402  0.70892  1.0000
  H   H9        1.0  0.23095999999999994  0.74781  0.64471  1.0000
  H   H10       1.0  0.45080999999999993  0.69839  0.6067100000000002  1.0000
  H   H11       1.0  0.7783599999999998  0.68661  0.72387  1.0000
  H   H12       1.0  0.95937  0.7005  0.7612700000000002  1.0000
  H   H13       1.0  0.30919  0.48229  0.63039  1.0000
  H   H14       1.0  0.48432  0.4662  0.5918500000000002  1.0000
  H   H15       1.0  0.3052499999999999  0.42996  0.60748  1.0000
  H   H16       1.0  0.66948  0.37333  0.50695  1.0000
  H   H17       1.0  0.67861  0.38947  0.56168  1.0000
  H   H18       1.0  0.5036799999999999  0.41176  0.52776  1.0000
  H   H19       1.0  0.4937799999999999  0.96909  0.95772  1.0000
  H   H20       1.0  0.26016999999999996  0.92629  0.91664  1.0000
  H   H21       1.0  0.7292399999999999  0.85336  0.8666600000000002  1.0000
  H   H22       1.0  0.9423699999999999  0.89876  0.91112  1.0000
  H   H23       1.0  0.3310899999999999  0.937  0.8238  1.0000
  H   H24       1.0  0.11697999999999997  0.92768  0.79561  1.0000
  H   H25       1.0  0.11275  0.93985  0.8509  1.0000
  H   H26       1.0  0.9846999999999998  0.8598  0.7910800000000002  1.0000
  H   H27       1.0  0.23095999999999994  0.75219  0.8552900000000002  1.0000
  H   H28       1.0  0.45080999999999993  0.8016  0.89329  1.0000
  H   H29       1.0  0.7783499999999998  0.81339  0.7761300000000002  1.0000
  H   H30       1.0  0.95936  0.7995  0.73873  1.0000
  H   H31       1.0  0.3091999999999999  0.01771  0.86961  1.0000
  H   H32       1.0  0.48432  0.0338  0.90816  1.0000
  H   H33       1.0  0.3052699999999999  0.07004  0.8925300000000003  1.0000
  H   H34       1.0  0.66948  0.12667  0.99305  1.0000
  H   H35       1.0  0.6785999999999998  0.11053  0.93832  1.0000
  H   H36       1.0  0.50367  0.08824  0.9722500000000002  1.0000
  H   H37       1.0  0.9939899999999998  0.4576599999999999  0.03128  1.0000
  H   H38       1.0  0.7603499999999997  0.41647  0.07393  1.0000
  H   H39       1.0  0.2293  0.3663999999999999  0.14682  1.0000
  H   H40       1.0  0.44246999999999986  0.411  0.10161  1.0000
  H   H41       1.0  0.8310999999999997  0.32367  0.06295  1.0000
  H   H42       1.0  0.61717  0.29546  0.07231000000000003  1.0000
  H   H43       1.0  0.6126  0.35069  0.06016000000000001  1.0000
  H   H44       1.0  0.4828699999999999  0.29136  0.14008  1.0000
  H   H45       1.0  0.72816  0.35551  0.2479  1.0000
  H   H46       1.0  0.9513599999999999  0.39282  0.19869  1.0000
  H   H47       1.0  0.27676999999999996  0.27541  0.18638  1.0000
  H   H48       1.0  0.46253999999999995  0.23951  0.20099  1.0000
  H   H49       1.0  0.8074399999999998  0.36985  0.9824800000000002  1.0000
  H   H50       1.0  0.9825499999999998  0.40833  0.9663600000000002  1.0000
  H   H51       1.0  0.80364  0.39256  0.93009  1.0000
  H   H52       1.0  0.16645  0.49284  0.87358  1.0000
  H   H53       1.0  0.17577999999999994  0.43816  0.88985  1.0000
  H   H54       1.0  0.0004799999999999999  0.47207  0.9120700000000003  1.0000
  H   H55       1.0  0.9939899999999998  0.04234  0.46872  1.0000
  H   H56       1.0  0.7603499999999997  0.08353  0.42606  1.0000
  H   H57       1.0  0.2293  0.1336  0.35318  1.0000
  H   H58       1.0  0.44246999999999986  0.089  0.39839  1.0000
  H   H59       1.0  0.8311099999999998  0.17633  0.43705  1.0000
  H   H60       1.0  0.61717  0.20454  0.4276900000000001  1.0000
  H   H61       1.0  0.61261  0.14931  0.4398400000000001  1.0000
  H   H62       1.0  0.4828699999999999  0.20863999999999994  0.35992  1.0000
  H   H63       1.0  0.72816  0.14449  0.2521  1.0000
  H   H64       1.0  0.9513699999999998  0.10718  0.30132  1.0000
  H   H65       1.0  0.27678  0.22458  0.31362  1.0000
  H   H66       1.0  0.4625499999999999  0.26049  0.29901  1.0000
  H   H67       1.0  0.8074599999999997  0.13016  0.51751  1.0000
  H   H68       1.0  0.9825399999999999  0.09167  0.53364  1.0000
  H   H69       1.0  0.8036299999999997  0.10745  0.5699100000000002  1.0000
  H   H70       1.0  0.16647  0.00715  0.62642  1.0000
  H   H71       1.0  0.17582  0.06184  0.6101600000000003  1.0000
  H   H72       1.0  0.0005099999999999998  0.02793  0.58793  1.0000
  H   H73       1.0  0.5062099999999998  0.46909  0.4577200000000001  1.0000
  H   H74       1.0  0.7398299999999999  0.4263  0.41664  1.0000
  H   H75       1.0  0.2707499999999999  0.35336  0.36666  1.0000
  H   H76       1.0  0.05762  0.39876  0.4111200000000001  1.0000
  H   H77       1.0  0.6689  0.437  0.3238  1.0000
  H   H78       1.0  0.88301  0.42769  0.29561  1.0000
  H   H79       1.0  0.8872499999999998  0.43986  0.3509  1.0000
  H   H80       1.0  0.015299999999999996  0.3598  0.29108  1.0000
  H   H81       1.0  0.7690399999999997  0.25219  0.35529  1.0000
  H   H82       1.0  0.54918  0.3016  0.3932900000000001  1.0000
  H   H83       1.0  0.22165  0.31339  0.27613  1.0000
  H   H84       1.0  0.040629999999999986  0.2995  0.23873  1.0000
  H   H85       1.0  0.6908  0.51771  0.36961  1.0000
  H   H86       1.0  0.51567  0.5338  0.40816  1.0000
  H   H87       1.0  0.6947199999999998  0.57004  0.39253  1.0000
  H   H88       1.0  0.33051  0.62667  0.49305  1.0000
  H   H89       1.0  0.3213999999999999  0.61052  0.43832  1.0000
  H   H90       1.0  0.4963299999999999  0.58824  0.4722500000000001  1.0000
  H   H91       1.0  0.50622  0.030909999999999993  0.04228  1.0000
  H   H92       1.0  0.7398399999999998  0.0737  0.08336  1.0000
  H   H93       1.0  0.27075999999999995  0.14664  0.13334  1.0000
  H   H94       1.0  0.05762999999999999  0.10124  0.08888  1.0000
  H   H95       1.0  0.6689099999999999  0.063  0.17620000000000005  1.0000
  H   H96       1.0  0.8830199999999998  0.07232  0.20439  1.0000
  H   H97       1.0  0.8872499999999998  0.06014  0.14910000000000007  1.0000
  H   H98       1.0  0.015299999999999996  0.1402  0.20892  1.0000
  H   H99       1.0  0.7690399999999997  0.24781  0.14471  1.0000
  H   H100      1.0  0.54919  0.19839  0.10671000000000001  1.0000
  H   H101      1.0  0.22163999999999998  0.18661  0.22387  1.0000
  H   H102      1.0  0.040619999999999996  0.2005  0.26127  1.0000
  H   H103      1.0  0.6908  0.98229  0.13039  1.0000
  H   H104      1.0  0.5156799999999999  0.9661999999999998  0.09185  1.0000
  H   H105      1.0  0.6947299999999997  0.9299599999999998  0.10747  1.0000
  H   H106      1.0  0.33051  0.87333  0.006950000000000001  1.0000
  H   H107      1.0  0.32138999999999995  0.88947  0.06168  1.0000
  H   H108      1.0  0.49632  0.91176  0.02775  1.0000
  H   H109      1.0  0.005999999999999999  0.54234  0.9687200000000002  1.0000
  H   H110      1.0  0.23964999999999995  0.58353  0.92607  1.0000
  H   H111      1.0  0.7706899999999998  0.6336  0.85318  1.0000
  H   H112      1.0  0.55752  0.589  0.8983900000000002  1.0000
  H   H113      1.0  0.16887999999999995  0.67633  0.93706  1.0000
  H   H114      1.0  0.3828199999999999  0.70453  0.92769  1.0000
  H   H115      1.0  0.3873799999999999  0.64931  0.93984  1.0000
  H   H116      1.0  0.5171399999999998  0.70863  0.8599200000000002  1.0000
  H   H117      1.0  0.27185  0.64448  0.75211  1.0000
  H   H118      1.0  0.04861999999999998  0.60718  0.80132  1.0000
  H   H119      1.0  0.72321  0.72458  0.81362  1.0000
  H   H120      1.0  0.5374099999999999  0.76048  0.799  1.0000
  H   H121      1.0  0.19254999999999994  0.63015  0.017520000000000008  1.0000
  H   H122      1.0  0.017449999999999997  0.59167  0.03364  1.0000
  H   H123      1.0  0.19635999999999995  0.60744  0.06991  1.0000
  H   H124      1.0  0.8335499999999998  0.50715  0.12642  1.0000
  H   H125      1.0  0.8241999999999998  0.56184  0.11016  1.0000
  H   H126      1.0  0.9995099999999999  0.52793  0.08793000000000002  1.0000
  H   H127      1.0  0.005999999999999999  0.95766  0.53128  1.0000
  H   H128      1.0  0.23964999999999995  0.91647  0.5739300000000003  1.0000
  H   H129      1.0  0.7706899999999998  0.8664  0.64682  1.0000
  H   H130      1.0  0.55752  0.911  0.60161  1.0000
  H   H131      1.0  0.16889  0.82367  0.56294  1.0000
  H   H132      1.0  0.3828199999999999  0.79546  0.5723100000000002  1.0000
  H   H133      1.0  0.38739  0.85069  0.5601600000000002  1.0000
  H   H134      1.0  0.5171399999999998  0.7913699999999998  0.64008  1.0000
  H   H135      1.0  0.27183999999999997  0.85551  0.7478900000000003  1.0000
  H   H136      1.0  0.04861999999999998  0.89282  0.6986800000000002  1.0000
  H   H137      1.0  0.72321  0.77541  0.68638  1.0000
  H   H138      1.0  0.5374199999999998  0.73952  0.7010000000000002  1.0000
  H   H139      1.0  0.19253999999999993  0.86985  0.48248000000000013  1.0000
  H   H140      1.0  0.01743  0.90833  0.46636  1.0000
  H   H141      1.0  0.19633  0.89256  0.4300900000000001  1.0000
  H   H142      1.0  0.8335299999999998  0.99284  0.37358  1.0000
  H   H143      1.0  0.8242199999999997  0.93815  0.38985  1.0000
  H   H144      1.0  0.9995199999999999  0.97207  0.41207  1.0000
  C   C1        1.0  0.47478  0.61394  0.6124400000000002  1.0000
  C   C2        1.0  0.53896  0.55667  0.56324  1.0000
  C   C3        1.0  0.40994999999999987  0.58058  0.58655  1.0000
  C   C4        1.0  0.67064  0.62138  0.61354  1.0000
  C   C5        1.0  0.7900999999999999  0.59595  0.5891400000000002  1.0000
  C   C6        1.0  0.3409199999999999  0.64145  0.63605  1.0000
  C   C7        1.0  0.09647999999999998  0.69728  0.6796  1.0000
  C   C8        1.0  0.20477  0.62474  0.66444  1.0000
  C   C9        1.0  0.19066  0.5776  0.67404  1.0000
  C   C10       1.0  0.08454  0.65318  0.68606  1.0000
  C   C11       1.0  0.22638999999999995  0.7136  0.65013  1.0000
  C   C12       1.0  0.3481399999999999  0.68585  0.6293100000000003  1.0000
  C   C13       1.0  0.8713699999999998  0.71238  0.7349100000000002  1.0000
  C   C14       1.0  0.33544999999999997  0.46379  0.60137  1.0000
  C   C15       1.0  0.21233999999999995  0.479  0.56498  1.0000
  C   C16       1.0  0.7825199999999999  0.43631  0.5180300000000001  1.0000
  C   C17       1.0  0.6500299999999998  0.40014  0.5289  1.0000
  C   C18       1.0  0.47478  0.88606  0.88756  1.0000
  C   C19       1.0  0.53896  0.94333  0.9367600000000003  1.0000
  C   C20       1.0  0.40996  0.91942  0.91345  1.0000
  C   C21       1.0  0.67064  0.87861  0.8864600000000002  1.0000
  C   C22       1.0  0.7900999999999999  0.90405  0.91086  1.0000
  C   C23       1.0  0.3409199999999999  0.85855  0.8639500000000002  1.0000
  C   C24       1.0  0.09646999999999997  0.80272  0.8204  1.0000
  C   C25       1.0  0.20477  0.87526  0.83556  1.0000
  C   C26       1.0  0.19066  0.9224  0.8259600000000002  1.0000
  C   C27       1.0  0.08454  0.84682  0.8139400000000002  1.0000
  C   C28       1.0  0.22638999999999995  0.7864  0.8498700000000002  1.0000
  C   C29       1.0  0.3481399999999999  0.8141499999999998  0.87069  1.0000
  C   C30       1.0  0.8713599999999999  0.78761  0.76509  1.0000
  C   C31       1.0  0.33545999999999987  0.03621  0.89863  1.0000
  C   C32       1.0  0.21236999999999995  0.02101  0.93503  1.0000
  C   C33       1.0  0.7825199999999999  0.06368  0.98197  1.0000
  C   C34       1.0  0.6500299999999998  0.09986  0.9711  1.0000
  C   C35       1.0  0.9749199999999998  0.38735  0.11413  1.0000
  C   C36       1.0  0.03921  0.43668  0.05702  1.0000
  C   C37       1.0  0.91016  0.41329  0.08081  1.0000
  C   C38       1.0  0.17072999999999994  0.38625  0.12161  1.0000
  C   C39       1.0  0.2902099999999999  0.41076  0.09630000000000002  1.0000
  C   C40       1.0  0.8408699999999998  0.36375  0.14158000000000007  1.0000
  C   C41       1.0  0.59331  0.321  0.1972  1.0000
  C   C42       1.0  0.7045299999999998  0.33547  0.12476  1.0000
  C   C43       1.0  0.6907699999999999  0.32581  0.0776  1.0000
  C   C44       1.0  0.58293  0.31415  0.15311000000000005  1.0000
  C   C45       1.0  0.7242399999999998  0.3501299999999999  0.21365  1.0000
  C   C46       1.0  0.8477199999999998  0.37052  0.18601  1.0000
  C   C47       1.0  0.37047999999999986  0.26534  0.21244  1.0000
  C   C48       1.0  0.8336299999999998  0.39881  0.96393  1.0000
  C   C49       1.0  0.70955  0.43507  0.9790300000000002  1.0000
  C   C50       1.0  0.27899  0.48198999999999986  0.9366  1.0000
  C   C51       1.0  0.14679  0.47095  0.90041  1.0000
  C   C52       1.0  0.9749299999999997  0.11265  0.38587  1.0000
  C   C53       1.0  0.03922  0.06332  0.44298  1.0000
  C   C54       1.0  0.91016  0.08671  0.4191900000000001  1.0000
  C   C55       1.0  0.17072999999999994  0.11375  0.37839  1.0000
  C   C56       1.0  0.2902099999999999  0.08924  0.4037  1.0000
  C   C57       1.0  0.8408699999999998  0.13625  0.35843000000000014  1.0000
  C   C58       1.0  0.5932999999999998  0.17899  0.3028  1.0000
  C   C59       1.0  0.7045299999999998  0.16453  0.3752400000000001  1.0000
  C   C60       1.0  0.6907799999999997  0.17419  0.42241  1.0000
  C   C61       1.0  0.58292  0.18585  0.3468900000000001  1.0000
  C   C62       1.0  0.7242399999999998  0.14987  0.28635  1.0000
  C   C63       1.0  0.8477199999999998  0.12948  0.31399  1.0000
  C   C64       1.0  0.37047999999999986  0.23465  0.28756  1.0000
  C   C65       1.0  0.8336199999999999  0.1012  0.53607  1.0000
  C   C66       1.0  0.7095399999999997  0.06493  0.52097  1.0000
  C   C67       1.0  0.27900999999999987  0.018  0.5634000000000002  1.0000
  C   C68       1.0  0.14681  0.02905  0.5995900000000002  1.0000
  C   C69       1.0  0.52521  0.38606  0.3875600000000001  1.0000
  C   C70       1.0  0.46103  0.44333  0.4367600000000001  1.0000
  C   C71       1.0  0.5900299999999999  0.41942  0.41345  1.0000
  C   C72       1.0  0.3293599999999999  0.37861  0.38646  1.0000
  C   C73       1.0  0.20988999999999994  0.40405  0.4108600000000001  1.0000
  C   C74       1.0  0.65908  0.35855  0.36395  1.0000
  C   C75       1.0  0.9035199999999998  0.30272  0.3204  1.0000
  C   C76       1.0  0.79523  0.37526  0.33556  1.0000
  C   C77       1.0  0.8093399999999997  0.4224  0.32596  1.0000
  C   C78       1.0  0.9154599999999999  0.34682  0.31394  1.0000
  C   C79       1.0  0.7736099999999998  0.2864  0.34987  1.0000
  C   C80       1.0  0.65186  0.31415  0.37069000000000013  1.0000
  C   C81       1.0  0.12862999999999994  0.28762  0.2650900000000001  1.0000
  C   C82       1.0  0.6645399999999999  0.53621  0.39863  1.0000
  C   C83       1.0  0.7876199999999999  0.52101  0.4350300000000001  1.0000
  C   C84       1.0  0.21746999999999994  0.56369  0.4819800000000001  1.0000
  C   C85       1.0  0.34997  0.59986  0.4711  1.0000
  C   C86       1.0  0.5252199999999999  0.11394  0.11244000000000003  1.0000
  C   C87       1.0  0.4610399999999999  0.05667  0.06324  1.0000
  C   C88       1.0  0.5900399999999998  0.08058  0.08655  1.0000
  C   C89       1.0  0.3293599999999999  0.12139  0.11354  1.0000
  C   C90       1.0  0.20989999999999995  0.09595  0.08914  1.0000
  C   C91       1.0  0.65908  0.14145  0.13605  1.0000
  C   C92       1.0  0.9035199999999998  0.19728  0.1796  1.0000
  C   C93       1.0  0.79523  0.12474  0.16444000000000006  1.0000
  C   C94       1.0  0.8093399999999997  0.0776  0.17404  1.0000
  C   C95       1.0  0.9154599999999999  0.15318  0.18606  1.0000
  C   C96       1.0  0.7736099999999998  0.2136  0.15013  1.0000
  C   C97       1.0  0.65186  0.18585  0.12931000000000006  1.0000
  C   C98       1.0  0.12862  0.21238  0.23491  1.0000
  C   C99       1.0  0.6645399999999999  0.96379  0.10137  1.0000
  C   C100      1.0  0.7876399999999998  0.97899  0.06498  1.0000
  C   C101      1.0  0.21745999999999993  0.93631  0.018020000000000008  1.0000
  C   C102      1.0  0.34997  0.90014  0.0289  1.0000
  C   C103      1.0  0.025059999999999992  0.61265  0.8858800000000002  1.0000
  C   C104      1.0  0.9607799999999999  0.56332  0.94298  1.0000
  C   C105      1.0  0.08983  0.58671  0.9191900000000002  1.0000
  C   C106      1.0  0.8292599999999998  0.61375  0.87839  1.0000
  C   C107      1.0  0.7097799999999997  0.58924  0.90371  1.0000
  C   C108      1.0  0.15911999999999996  0.63625  0.8584300000000002  1.0000
  C   C109      1.0  0.4067099999999999  0.67899  0.8028000000000002  1.0000
  C   C110      1.0  0.2954599999999999  0.66452  0.87524  1.0000
  C   C111      1.0  0.30922  0.67419  0.92241  1.0000
  C   C112      1.0  0.4170799999999999  0.68584  0.8468900000000003  1.0000
  C   C113      1.0  0.27577  0.64986  0.78635  1.0000
  C   C114      1.0  0.15226999999999993  0.62947  0.8139900000000002  1.0000
  C   C115      1.0  0.6295  0.73465  0.78756  1.0000
  C   C116      1.0  0.16636999999999993  0.60119  0.03607000000000001  1.0000
  C   C117      1.0  0.29044999999999993  0.5649299999999999  0.02097  1.0000
  C   C118      1.0  0.7209899999999998  0.518  0.0634  1.0000
  C   C119      1.0  0.8531999999999997  0.52905  0.09959000000000003  1.0000
  C   C120      1.0  0.02507  0.88735  0.61413  1.0000
  C   C121      1.0  0.9607799999999999  0.93668  0.5570200000000001  1.0000
  C   C122      1.0  0.08983  0.91329  0.58081  1.0000
  C   C123      1.0  0.8292599999999998  0.88625  0.62161  1.0000
  C   C124      1.0  0.7097799999999997  0.91076  0.5963  1.0000
  C   C125      1.0  0.15912999999999994  0.86375  0.64157  1.0000
  C   C126      1.0  0.4067  0.82101  0.6972  1.0000
  C   C127      1.0  0.2954599999999999  0.83547  0.6247600000000002  1.0000
  C   C128      1.0  0.30922  0.82581  0.57759  1.0000
  C   C129      1.0  0.4170799999999999  0.8141499999999998  0.65311  1.0000
  C   C130      1.0  0.27576  0.85013  0.71365  1.0000
  C   C131      1.0  0.15226999999999993  0.87052  0.68601  1.0000
  C   C132      1.0  0.6295  0.7653399999999998  0.71244  1.0000
  C   C133      1.0  0.16635  0.89881  0.46393  1.0000
  C   C134      1.0  0.2904299999999999  0.93508  0.47902  1.0000
  C   C135      1.0  0.7209999999999998  0.98199  0.4366  1.0000
  C   C136      1.0  0.8532099999999998  0.97095  0.40041  1.0000
  C   C137      1.0  0.7502299999999997  0.75  0.7500000000000001  1.0000
  C   C138      1.0  0.24975  0.25  0.25  1.0000
  N   N1        1.0  0.7264  0.56397  0.5644500000000001  1.0000
  N   N2        1.0  0.7264  0.9360299999999999  0.93555  1.0000
  N   N3        1.0  0.22664  0.43555  0.06439  1.0000
  N   N4        1.0  0.22664  0.06445  0.43561  1.0000
  N   N5        1.0  0.27358999999999994  0.43603  0.43555  1.0000
  N   N6        1.0  0.27359999999999995  0.06397  0.06445  1.0000
  N   N7        1.0  0.7733499999999998  0.56445  0.93561  1.0000
  N   N8        1.0  0.7733499999999998  0.93555  0.56439  1.0000
  O   O1        1.0  0.7521  0.47192  0.5367  1.0000
  O   O2        1.0  0.08479999999999997  0.50655  0.57329  1.0000
  O   O3        1.0  0.9141099999999998  0.42883  0.49112  1.0000
  O   O4        1.0  0.24734999999999993  0.46311  0.5283000000000002  1.0000
  O   O5        1.0  0.9899899999999998  0.72717  0.70075  1.0000
  O   O6        1.0  0.7521  0.02808  0.9633000000000003  1.0000
  O   O7        1.0  0.08479  0.99345  0.9267100000000003  1.0000
  O   O8        1.0  0.9140999999999999  0.07117  0.00888  1.0000
  O   O9        1.0  0.24734999999999993  0.03689  0.9717  1.0000
  O   O10       1.0  0.9899899999999998  0.77283  0.7992500000000002  1.0000
  O   O11       1.0  0.24830999999999995  0.4634  0.9722200000000002  1.0000
  O   O12       1.0  0.5814499999999998  0.42666  0.00647  1.0000
  O   O13       1.0  0.41022999999999993  0.50893  0.92906  1.0000
  O   O14       1.0  0.7436299999999998  0.47173  0.9630800000000003  1.0000
  O   O15       1.0  0.48386  0.3006  0.22705  1.0000
  O   O16       1.0  0.24833  0.03659  0.52778  1.0000
  O   O17       1.0  0.58147  0.07334  0.49353  1.0000
  O   O18       1.0  0.4102399999999999  0.99106  0.57094  1.0000
  O   O19       1.0  0.7436199999999998  0.02827  0.53693  1.0000
  O   O20       1.0  0.48386  0.1994  0.27295  1.0000
  O   O21       1.0  0.24789999999999995  0.52807  0.4633  1.0000
  O   O22       1.0  0.9152199999999999  0.49345  0.42671  1.0000
  O   O23       1.0  0.08590999999999997  0.57117  0.50888  1.0000
  O   O24       1.0  0.7526499999999999  0.53688  0.4717  1.0000
  O   O25       1.0  0.01  0.27283  0.29925000000000007  1.0000
  O   O26       1.0  0.24789999999999995  0.97192  0.0367  1.0000
  O   O27       1.0  0.91521  0.00655  0.07329  1.0000
  O   O28       1.0  0.0859  0.92883  0.99112  1.0000
  O   O29       1.0  0.75264  0.96311  0.028300000000000006  1.0000
  O   O30       1.0  0.01  0.22717  0.20075  1.0000
  O   O31       1.0  0.7516799999999999  0.53659  0.02778  1.0000
  O   O32       1.0  0.4185399999999999  0.57334  0.99353  1.0000
  O   O33       1.0  0.5897599999999997  0.49107  0.07094  1.0000
  O   O34       1.0  0.25636999999999993  0.52827  0.03692000000000001  1.0000
  O   O35       1.0  0.5161399999999999  0.69939  0.77295  1.0000
  O   O36       1.0  0.7516799999999999  0.9634  0.4722300000000001  1.0000
  O   O37       1.0  0.41854999999999987  0.92666  0.50647  1.0000
  O   O38       1.0  0.5897599999999997  0.00893  0.42906  1.0000
  O   O39       1.0  0.2563599999999999  0.97172  0.46308  1.0000
  O   O40       1.0  0.51613  0.8006  0.7270500000000002  1.0000
