data_image0
_chemical_formula_structural       Zn4H80C104N24O24
_chemical_formula_sum              "Zn4 H80 C104 N24 O24"
_cell_length_a       11.81143
_cell_length_b       15.98149
_cell_length_c       16.88475
_cell_angle_alpha    90.0
_cell_angle_beta     109.37584999999999
_cell_angle_gamma    90.0

_symmetry_space_group_name_H-M    'P 1'
_symmetry_Int_Tables_number       1

loop_
  _symmetry_equiv_pos_as_xyz
  'x,y,z'

loop_
  _atom_site_type_symbol
  _atom_site_label
  _atom_site_symmetry_multiplicity
  _atom_site_fract_x
  _atom_site_fract_y
  _atom_site_fract_z
  _atom_site_occupancy
  Zn  Zn1       1.0  0.33426  0.4900500000000001  0.22431  1.0000
  Zn  Zn2       1.0  0.33426000000000006  0.00995  0.72431  1.0000
  Zn  Zn3       1.0  0.66574  0.99005  0.27569  1.0000
  Zn  Zn4       1.0  0.66574  0.5099500000000002  0.77569  1.0000
  H   H1        1.0  0.73824  0.31641000000000014  0.81239  1.0000
  H   H2        1.0  0.07663999999999997  0.42386  0.91871  1.0000
  H   H3        1.0  0.8896399999999999  0.3669500000000001  0.87852  1.0000
  H   H4        1.0  0.87609  0.8076  0.14065  1.0000
  H   H5        1.0  0.9708699999999999  0.8769500000000002  0.07912  1.0000
  H   H6        1.0  0.6586200000000001  0.6768800000000003  0.97963  1.0000
  H   H7        1.0  0.25227  0.48032000000000014  0.03403  1.0000
  H   H8        1.0  0.51676  0.5818800000000002  0.01691  1.0000
  H   H9        1.0  0.6460499999999999  0.67225  0.2712  1.0000
  H   H10       1.0  0.22712999999999992  0.98503  0.95388  1.0000
  H   H11       1.0  0.92699  0.3424500000000001  0.10731  1.0000
  H   H12       1.0  0.8713599999999998  0.7974100000000002  0.8609699999999998  1.0000
  H   H13       1.0  0.11849999999999997  0.94852  0.05239  1.0000
  H   H14       1.0  0.78885  0.7656300000000003  0.23454999999999995  1.0000
  H   H15       1.0  0.9851299999999998  0.8316400000000003  0.7639599999999998  1.0000
  H   H16       1.0  0.58787  0.2586900000000001  0.70252  1.0000
  H   H17       1.0  0.42708  0.15154  0.65315  1.0000
  H   H18       1.0  0.47005999999999987  0.07703000000000003  0.89646  1.0000
  H   H19       1.0  0.6367499999999999  0.17974  0.9567099999999997  1.0000
  H   H20       1.0  0.10658  0.4073100000000001  0.21465  1.0000
  H   H21       1.0  0.73824  0.18359000000000006  0.31239  1.0000
  H   H22       1.0  0.07663999999999994  0.07614  0.4187099999999999  1.0000
  H   H23       1.0  0.8896399999999999  0.13305  0.37851  1.0000
  H   H24       1.0  0.87609  0.6924000000000002  0.64065  1.0000
  H   H25       1.0  0.9708699999999999  0.62305  0.57912  1.0000
  H   H26       1.0  0.6586199999999998  0.8231300000000003  0.47963  1.0000
  H   H27       1.0  0.25227  0.01968  0.53403  1.0000
  H   H28       1.0  0.51676  0.91812  0.51691  1.0000
  H   H29       1.0  0.6460599999999997  0.82776  0.7711999999999998  1.0000
  H   H30       1.0  0.22712999999999997  0.5149700000000003  0.45388  1.0000
  H   H31       1.0  0.92699  0.15755000000000005  0.60731  1.0000
  H   H32       1.0  0.87136  0.70259  0.3609699999999999  1.0000
  H   H33       1.0  0.11849999999999997  0.55149  0.55239  1.0000
  H   H34       1.0  0.7888499999999998  0.7343800000000003  0.7345499999999998  1.0000
  H   H35       1.0  0.9851299999999998  0.6683700000000002  0.26396  1.0000
  H   H36       1.0  0.58787  0.24131000000000005  0.20251999999999995  1.0000
  H   H37       1.0  0.42708  0.3484600000000001  0.15315  1.0000
  H   H38       1.0  0.4700599999999998  0.4229700000000001  0.39645999999999987  1.0000
  H   H39       1.0  0.63675  0.32026  0.45671  1.0000
  H   H40       1.0  0.10657999999999986  0.09269000000000002  0.7146499999999998  1.0000
  H   H41       1.0  0.26175  0.8164100000000002  0.68761  1.0000
  H   H42       1.0  0.92335  0.92386  0.58129  1.0000
  H   H43       1.0  0.11036000000000001  0.8669500000000002  0.62149  1.0000
  H   H44       1.0  0.1239  0.3076  0.35935  1.0000
  H   H45       1.0  0.029129999999999982  0.37695  0.42088  1.0000
  H   H46       1.0  0.34137999999999996  0.17688000000000006  0.52037  1.0000
  H   H47       1.0  0.74773  0.98032  0.46597  1.0000
  H   H48       1.0  0.48324  0.08188  0.48309  1.0000
  H   H49       1.0  0.35394  0.17225000000000004  0.2288  1.0000
  H   H50       1.0  0.77287  0.4850300000000001  0.54612  1.0000
  H   H51       1.0  0.07300999999999996  0.8424500000000003  0.39269  1.0000
  H   H52       1.0  0.12863999999999987  0.29741  0.6390299999999998  1.0000
  H   H53       1.0  0.88149  0.4485200000000001  0.44761  1.0000
  H   H54       1.0  0.21114999999999995  0.26562  0.2654499999999999  1.0000
  H   H55       1.0  0.01486999999999989  0.33163  0.7360399999999998  1.0000
  H   H56       1.0  0.41213  0.75869  0.79748  1.0000
  H   H57       1.0  0.5729099999999999  0.6515400000000002  0.84685  1.0000
  H   H58       1.0  0.52994  0.57703  0.60354  1.0000
  H   H59       1.0  0.36325  0.6797400000000002  0.54329  1.0000
  H   H60       1.0  0.8934200000000001  0.9073200000000002  0.28535  1.0000
  H   H61       1.0  0.26175  0.68359  0.18761  1.0000
  H   H62       1.0  0.9233499999999998  0.57615  0.08128999999999997  1.0000
  H   H63       1.0  0.11036  0.6330600000000002  0.12149  1.0000
  H   H64       1.0  0.12389999999999994  0.19240000000000004  0.8593499999999997  1.0000
  H   H65       1.0  0.02913000000000006  0.12305000000000003  0.92088  1.0000
  H   H66       1.0  0.34137999999999996  0.32313  0.020369999999999992  1.0000
  H   H67       1.0  0.74773  0.5196800000000003  0.9659699999999998  1.0000
  H   H68       1.0  0.48324  0.4181200000000001  0.98309  1.0000
  H   H69       1.0  0.3539399999999999  0.3277500000000001  0.7288099999999997  1.0000
  H   H70       1.0  0.77287  0.014970000000000004  0.04611999999999999  1.0000
  H   H71       1.0  0.07301000000000003  0.65755  0.89269  1.0000
  H   H72       1.0  0.12864  0.20259000000000005  0.13903  1.0000
  H   H73       1.0  0.88149  0.051490000000000015  0.9476099999999997  1.0000
  H   H74       1.0  0.2111499999999999  0.23438  0.7654499999999997  1.0000
  H   H75       1.0  0.014870000000000003  0.16837000000000005  0.23604  1.0000
  H   H76       1.0  0.41213  0.7413100000000002  0.2974799999999999  1.0000
  H   H77       1.0  0.57291  0.84846  0.34685  1.0000
  H   H78       1.0  0.52994  0.9229700000000002  0.10353999999999997  1.0000
  H   H79       1.0  0.36325  0.82026  0.04328999999999999  1.0000
  H   H80       1.0  0.89342  0.5926900000000003  0.78535  1.0000
  C   C1        1.0  0.08045999999999993  0.4182500000000001  0.9837899999999998  1.0000
  C   C2        1.0  0.48093  0.5669  0.16497  1.0000
  C   C3        1.0  0.73279  0.72713  0.10435  1.0000
  C   C4        1.0  0.65511  0.67536  0.04280999999999999  1.0000
  C   C5        1.0  0.57101  0.62126  0.14608999999999994  1.0000
  C   C6        1.0  0.17768  0.45023  0.04703  1.0000
  C   C7        1.0  0.57603  0.6227500000000002  0.06426  1.0000
  C   C8        1.0  0.9883399999999998  0.8693400000000002  0.96304  1.0000
  C   C9        1.0  0.6489499999999999  0.6730300000000002  0.20745999999999995  1.0000
  C   C10       1.0  0.62755  0.22631000000000007  0.83419  1.0000
  C   C11       1.0  0.79651  0.29882  0.94087  1.0000
  C   C12       1.0  0.1497499999999998  0.9435300000000002  0.9340899999999998  1.0000
  C   C13       1.0  0.1828199999999999  0.9260900000000002  0.7950199999999997  1.0000
  C   C14       1.0  0.9966299999999999  0.37312  0.08912  1.0000
  C   C15       1.0  0.9496399999999999  0.83741  0.8808399999999997  1.0000
  C   C16       1.0  0.11407999999999992  0.90937  0.85286  1.0000
  C   C17       1.0  0.8354199999999999  0.79604  0.01247  1.0000
  C   C18       1.0  0.08853000000000001  0.9231500000000002  0.98894  1.0000
  C   C19       1.0  0.98691  0.3786400000000001  0.003779999999999999  1.0000
  C   C20       1.0  0.72911  0.7252400000000002  0.18679999999999994  1.0000
  C   C21       1.0  0.013440000000000025  0.8567800000000002  0.8274  1.0000
  C   C22       1.0  0.5656699999999998  0.21869000000000005  0.7473699999999998  1.0000
  C   C23       1.0  0.4753199999999998  0.16007  0.7196899999999998  1.0000
  C   C24       1.0  0.49981999999999993  0.11827000000000003  0.8559399999999998  1.0000
  C   C25       1.0  0.592  0.17494  0.88952  1.0000
  C   C26       1.0  0.09658  0.4081100000000001  0.14817  1.0000
  C   C27       1.0  0.08045999999999996  0.08176  0.4837899999999999  1.0000
  C   C28       1.0  0.4809299999999999  0.9331000000000003  0.6649699999999997  1.0000
  C   C29       1.0  0.73279  0.77288  0.6043499999999998  1.0000
  C   C30       1.0  0.65511  0.8246400000000003  0.54281  1.0000
  C   C31       1.0  0.57101  0.8787400000000002  0.64609  1.0000
  C   C32       1.0  0.17768  0.049770000000000016  0.54703  1.0000
  C   C33       1.0  0.57603  0.87725  0.56426  1.0000
  C   C34       1.0  0.9883399999999998  0.63066  0.46304  1.0000
  C   C35       1.0  0.64895  0.82697  0.70746  1.0000
  C   C36       1.0  0.6275499999999999  0.2736900000000001  0.3341899999999999  1.0000
  C   C37       1.0  0.79651  0.20118000000000005  0.44087  1.0000
  C   C38       1.0  0.1497499999999999  0.5564700000000002  0.43408999999999986  1.0000
  C   C39       1.0  0.18282  0.57391  0.29502  1.0000
  C   C40       1.0  0.9966299999999999  0.12689  0.58912  1.0000
  C   C41       1.0  0.94964  0.6625900000000002  0.3808399999999999  1.0000
  C   C42       1.0  0.11407999999999999  0.5906300000000002  0.35286  1.0000
  C   C43       1.0  0.8354199999999999  0.7039600000000003  0.5124699999999998  1.0000
  C   C44       1.0  0.08852999999999996  0.5768500000000002  0.48894  1.0000
  C   C45       1.0  0.98691  0.12136000000000002  0.50378  1.0000
  C   C46       1.0  0.72911  0.7747700000000002  0.6867999999999997  1.0000
  C   C47       1.0  0.013439999999999988  0.64322  0.3274  1.0000
  C   C48       1.0  0.56567  0.28132  0.24736999999999995  1.0000
  C   C49       1.0  0.47532  0.33993  0.21969  1.0000
  C   C50       1.0  0.49982  0.3817300000000001  0.35594  1.0000
  C   C51       1.0  0.592  0.32506  0.38952  1.0000
  C   C52       1.0  0.09657999999999987  0.09189000000000003  0.6481699999999998  1.0000
  C   C53       1.0  0.9195299999999998  0.91825  0.5162099999999997  1.0000
  C   C54       1.0  0.5190699999999999  0.0669  0.3350399999999999  1.0000
  C   C55       1.0  0.26720999999999995  0.22713000000000005  0.3956499999999999  1.0000
  C   C56       1.0  0.34487999999999996  0.17536000000000004  0.4571899999999999  1.0000
  C   C57       1.0  0.42899  0.12126000000000003  0.35391  1.0000
  C   C58       1.0  0.8223199999999999  0.9502300000000002  0.45297  1.0000
  C   C59       1.0  0.42397  0.12275000000000003  0.43574  1.0000
  C   C60       1.0  0.011659999999999998  0.36934  0.53696  1.0000
  C   C61       1.0  0.35105  0.17303  0.29254  1.0000
  C   C62       1.0  0.37245  0.7263200000000002  0.66581  1.0000
  C   C63       1.0  0.20348999999999998  0.79882  0.55913  1.0000
  C   C64       1.0  0.8502499999999998  0.44353  0.5659099999999998  1.0000
  C   C65       1.0  0.8171699999999997  0.42609000000000014  0.7049799999999998  1.0000
  C   C66       1.0  0.0033599999999999876  0.8731200000000002  0.41088  1.0000
  C   C67       1.0  0.0503599999999999  0.3374100000000001  0.6191599999999998  1.0000
  C   C68       1.0  0.8859199999999998  0.4093700000000001  0.64714  1.0000
  C   C69       1.0  0.16457999999999998  0.29604000000000014  0.4875299999999999  1.0000
  C   C70       1.0  0.91147  0.42315  0.51106  1.0000
  C   C71       1.0  0.013089999999999977  0.87865  0.49622  1.0000
  C   C72       1.0  0.27087999999999995  0.22524  0.31319999999999987  1.0000
  C   C73       1.0  0.98655  0.35678  0.6726  1.0000
  C   C74       1.0  0.4343299999999999  0.71869  0.7526299999999998  1.0000
  C   C75       1.0  0.5246799999999998  0.6600700000000003  0.7803099999999997  1.0000
  C   C76       1.0  0.50018  0.61827  0.64406  1.0000
  C   C77       1.0  0.40798999999999996  0.6749500000000003  0.61048  1.0000
  C   C78       1.0  0.90342  0.9081100000000002  0.3518299999999999  1.0000
  C   C79       1.0  0.9195299999999998  0.58176  0.01621  1.0000
  C   C80       1.0  0.5190699999999999  0.4331  0.8350399999999998  1.0000
  C   C81       1.0  0.26720999999999984  0.2728700000000001  0.8956499999999997  1.0000
  C   C82       1.0  0.34488  0.32464  0.95719  1.0000
  C   C83       1.0  0.42898999999999987  0.37874000000000013  0.8539099999999997  1.0000
  C   C84       1.0  0.8223199999999999  0.54977  0.9529699999999998  1.0000
  C   C85       1.0  0.42397  0.3772500000000001  0.93574  1.0000
  C   C86       1.0  0.01165999999999999  0.13066000000000005  0.036959999999999986  1.0000
  C   C87       1.0  0.35105  0.3269700000000001  0.79254  1.0000
  C   C88       1.0  0.37245  0.7736900000000002  0.16580999999999996  1.0000
  C   C89       1.0  0.20348999999999998  0.7011800000000002  0.05913  1.0000
  C   C90       1.0  0.8502399999999999  0.05647000000000001  0.06590999999999997  1.0000
  C   C91       1.0  0.8171699999999998  0.07391  0.20498  1.0000
  C   C92       1.0  0.0033699999999998913  0.62689  0.9108799999999998  1.0000
  C   C93       1.0  0.05036  0.16259  0.11916  1.0000
  C   C94       1.0  0.8859199999999998  0.09063  0.14714  1.0000
  C   C95       1.0  0.1645799999999999  0.20396  0.9875299999999998  1.0000
  C   C96       1.0  0.91147  0.07685  0.01106  1.0000
  C   C97       1.0  0.013089999999999977  0.62136  0.99622  1.0000
  C   C98       1.0  0.27087999999999995  0.2747600000000001  0.8131999999999998  1.0000
  C   C99       1.0  0.98655  0.14322  0.17259999999999995  1.0000
  C   C100      1.0  0.4343299999999999  0.78132  0.2526299999999999  1.0000
  C   C101      1.0  0.5246799999999998  0.83993  0.28031  1.0000
  C   C102      1.0  0.50018  0.8817400000000002  0.14406  1.0000
  C   C103      1.0  0.40798999999999996  0.8250600000000002  0.11048  1.0000
  C   C104      1.0  0.90342  0.59189  0.8518299999999998  1.0000
  N   N1        1.0  0.18677999999999997  0.44607000000000013  0.12905999999999995  1.0000
  N   N2        1.0  0.7211999999999997  0.28267  0.8593599999999998  1.0000
  N   N3        1.0  0.8913  0.34959  0.9378399999999998  1.0000
  N   N4        1.0  0.8181999999999999  0.78026  0.08869  1.0000
  N   N5        1.0  0.93287  0.8493800000000002  0.022269999999999995  1.0000
  N   N6        1.0  0.44212999999999997  0.10971000000000003  0.77258  1.0000
  N   N7        1.0  0.18678  0.05393000000000001  0.62906  1.0000
  N   N8        1.0  0.72119  0.21733  0.35936  1.0000
  N   N9        1.0  0.8913  0.15041  0.4378399999999999  1.0000
  N   N10       1.0  0.8181999999999999  0.71975  0.58869  1.0000
  N   N11       1.0  0.93287  0.6506300000000003  0.52227  1.0000
  N   N12       1.0  0.44212999999999997  0.39029  0.27258  1.0000
  N   N13       1.0  0.81322  0.9460700000000002  0.3709399999999999  1.0000
  N   N14       1.0  0.2788  0.78267  0.64065  1.0000
  N   N15       1.0  0.10869999999999988  0.8495900000000002  0.5621599999999998  1.0000
  N   N16       1.0  0.1817999999999999  0.2802600000000001  0.4113099999999999  1.0000
  N   N17       1.0  0.06712999999999995  0.34937  0.47773  1.0000
  N   N18       1.0  0.5578599999999998  0.6097100000000002  0.7274199999999997  1.0000
  N   N19       1.0  0.81322  0.5539400000000002  0.87094  1.0000
  N   N20       1.0  0.2788  0.7173300000000002  0.14065  1.0000
  N   N21       1.0  0.10869999999999999  0.65041  0.062159999999999986  1.0000
  N   N22       1.0  0.1818  0.21975  0.91131  1.0000
  N   N23       1.0  0.06713000000000001  0.15063000000000004  0.97773  1.0000
  N   N24       1.0  0.55786  0.8902900000000002  0.22742  1.0000
  O   O1        1.0  0.78329  0.2717  0.00527  1.0000
  O   O2        1.0  0.7725999999999998  0.76665  0.94468  1.0000
  O   O3        1.0  0.16532999999999992  0.8793600000000003  0.7310299999999997  1.0000
  O   O4        1.0  0.42932999999999993  0.5088900000000002  0.11497999999999997  1.0000
  O   O5        1.0  0.45597  0.58197  0.23301  1.0000
  O   O6        1.0  0.25743999999999984  0.98775  0.8133899999999997  1.0000
  O   O7        1.0  0.78329  0.2283  0.5052699999999998  1.0000
  O   O8        1.0  0.7725999999999998  0.7333500000000002  0.44468  1.0000
  O   O9        1.0  0.16533  0.62064  0.23103  1.0000
  O   O10       1.0  0.42932999999999993  0.99111  0.61498  1.0000
  O   O11       1.0  0.4559699999999998  0.9180300000000002  0.7330099999999998  1.0000
  O   O12       1.0  0.25744  0.51226  0.31339  1.0000
  O   O13       1.0  0.21670999999999999  0.7717  0.4947299999999999  1.0000
  O   O14       1.0  0.22738999999999995  0.26665  0.55532  1.0000
  O   O15       1.0  0.83467  0.37936  0.76897  1.0000
  O   O16       1.0  0.57067  0.00889  0.38502  1.0000
  O   O17       1.0  0.54403  0.08197000000000003  0.26699  1.0000
  O   O18       1.0  0.7425599999999999  0.48775000000000013  0.6866099999999998  1.0000
  O   O19       1.0  0.2167099999999999  0.7283000000000002  0.9947299999999998  1.0000
  O   O20       1.0  0.22738999999999995  0.23335  0.05531999999999999  1.0000
  O   O21       1.0  0.83467  0.12064  0.26897  1.0000
  O   O22       1.0  0.5706699999999999  0.4911100000000001  0.8850199999999998  1.0000
  O   O23       1.0  0.54403  0.4180300000000001  0.76699  1.0000
  O   O24       1.0  0.7425599999999999  0.012260000000000004  0.18661  1.0000
