data_image0
_chemical_formula_structural       La8H72C168S12O72
_chemical_formula_sum              "La8 H72 C168 S12 O72"
_cell_length_a       16.74936
_cell_length_b       19.32715
_cell_length_c       24.58179
_cell_angle_alpha    111.89352
_cell_angle_beta     89.9972
_cell_angle_gamma    90.0384

_space_group_name_H-M_alt    "P 1"
_space_group_IT_number       1

loop_
  _space_group_symop_operation_xyz
  'x, y, z'

loop_
  _atom_site_type_symbol
  _atom_site_label
  _atom_site_symmetry_multiplicity
  _atom_site_fract_x
  _atom_site_fract_y
  _atom_site_fract_z
  _atom_site_occupancy
  La  La1       1.0  0.50349  0.88891  0.97581  1.0000
  La  La2       1.0  0.5104  0.61092  0.01698  1.0000
  La  La3       1.0  0.0034  0.61129  0.52443  1.0000
  La  La4       1.0  0.010180000000000003  0.8888799999999999  0.48333  1.0000
  La  La5       1.0  0.49651000000000006  0.1111  0.02419  1.0000
  La  La6       1.0  0.48961000000000005  0.38905  0.983  1.0000
  La  La7       1.0  0.9966000000000002  0.38871  0.47557  1.0000
  La  La8       1.0  0.9898200000000001  0.11112  0.51666  1.0000
  H   H1        1.0  0.49809000000000003  0.53582  0.8456699999999998  1.0000
  H   H2        1.0  0.30606  0.08227  0.31799  1.0000
  H   H3        1.0  0.39515  0.03235000000000001  0.22698  1.0000
  H   H4        1.0  0.23501  0.15824000000000002  0.77072  1.0000
  H   H5        1.0  0.42239  0.46657999999999994  0.75466  1.0000
  H   H6        1.0  0.33351  0.4190999999999999  0.66323  1.0000
  H   H7        1.0  0.47347  0.9610799999999999  0.13765  1.0000
  H   H8        1.0  0.21293000000000006  0.10498999999999996  0.40155999999999986  1.0000
  H   H9        1.0  0.3411000000000001  0.8566600000000001  0.79186  1.0000
  H   H10       1.0  0.30531  0.13114  0.84244  1.0000
  H   H11       1.0  0.40825000000000006  0.74527  0.84644  1.0000
  H   H12       1.0  0.13757000000000005  0.92702  0.60949  1.0000
  H   H13       1.0  0.4107500000000001  0.75336  0.15369999999999998  1.0000
  H   H14       1.0  0.15418  0.1665  0.68943  1.0000
  H   H15       1.0  0.23628000000000005  0.39711  0.58183  1.0000
  H   H16       1.0  0.19616000000000003  0.8695099999999999  0.36419999999999997  1.0000
  H   H17       1.0  0.3822300000000001  0.08481000000000007  0.9078  1.0000
  H   H18       1.0  0.19177000000000005  0.6329799999999999  0.6377999999999999  1.0000
  H   H19       1.0  0.99887  0.9643300000000001  0.65491  1.0000
  H   H20       1.0  0.80595  0.41683  0.18186999999999995  1.0000
  H   H21       1.0  0.8952000000000002  0.46714  0.27346999999999994  1.0000
  H   H22       1.0  0.73633  0.34159  0.73006  1.0000
  H   H23       1.0  0.92313  0.03364000000000002  0.74585  1.0000
  H   H24       1.0  0.8338500000000001  0.08133999999999991  0.8370499999999997  1.0000
  H   H25       1.0  0.9731  0.53881  0.36297999999999997  1.0000
  H   H26       1.0  0.71185  0.39460999999999996  0.09890999999999997  1.0000
  H   H27       1.0  0.8409800000000001  0.6429899999999998  0.7078099999999999  1.0000
  H   H28       1.0  0.80478  0.36857  0.65754  1.0000
  H   H29       1.0  0.9056  0.75525  0.65278  1.0000
  H   H30       1.0  0.63689  0.5727699999999999  0.8901699999999999  1.0000
  H   H31       1.0  0.9132500000000001  0.74592  0.34508  1.0000
  H   H32       1.0  0.65507  0.33339  0.81117  1.0000
  H   H33       1.0  0.7371600000000003  0.10342000000000001  0.9187799999999999  1.0000
  H   H34       1.0  0.69784  0.6299  0.13538  1.0000
  H   H35       1.0  0.8816  0.41474  0.59198  1.0000
  H   H36       1.0  0.69067  0.8677499999999999  0.86205  1.0000
  H   H37       1.0  0.50191  0.4641700000000001  0.15432  1.0000
  H   H38       1.0  0.69394  0.9177299999999999  0.68201  1.0000
  H   H39       1.0  0.60486  0.96764  0.77302  1.0000
  H   H40       1.0  0.76499  0.8417600000000001  0.22928  1.0000
  H   H41       1.0  0.5776100000000002  0.53341  0.24534  1.0000
  H   H42       1.0  0.6664900000000001  0.5809  0.33677  1.0000
  H   H43       1.0  0.52653  0.03891000000000003  0.86234  1.0000
  H   H44       1.0  0.7870700000000003  0.89501  0.59844  1.0000
  H   H45       1.0  0.6589000000000003  0.14334  0.20814  1.0000
  H   H46       1.0  0.69469  0.86886  0.15756  1.0000
  H   H47       1.0  0.59176  0.25472  0.15356  1.0000
  H   H48       1.0  0.8624300000000003  0.07298000000000002  0.39051  1.0000
  H   H49       1.0  0.5892500000000003  0.24663999999999991  0.8462999999999998  1.0000
  H   H50       1.0  0.84582  0.8334999999999999  0.31057  1.0000
  H   H51       1.0  0.7637200000000001  0.60289  0.41816  1.0000
  H   H52       1.0  0.80384  0.13048999999999997  0.6357999999999999  1.0000
  H   H53       1.0  0.6177700000000003  0.91519  0.09219999999999999  1.0000
  H   H54       1.0  0.8082300000000002  0.36702  0.36219999999999997  1.0000
  H   H55       1.0  0.0011300000000000004  0.03567  0.34509  1.0000
  H   H56       1.0  0.19404  0.5831699999999999  0.8181299999999998  1.0000
  H   H57       1.0  0.10480000000000003  0.53286  0.7265299999999999  1.0000
  H   H58       1.0  0.26369  0.6584000000000001  0.26992  1.0000
  H   H59       1.0  0.07687  0.9663600000000001  0.25415  1.0000
  H   H60       1.0  0.16615000000000005  0.91866  0.16295  1.0000
  H   H61       1.0  0.02691  0.4611899999999999  0.6370199999999999  1.0000
  H   H62       1.0  0.28815  0.6053799999999999  0.9010899999999997  1.0000
  H   H63       1.0  0.15901  0.35702  0.29221  1.0000
  H   H64       1.0  0.19521000000000002  0.63143  0.34245999999999993  1.0000
  H   H65       1.0  0.09440000000000003  0.24473999999999996  0.3472199999999999  1.0000
  H   H66       1.0  0.36312  0.4272000000000001  0.10983999999999998  1.0000
  H   H67       1.0  0.08675  0.25408  0.65492  1.0000
  H   H68       1.0  0.34498  0.66658  0.18881999999999996  1.0000
  H   H69       1.0  0.26284  0.89658  0.08121999999999999  1.0000
  H   H70       1.0  0.30216  0.3700999999999998  0.8646199999999999  1.0000
  H   H71       1.0  0.1184  0.58526  0.40802  1.0000
  H   H72       1.0  0.30933  0.13224999999999998  0.13794999999999996  1.0000
  C   C1        1.0  0.5043800000000003  0.6875  0.9062699999999998  1.0000
  C   C2        1.0  0.4591  0.64455  0.85157  1.0000
  C   C3        1.0  0.46158  0.56617  0.82547  1.0000
  C   C4        1.0  0.35636  0.9330099999999999  0.24074  1.0000
  C   C5        1.0  0.2834  0.03537999999999999  0.32785  1.0000
  C   C6        1.0  0.44781  0.8534099999999999  0.14057  1.0000
  C   C7        1.0  0.39814  0.97178  0.21158999999999997  1.0000
  C   C8        1.0  0.21482  0.10757000000000001  0.73591  1.0000
  C   C9        1.0  0.4185900000000001  0.52712  0.77433  1.0000
  C   C10       1.0  0.27947  0.02007999999999997  0.7799399999999999  1.0000
  C   C11       1.0  0.30311  0.46604999999999996  0.65809  1.0000
  C   C12       1.0  0.14054000000000005  0.04842999999999997  0.64494  1.0000
  C   C13       1.0  0.20637  0.9731099999999999  0.68957  1.0000
  C   C14       1.0  0.4424000000000001  0.9317100000000001  0.16143999999999997  1.0000
  C   C15       1.0  0.30457  0.9618499999999999  0.29307999999999995  1.0000
  C   C16       1.0  0.23339  0.03704999999999998  0.73584  1.0000
  C   C17       1.0  0.36950000000000005  0.5665999999999999  0.7497599999999999  1.0000
  C   C18       1.0  0.23098  0.0483  0.37508  1.0000
  C   C19       1.0  0.33272  0.91622  0.8031099999999998  1.0000
  C   C20       1.0  0.20856  0.51308  0.60417  1.0000
  C   C21       1.0  0.31264  0.07150999999999996  0.83136  1.0000
  C   C22       1.0  0.41086  0.6846799999999998  0.8270099999999999  1.0000
  C   C23       1.0  0.15971  0.9770699999999999  0.6441299999999999  1.0000
  C   C24       1.0  0.40699  0.81394  0.16974  1.0000
  C   C25       1.0  0.3169600000000001  0.53909  0.69773  1.0000
  C   C26       1.0  0.19928  0.9890800000000001  0.38852  1.0000
  C   C27       1.0  0.3617  0.8544799999999999  0.21811  1.0000
  C   C28       1.0  0.3667800000000001  0.9686900000000002  0.8545099999999998  1.0000
  C   C29       1.0  0.16908  0.11245999999999996  0.6903199999999999  1.0000
  C   C30       1.0  0.13949  0.00015999999999995583  0.4361399999999999  1.0000
  C   C31       1.0  0.28937  0.9432100000000001  0.7669899999999998  1.0000
  C   C32       1.0  0.08885  0.05974999999999995  0.5997699999999999  1.0000
  C   C33       1.0  0.3664300000000001  0.6447499999999998  0.7780099999999998  1.0000
  C   C34       1.0  0.2753700000000001  0.59735  0.68878  1.0000
  C   C35       1.0  0.27217000000000013  0.90401  0.308  1.0000
  C   C36       1.0  0.14678000000000005  0.50163  0.55772  1.0000
  C   C37       1.0  0.24881000000000003  0.45362  0.61206  1.0000
  C   C38       1.0  0.22075  0.91552  0.35432  1.0000
  C   C39       1.0  0.3554900000000001  0.04536999999999989  0.8682199999999998  1.0000
  C   C40       1.0  0.41599000000000014  0.94392  0.8943799999999998  1.0000
  C   C41       1.0  0.22265  0.58647  0.64319  1.0000
  C   C42       1.0  0.49482  0.81041  0.08686999999999999  1.0000
  C   C43       1.0  0.00406  0.81261  0.5941499999999998  1.0000
  C   C44       1.0  0.9581100000000001  0.8558  0.64837  1.0000
  C   C45       1.0  0.96153  0.9341  0.6747399999999999  1.0000
  C   C46       1.0  0.85802  0.56616  0.25863  1.0000
  C   C47       1.0  0.78377  0.46384  0.17201  1.0000
  C   C48       1.0  0.9489700000000002  0.64613  0.3591  1.0000
  C   C49       1.0  0.89887  0.52764  0.28837999999999997  1.0000
  C   C50       1.0  0.7154  0.39226999999999995  0.7644699999999999  1.0000
  C   C51       1.0  0.9184800000000001  0.97318  0.72582  1.0000
  C   C52       1.0  0.7794300000000002  0.4796199999999999  0.7200299999999998  1.0000
  C   C53       1.0  0.80329  0.03441999999999993  0.8421699999999999  1.0000
  C   C54       1.0  0.64047  0.45137  0.85514  1.0000
  C   C55       1.0  0.7052  0.52668  0.80989  1.0000
  C   C56       1.0  0.94289  0.56791  0.33863999999999994  1.0000
  C   C57       1.0  0.80589  0.53727  0.20643  1.0000
  C   C58       1.0  0.7330600000000002  0.46274  0.76405  1.0000
  C   C59       1.0  0.86848  0.93387  0.74997  1.0000
  C   C60       1.0  0.73087  0.45112  0.12508  1.0000
  C   C61       1.0  0.8326900000000003  0.58344  0.6967499999999999  1.0000
  C   C62       1.0  0.70852  0.9875599999999998  0.8960699999999998  1.0000
  C   C63       1.0  0.8124  0.42816  0.66859  1.0000
  C   C64       1.0  0.90869  0.81583  0.67236  1.0000
  C   C65       1.0  0.65904  0.52272  0.85559  1.0000
  C   C66       1.0  0.90918  0.68537  0.32930999999999994  1.0000
  C   C67       1.0  0.81643  0.96141  0.80225  1.0000
  C   C68       1.0  0.69963  0.5104  0.11160999999999997  1.0000
  C   C69       1.0  0.86425  0.64463  0.28075999999999995  1.0000
  C   C70       1.0  0.86664  0.53093  0.64536  1.0000
  C   C71       1.0  0.6695900000000002  0.38739999999999997  0.8100399999999999  1.0000
  C   C72       1.0  0.63937  0.4998  0.06444  1.0000
  C   C73       1.0  0.7894200000000002  0.55646  0.73294  1.0000
  C   C74       1.0  0.58892  0.43964  0.90023  1.0000
  C   C75       1.0  0.86422  0.8558299999999999  0.72126  1.0000
  C   C76       1.0  0.77441  0.9032399999999999  0.8110699999999997  1.0000
  C   C77       1.0  0.7739400000000001  0.59511  0.19133  1.0000
  C   C78       1.0  0.6468000000000003  0.9991400000000001  0.94255  1.0000
  C   C79       1.0  0.7492500000000002  0.046930000000000076  0.88835  1.0000
  C   C80       1.0  0.72208  0.58384  0.14534  1.0000
  C   C81       1.0  0.85518  0.4542399999999999  0.63165  1.0000
  C   C82       1.0  0.9158800000000002  0.5557999999999998  0.6055299999999999  1.0000
  C   C83       1.0  0.7219000000000002  0.9141899999999998  0.85678  1.0000
  C   C84       1.0  0.99523  0.6894  0.41310999999999987  1.0000
  C   C85       1.0  0.49562000000000006  0.31248999999999993  0.09371999999999998  1.0000
  C   C86       1.0  0.5409  0.35544  0.14842  1.0000
  C   C87       1.0  0.53841  0.43382  0.17452  1.0000
  C   C88       1.0  0.64364  0.06697999999999994  0.7592599999999999  1.0000
  C   C89       1.0  0.7166  0.96461  0.67214  1.0000
  C   C90       1.0  0.55219  0.14657999999999993  0.8594299999999999  1.0000
  C   C91       1.0  0.6018600000000002  0.028210000000000006  0.78841  1.0000
  C   C92       1.0  0.7851800000000002  0.8924200000000001  0.26409  1.0000
  C   C93       1.0  0.5814100000000002  0.47287  0.22565999999999997  1.0000
  C   C94       1.0  0.72053  0.97992  0.22006  1.0000
  C   C95       1.0  0.69689  0.53395  0.34190999999999994  1.0000
  C   C96       1.0  0.85946  0.9515599999999999  0.35506  1.0000
  C   C97       1.0  0.79363  0.02688  0.31043  1.0000
  C   C98       1.0  0.5576  0.06828000000000001  0.83856  1.0000
  C   C99       1.0  0.69543  0.03814999999999998  0.70692  1.0000
  C   C100      1.0  0.7666100000000002  0.9629499999999999  0.26416  1.0000
  C   C101      1.0  0.6305  0.43339999999999995  0.25023  1.0000
  C   C102      1.0  0.7690200000000003  0.95169  0.62492  1.0000
  C   C103      1.0  0.66728  0.08377999999999998  0.19688999999999998  1.0000
  C   C104      1.0  0.79144  0.48692  0.39583  1.0000
  C   C105      1.0  0.68736  0.92849  0.16864  1.0000
  C   C106      1.0  0.58914  0.31532  0.17299  1.0000
  C   C107      1.0  0.8402900000000002  0.02292999999999997  0.35587  1.0000
  C   C108      1.0  0.59301  0.18605999999999995  0.8302599999999999  1.0000
  C   C109      1.0  0.68303  0.4609  0.3022699999999999  1.0000
  C   C110      1.0  0.80072  0.010919999999999949  0.6114799999999999  1.0000
  C   C111      1.0  0.6383  0.14550999999999994  0.7818899999999998  1.0000
  C   C112      1.0  0.6332200000000002  0.03130999999999999  0.14548999999999998  1.0000
  C   C113      1.0  0.83091  0.8875399999999999  0.30968  1.0000
  C   C114      1.0  0.8605100000000002  0.99983  0.56386  1.0000
  C   C115      1.0  0.71064  0.05678999999999997  0.23301  1.0000
  C   C116      1.0  0.9111500000000002  0.94024  0.40022  1.0000
  C   C117      1.0  0.63357  0.35525  0.22199  1.0000
  C   C118      1.0  0.72463  0.40265  0.31121  1.0000
  C   C119      1.0  0.7278400000000003  0.09598999999999996  0.6919899999999999  1.0000
  C   C120      1.0  0.85322  0.4983600000000001  0.44228  1.0000
  C   C121      1.0  0.7511900000000002  0.54638  0.38792999999999994  1.0000
  C   C122      1.0  0.7792400000000003  0.08446999999999998  0.6456699999999999  1.0000
  C   C123      1.0  0.64451  0.95463  0.13177999999999998  1.0000
  C   C124      1.0  0.5840100000000003  0.05606999999999999  0.10561999999999999  1.0000
  C   C125      1.0  0.77735  0.41353  0.3568  1.0000
  C   C126      1.0  0.50518  0.18957000000000002  0.91313  1.0000
  C   C127      1.0  0.9959400000000002  0.18739  0.40585  1.0000
  C   C128      1.0  0.04189  0.14419999999999994  0.3516299999999999  1.0000
  C   C129      1.0  0.03847  0.0659  0.32525999999999994  1.0000
  C   C130      1.0  0.14198  0.43383999999999995  0.7413699999999999  1.0000
  C   C131      1.0  0.21623  0.53617  0.82799  1.0000
  C   C132      1.0  0.05103  0.35385999999999995  0.6408999999999999  1.0000
  C   C133      1.0  0.10113  0.47236  0.71162  1.0000
  C   C134      1.0  0.28461  0.60772  0.23551  1.0000
  C   C135      1.0  0.08152  0.026819999999999993  0.27418  1.0000
  C   C136      1.0  0.22056  0.52038  0.27997  1.0000
  C   C137      1.0  0.19671000000000005  0.96558  0.15783  1.0000
  C   C138      1.0  0.35954000000000014  0.54858  0.14486  1.0000
  C   C139      1.0  0.29479  0.47331  0.19012  1.0000
  C   C140      1.0  0.057110000000000015  0.43209  0.66136  1.0000
  C   C141      1.0  0.19411  0.4627299999999999  0.7935799999999998  1.0000
  C   C142      1.0  0.2669400000000001  0.53726  0.23593999999999998  1.0000
  C   C143      1.0  0.13152  0.06611999999999997  0.25002  1.0000
  C   C144      1.0  0.26914  0.54888  0.87492  1.0000
  C   C145      1.0  0.16731  0.41657  0.30324999999999996  1.0000
  C   C146      1.0  0.29148  0.01244  0.10393  1.0000
  C   C147      1.0  0.18759  0.57184  0.3314  1.0000
  C   C148      1.0  0.09131000000000003  0.18416999999999997  0.32763999999999993  1.0000
  C   C149      1.0  0.34096  0.47724  0.14441999999999997  1.0000
  C   C150      1.0  0.09082  0.31463  0.67069  1.0000
  C   C151      1.0  0.18358  0.03858999999999999  0.19774999999999998  1.0000
  C   C152      1.0  0.30037  0.4895999999999999  0.8883799999999997  1.0000
  C   C153      1.0  0.13575  0.35537  0.71924  1.0000
  C   C154      1.0  0.13335000000000005  0.46906999999999993  0.35464  1.0000
  C   C155      1.0  0.33044  0.61257  0.18994  1.0000
  C   C156      1.0  0.36065  0.50019  0.93554  1.0000
  C   C157      1.0  0.21058  0.44354  0.26707  1.0000
  C   C158      1.0  0.41107  0.56025  0.09973999999999997  1.0000
  C   C159      1.0  0.13578000000000007  0.14417  0.27874  1.0000
  C   C160      1.0  0.22559000000000007  0.09675999999999998  0.18892999999999996  1.0000
  C   C161      1.0  0.22606000000000007  0.40487999999999996  0.8086699999999999  1.0000
  C   C162      1.0  0.3532  0.000859999999999998  0.05745  1.0000
  C   C163      1.0  0.25075000000000003  0.9530700000000001  0.11164999999999997  1.0000
  C   C164      1.0  0.27793  0.41616  0.85466  1.0000
  C   C165      1.0  0.14481000000000002  0.54576  0.36835  1.0000
  C   C166      1.0  0.08411  0.4442  0.39447  1.0000
  C   C167      1.0  0.2781000000000001  0.08581  0.14322  1.0000
  C   C168      1.0  0.00477  0.31059999999999993  0.58689  1.0000
  S   S1        1.0  0.23965000000000003  0.8899399999999998  0.6989  1.0000
  S   S2        1.0  0.30275  0.81504  0.25912999999999997  1.0000
  S   S3        1.0  0.29556  0.685  0.74509  1.0000
  S   S4        1.0  0.73823  0.60978  0.80025  1.0000
  S   S5        1.0  0.80599  0.6839099999999999  0.23939999999999997  1.0000
  S   S6        1.0  0.79265  0.8158699999999999  0.7539599999999999  1.0000
  S   S7        1.0  0.76035  0.11005999999999998  0.30110999999999993  1.0000
  S   S8        1.0  0.69725  0.18495999999999996  0.7408699999999999  1.0000
  S   S9        1.0  0.70444  0.315  0.2549  1.0000
  S   S10       1.0  0.26176  0.39021  0.19975999999999994  1.0000
  S   S11       1.0  0.19401  0.31609  0.7606  1.0000
  S   S12       1.0  0.20735000000000006  0.18412  0.24604  1.0000
  O   O1        1.0  0.51607  0.8436499999999999  0.053159999999999985  1.0000
  O   O2        1.0  0.53233  0.6524699999999999  0.9370099999999998  1.0000
  O   O3        1.0  0.42032  0.87514  0.88663  1.0000
  O   O4        1.0  0.51182  0.7576599999999999  0.9201099999999998  1.0000
  O   O5        1.0  0.11487000000000001  0.06598999999999992  0.4654699999999999  1.0000
  O   O6        1.0  0.51181  0.74248  0.07705  1.0000
  O   O7        1.0  0.07960000000000003  0.12561  0.60064  1.0000
  O   O8        1.0  0.22576000000000004  0.70888  0.78322  1.0000
  O   O9        1.0  0.23444000000000007  0.77447  0.22479999999999994  1.0000
  O   O10       1.0  0.05227  0.004230000000000021  0.56128  1.0000
  O   O11       1.0  0.33334  0.73656  0.72225  1.0000
  O   O12       1.0  0.11508000000000003  0.94125  0.44348999999999994  1.0000
  O   O13       1.0  0.17092  0.84999  0.70909  1.0000
  O   O14       1.0  0.12329  0.4358000000000001  0.52724  1.0000
  O   O15       1.0  0.35296  0.7779  0.28861999999999993  1.0000
  O   O16       1.0  0.29756  0.8510100000000002  0.65359  1.0000
  O   O17       1.0  0.45561  0.9931599999999999  0.9367799999999997  1.0000
  O   O18       1.0  0.11892000000000003  0.56108  0.55293  1.0000
  O   O19       1.0  0.01605  0.6563699999999998  0.44705999999999996  1.0000
  O   O20       1.0  0.0322  0.8471799999999999  0.5631  1.0000
  O   O21       1.0  0.92024  0.62463  0.61337  1.0000
  O   O22       1.0  0.011830000000000002  0.74265  0.58124  1.0000
  O   O23       1.0  0.6147200000000003  0.43412  0.03456  1.0000
  O   O24       1.0  0.011960000000000004  0.7574  0.42298  1.0000
  O   O25       1.0  0.5797100000000001  0.3736499999999999  0.8991199999999999  1.0000
  O   O26       1.0  0.72197  0.7942099999999997  0.7165199999999998  1.0000
  O   O27       1.0  0.73859  0.7256999999999999  0.27407999999999993  1.0000
  O   O28       1.0  0.55226  0.49478  0.93903  1.0000
  O   O29       1.0  0.82944  0.7626499999999999  0.7754999999999999  1.0000
  O   O30       1.0  0.61479  0.55922  0.05802  1.0000
  O   O31       1.0  0.67037  0.6492399999999999  0.7883899999999998  1.0000
  O   O32       1.0  0.6234700000000002  0.06503999999999996  0.9730099999999998  1.0000
  O   O33       1.0  0.85663  0.71944  0.20889999999999995  1.0000
  O   O34       1.0  0.7944100000000002  0.64938  0.84664  1.0000
  O   O35       1.0  0.9555800000000001  0.50672  0.56313  1.0000
  O   O36       1.0  0.61877  0.93977  0.94735  1.0000
  O   O37       1.0  0.48393  0.15633999999999995  0.9468399999999998  1.0000
  O   O38       1.0  0.46768000000000004  0.34752  0.06298  1.0000
  O   O39       1.0  0.57968  0.12485999999999998  0.11336999999999998  1.0000
  O   O40       1.0  0.48818  0.24234  0.07988999999999999  1.0000
  O   O41       1.0  0.88513  0.9339999999999999  0.53452  1.0000
  O   O42       1.0  0.48819000000000007  0.2575  0.92295  1.0000
  O   O43       1.0  0.9204000000000002  0.87438  0.39935  1.0000
  O   O44       1.0  0.7742400000000003  0.29112  0.21679  1.0000
  O   O45       1.0  0.76556  0.22553  0.7752  1.0000
  O   O46       1.0  0.9477300000000002  0.99576  0.4387099999999999  1.0000
  O   O47       1.0  0.66666  0.26344  0.27774  1.0000
  O   O48       1.0  0.88491  0.05874999999999995  0.55651  1.0000
  O   O49       1.0  0.82908  0.15  0.29092  1.0000
  O   O50       1.0  0.8767200000000003  0.5641999999999999  0.4727599999999999  1.0000
  O   O51       1.0  0.6470500000000002  0.22209999999999994  0.7113799999999999  1.0000
  O   O52       1.0  0.7024400000000002  0.14899  0.34641  1.0000
  O   O53       1.0  0.54439  0.006839999999999995  0.06322  1.0000
  O   O54       1.0  0.88108  0.43892  0.44707  1.0000
  O   O55       1.0  0.9839500000000001  0.34363  0.55294  1.0000
  O   O56       1.0  0.9678000000000001  0.15282  0.4369  1.0000
  O   O57       1.0  0.07976  0.37537  0.38664  1.0000
  O   O58       1.0  0.98817  0.25734999999999997  0.41875999999999997  1.0000
  O   O59       1.0  0.38529  0.5658699999999999  0.9654299999999998  1.0000
  O   O60       1.0  0.98804  0.24259999999999995  0.5770199999999999  1.0000
  O   O61       1.0  0.4202700000000001  0.62622  0.10082  1.0000
  O   O62       1.0  0.27803  0.20579  0.28348  1.0000
  O   O63       1.0  0.26142  0.2742999999999999  0.7259199999999998  1.0000
  O   O64       1.0  0.44773000000000013  0.50507  0.06097  1.0000
  O   O65       1.0  0.17056  0.23734999999999998  0.22449999999999998  1.0000
  O   O66       1.0  0.3852200000000001  0.4407699999999999  0.9419699999999998  1.0000
  O   O67       1.0  0.32963  0.35075  0.21161999999999997  1.0000
  O   O68       1.0  0.3765300000000001  0.9349600000000001  0.02699  1.0000
  O   O69       1.0  0.14337  0.28056  0.7911  1.0000
  O   O70       1.0  0.20559  0.35062  0.15336  1.0000
  O   O71       1.0  0.044420000000000015  0.49327  0.43687  1.0000
  O   O72       1.0  0.38123  0.06023  0.052649999999999995  1.0000
