data_image0
_chemical_formula_structural       Co4H112C80N32
_chemical_formula_sum              "Co4 H112 C80 N32"
_cell_length_a       18.25522
_cell_length_b       18.25436
_cell_length_c       18.192
_cell_angle_alpha    108.12325
_cell_angle_beta     108.37811
_cell_angle_gamma    112.35862

_symmetry_space_group_name_H-M    'P 1'
_symmetry_Int_Tables_number       1

loop_
  _symmetry_equiv_pos_as_xyz
  'x,y,z'

loop_
  _atom_site_type_symbol
  _atom_site_label
  _atom_site_symmetry_multiplicity
  _atom_site_fract_x
  _atom_site_fract_y
  _atom_site_fract_z
  _atom_site_occupancy
  Co  Co1       1.0  6.999999999997992e-05  0.50015  0.4999999999999999  1.0000
  Co  Co2       1.0  6e-05  2.9999999999999997e-05  0.0  1.0000
  Co  Co3       1.0  0.50008  7e-05  5e-05  1.0000
  Co  Co4       1.0  0.99996  0.9999699999999999  0.5000499999999999  1.0000
  H   H1        1.0  0.12495999999999999  0.58481  0.43203  1.0000
  H   H2        1.0  0.9532999999999998  0.5649099999999999  0.6352999999999998  1.0000
  H   H3        1.0  0.19103000000000003  0.68884  0.37045999999999996  1.0000
  H   H4        1.0  0.1684899999999999  0.7775099999999999  0.3847899999999999  1.0000
  H   H5        1.0  0.26793999999999996  0.7971299999999999  0.4676299999999999  1.0000
  H   H6        1.0  0.94184  0.6492899999999999  0.5457999999999997  1.0000
  H   H7        1.0  0.045279999999999904  0.7156599999999999  0.6491999999999998  1.0000
  H   H8        1.0  0.010809999999999938  0.7697399999999998  0.59136  1.0000
  H   H9        1.0  0.20218999999999995  0.5627499999999999  0.6187099999999998  1.0000
  H   H10       1.0  0.28552  0.65809  0.72865  1.0000
  H   H11       1.0  0.23688  0.67517  0.63878  1.0000
  H   H12       1.0  0.9778000000000001  0.6751599999999999  0.7922699999999998  1.0000
  H   H13       1.0  0.09446999999999998  0.74946  0.87553  1.0000
  H   H14       1.0  0.03159000000000001  0.63738  0.8577  1.0000
  H   H15       1.0  0.15035000000000004  0.19348000000000004  0.06356  1.0000
  H   H16       1.0  0.92284  0.8153899999999998  0.8624699999999997  1.0000
  H   H17       1.0  0.31892999999999994  0.3231099999999999  0.12966  1.0000
  H   H18       1.0  0.39369  0.2863599999999999  0.11686  1.0000
  H   H19       1.0  0.32937  0.30022  0.0323  1.0000
  H   H20       1.0  0.10408999999999988  0.8954599999999998  0.9559699999999998  1.0000
  H   H21       1.0  0.06765999999999994  0.8959199999999999  0.8531199999999998  1.0000
  H   H22       1.0  0.17961999999999984  0.9196399999999999  0.9117099999999998  1.0000
  H   H23       1.0  0.9456499999999999  0.08489000000000002  0.88261  1.0000
  H   H24       1.0  0.9298700000000001  0.05854999999999986  0.7727499999999998  1.0000
  H   H25       1.0  0.03732999999999999  0.09965  0.86167  1.0000
  H   H26       1.0  0.88121  0.6853299999999999  0.70659  1.0000
  H   H27       1.0  0.87262  0.71851  0.62362  1.0000
  H   H28       1.0  0.77801  0.67356  0.6405699999999998  1.0000
  H   H29       1.0  0.58831  0.14569  0.95165  1.0000
  H   H30       1.0  0.5597  0.92085  0.10638999999999997  1.0000
  H   H31       1.0  0.69294  0.31577  0.99167  1.0000
  H   H32       1.0  0.77721  0.39117  0.10568  1.0000
  H   H33       1.0  0.80217  0.32949  0.03137  1.0000
  H   H34       1.0  0.64858  0.10470999999999998  0.20811999999999997  1.0000
  H   H35       1.0  0.71377  0.06755999999999997  0.17083999999999994  1.0000
  H   H36       1.0  0.76906  0.18002999999999994  0.25966999999999996  1.0000
  H   H37       1.0  0.5629899999999998  0.9457199999999996  0.8588399999999998  1.0000
  H   H38       1.0  0.65688  0.9302299999999999  0.8704499999999997  1.0000
  H   H39       1.0  0.6765599999999999  0.03723999999999983  0.9379099999999998  1.0000
  H   H40       1.0  0.67389  0.88025  0.19455  1.0000
  H   H41       1.0  0.7486999999999999  0.8730999999999998  0.15332  1.0000
  H   H42       1.0  0.63675  0.7775699999999998  0.10208  1.0000
  H   H43       1.0  0.19379999999999992  0.12710999999999995  0.5432599999999997  1.0000
  H   H44       1.0  0.8144  0.95203  0.38701  1.0000
  H   H45       1.0  0.32341  0.19519000000000006  0.50507  1.0000
  H   H46       1.0  0.2834  0.16647999999999996  0.39143999999999995  1.0000
  H   H47       1.0  0.29956  0.26702  0.4680699999999999  1.0000
  H   H48       1.0  0.8938199999999998  0.9399699999999999  0.2896399999999999  1.0000
  H   H49       1.0  0.89578  0.04351999999999999  0.32806  1.0000
  H   H50       1.0  0.9190299999999999  0.009659999999999988  0.23950999999999995  1.0000
  H   H51       1.0  0.08423999999999998  0.20336  0.64104  1.0000
  H   H52       1.0  0.05798999999999999  0.28567999999999993  0.62828  1.0000
  H   H53       1.0  0.09908000000000002  0.23763000000000004  0.56306  1.0000
  H   H54       1.0  0.6831500000000001  0.9775900000000001  0.29975  1.0000
  H   H55       1.0  0.71804  0.09411  0.34332  1.0000
  H   H56       1.0  0.6733700000000001  0.031459999999999995  0.39268  1.0000
  H   H57       1.0  0.8753999999999998  0.41534999999999983  0.5683199999999998  1.0000
  H   H58       1.0  0.046819999999999994  0.43527  0.36461  1.0000
  H   H59       1.0  0.8089799999999999  0.3111699999999999  0.6295599999999998  1.0000
  H   H60       1.0  0.8315299999999999  0.2225199999999999  0.6152599999999999  1.0000
  H   H61       1.0  0.73211  0.2029  0.5324  1.0000
  H   H62       1.0  0.058119999999999915  0.3507199999999999  0.45417999999999986  1.0000
  H   H63       1.0  0.9547  0.2843399999999998  0.3508099999999999  1.0000
  H   H64       1.0  0.9891999999999999  0.23030999999999993  0.4086599999999999  1.0000
  H   H65       1.0  0.7978699999999999  0.43726  0.38132  1.0000
  H   H66       1.0  0.71457  0.34195999999999993  0.2714199999999999  1.0000
  H   H67       1.0  0.76316  0.32487999999999995  0.36127  1.0000
  H   H68       1.0  0.022209999999999994  0.3249  0.20776  1.0000
  H   H69       1.0  0.9055700000000001  0.25057  0.12448999999999998  1.0000
  H   H70       1.0  0.9683900000000001  0.36262  0.1423  1.0000
  H   H71       1.0  0.8496399999999997  0.8064799999999999  0.9364799999999998  1.0000
  H   H72       1.0  0.07716  0.1847  0.13756  1.0000
  H   H73       1.0  0.6810499999999998  0.6768799999999997  0.8703699999999998  1.0000
  H   H74       1.0  0.6062899999999999  0.71365  0.8831599999999997  1.0000
  H   H75       1.0  0.6705999999999998  0.6997899999999998  0.9677299999999998  1.0000
  H   H76       1.0  0.8959000000000001  0.1045  0.04398  1.0000
  H   H77       1.0  0.93232  0.10405999999999994  0.14684999999999995  1.0000
  H   H78       1.0  0.82036  0.08031999999999997  0.08822999999999998  1.0000
  H   H79       1.0  0.05435  0.91516  0.11735999999999998  1.0000
  H   H80       1.0  0.07017  0.94151  0.22724  1.0000
  H   H81       1.0  0.96269  0.90038  0.13834  1.0000
  H   H82       1.0  0.11882999999999999  0.3146999999999999  0.29345  1.0000
  H   H83       1.0  0.1273899999999999  0.2815199999999998  0.3764099999999999  1.0000
  H   H84       1.0  0.2219999999999999  0.3264599999999998  0.3594699999999999  1.0000
  H   H85       1.0  0.4117  0.85419  0.048399999999999985  1.0000
  H   H86       1.0  0.44028999999999996  0.07921999999999987  0.8934699999999998  1.0000
  H   H87       1.0  0.30703999999999987  0.6841399999999997  0.00832  1.0000
  H   H88       1.0  0.2227699999999999  0.6087699999999999  0.8942799999999999  1.0000
  H   H89       1.0  0.19779999999999984  0.6704499999999999  0.9686099999999997  1.0000
  H   H90       1.0  0.3515100000000001  0.89534  0.79201  1.0000
  H   H91       1.0  0.28622  0.93243  0.8292099999999999  1.0000
  H   H92       1.0  0.23100999999999983  0.8199499999999998  0.7403999999999997  1.0000
  H   H93       1.0  0.43704  0.05422999999999999  0.14101  1.0000
  H   H94       1.0  0.34321  0.06983  0.12951  1.0000
  H   H95       1.0  0.32341999999999993  0.9627699999999999  0.06200999999999999  1.0000
  H   H96       1.0  0.32614  0.11986000000000001  0.80545  1.0000
  H   H97       1.0  0.2512699999999999  0.1269199999999999  0.8466399999999997  1.0000
  H   H98       1.0  0.3632  0.22251  0.89794  1.0000
  H   H99       1.0  0.80622  0.8729099999999997  0.45676  1.0000
  H   H100      1.0  0.18554  0.04796999999999999  0.613  1.0000
  H   H101      1.0  0.6766199999999999  0.8048199999999998  0.4949399999999999  1.0000
  H   H102      1.0  0.71664  0.83354  0.60857  1.0000
  H   H103      1.0  0.7004699999999999  0.7329999999999998  0.53195  1.0000
  H   H104      1.0  0.10620999999999987  0.060069999999999873  0.7103499999999998  1.0000
  H   H105      1.0  0.10422999999999999  0.9564800000000001  0.6719099999999998  1.0000
  H   H106      1.0  0.08097999999999989  0.9903499999999998  0.7604899999999998  1.0000
  H   H107      1.0  0.91574  0.7966499999999999  0.3589199999999999  1.0000
  H   H108      1.0  0.94196  0.71427  0.37167  1.0000
  H   H109      1.0  0.90088  0.76237  0.4369299999999999  1.0000
  H   H110      1.0  0.31688  0.022450000000000043  0.70028  1.0000
  H   H111      1.0  0.28193999999999997  0.9058699999999998  0.65668  1.0000
  H   H112      1.0  0.32665999999999995  0.9685499999999999  0.60731  1.0000
  C   C1        1.0  0.061949999999999894  0.6953999999999999  0.5338499999999998  1.0000
  C   C2        1.0  0.10701999999999998  0.75583  0.50731  1.0000
  C   C3        1.0  0.14294999999999988  0.7157599999999998  0.4633499999999999  1.0000
  C   C4        1.0  0.19536999999999996  0.74611  0.41935  1.0000
  C   C5        1.0  0.012209999999999829  0.7080999999999996  0.5829399999999998  1.0000
  C   C6        1.0  0.18871999999999986  0.9284099999999997  0.57749  1.0000
  C   C7        1.0  0.11213999999999995  0.8413199999999998  0.5206  1.0000
  C   C8        1.0  0.14895999999999993  0.6238299999999999  0.6893499999999998  1.0000
  C   C9        1.0  0.22263999999999992  0.6302199999999999  0.6677699999999998  1.0000
  C   C10       1.0  0.04202999999999989  0.6784799999999997  0.8242899999999997  1.0000
  C   C11       1.0  0.16281999999999983  0.028499999999999828  0.9689199999999998  1.0000
  C   C12       1.0  0.24982999999999997  0.10067999999999994  0.99556  1.0000
  C   C13       1.0  0.25333  0.18073999999999998  0.03868999999999999  1.0000
  C   C14       1.0  0.32727  0.27769  0.08155  1.0000
  C   C15       1.0  0.12624999999999978  0.9292899999999997  0.9197399999999998  1.0000
  C   C16       1.0  0.3532099999999999  0.11408999999999986  0.9270899999999997  1.0000
  C   C17       1.0  0.3220999999999999  0.09304999999999987  0.9826099999999998  1.0000
  C   C18       1.0  0.93485  0.96047  0.8108199999999998  1.0000
  C   C19       1.0  0.9632899999999999  0.056149999999999985  0.8330999999999998  1.0000
  C   C20       1.0  0.8527899999999999  0.7175999999999998  0.67455  1.0000
  C   C21       1.0  0.69422  0.16198  0.13296999999999998  1.0000
  C   C22       1.0  0.7553699999999999  0.2484399999999999  0.14772999999999994  1.0000
  C   C23       1.0  0.7158  0.25117  0.07024999999999998  1.0000
  C   C24       1.0  0.74822  0.3252199999999999  0.048029999999999996  1.0000
  C   C25       1.0  0.7068000000000001  0.12627  0.19624  1.0000
  C   C26       1.0  0.92804  0.35226  0.23991999999999994  1.0000
  C   C27       1.0  0.84094  0.32122  0.22863999999999995  1.0000
  C   C28       1.0  0.6234  0.93458  0.9731  1.0000
  C   C29       1.0  0.63007  0.96329  0.90611  1.0000
  C   C30       1.0  0.6775599999999999  0.8522999999999997  0.13370999999999994  1.0000
  C   C31       1.0  0.027819999999999998  0.060279999999999986  0.36609  1.0000
  C   C32       1.0  0.09977  0.10619  0.35155  1.0000
  C   C33       1.0  0.18022999999999997  0.14245  0.42831999999999987  1.0000
  C   C34       1.0  0.2767299999999999  0.19564  0.44992999999999994  1.0000
  C   C35       1.0  0.92849  0.01047999999999992  0.3025299999999999  1.0000
  C   C36       1.0  0.11338999999999998  0.18787999999999996  0.26097  1.0000
  C   C37       1.0  0.09211999999999992  0.1114399999999999  0.27123999999999987  1.0000
  C   C38       1.0  0.9597899999999998  0.14886  0.52449  1.0000
  C   C39       1.0  0.05552999999999988  0.22297999999999987  0.5932599999999998  1.0000
  C   C40       1.0  0.71661  0.04172999999999999  0.36151  1.0000
  C   C41       1.0  0.93804  0.3046  0.46616  1.0000
  C   C42       1.0  0.8929800000000001  0.2441399999999999  0.49270999999999987  1.0000
  C   C43       1.0  0.85709  0.28427999999999987  0.53672  1.0000
  C   C44       1.0  0.8046699999999999  0.25391999999999987  0.5806899999999998  1.0000
  C   C45       1.0  0.9877699999999999  0.29191999999999996  0.4170899999999999  1.0000
  C   C46       1.0  0.81124  0.07158999999999996  0.42252  1.0000
  C   C47       1.0  0.88783  0.15870999999999993  0.4793999999999999  1.0000
  C   C48       1.0  0.8510400000000001  0.3761  0.31065999999999994  1.0000
  C   C49       1.0  0.7774599999999999  0.3698199999999998  0.3322799999999999  1.0000
  C   C50       1.0  0.9579700000000001  0.32155  0.17573  1.0000
  C   C51       1.0  0.8371899999999999  0.9714799999999999  0.031079999999999993  1.0000
  C   C52       1.0  0.75016  0.89934  0.00443  1.0000
  C   C53       1.0  0.7466599999999999  0.8192499999999998  0.9613399999999998  1.0000
  C   C54       1.0  0.6727099999999999  0.72231  0.9184699999999998  1.0000
  C   C55       1.0  0.87375  0.07068  0.08022999999999997  1.0000
  C   C56       1.0  0.64676  0.8859499999999998  0.07287  1.0000
  C   C57       1.0  0.6778999999999998  0.9069999999999999  0.01737  1.0000
  C   C58       1.0  0.06512  0.03956000000000001  0.18916  1.0000
  C   C59       1.0  0.03672000000000001  0.9439  0.16689  1.0000
  C   C60       1.0  0.14724000000000004  0.28243  0.32549  1.0000
  C   C61       1.0  0.30583000000000005  0.83806  0.86716  1.0000
  C   C62       1.0  0.24467  0.75155  0.85231  1.0000
  C   C63       1.0  0.2842099999999999  0.7488  0.9297899999999998  1.0000
  C   C64       1.0  0.25175  0.67469  0.95196  1.0000
  C   C65       1.0  0.29325  0.87375  0.80384  1.0000
  C   C66       1.0  0.07194999999999989  0.6477499999999999  0.7600099999999997  1.0000
  C   C67       1.0  0.1590299999999999  0.6787599999999999  0.7713299999999997  1.0000
  C   C68       1.0  0.37654  0.06535  0.02676  1.0000
  C   C69       1.0  0.36994  0.036699999999999997  0.09379999999999997  1.0000
  C   C70       1.0  0.32242  0.14777  0.86626  1.0000
  C   C71       1.0  0.9721999999999997  0.9397399999999999  0.6339199999999998  1.0000
  C   C72       1.0  0.90025  0.89382  0.64845  1.0000
  C   C73       1.0  0.81979  0.85756  0.57169  1.0000
  C   C74       1.0  0.7233200000000001  0.8043799999999997  0.55007  1.0000
  C   C75       1.0  0.07153999999999996  0.98954  0.69746  1.0000
  C   C76       1.0  0.8866299999999999  0.81216  0.7390599999999998  1.0000
  C   C77       1.0  0.9079099999999997  0.8886  0.7287799999999998  1.0000
  C   C78       1.0  0.040209999999999975  0.85118  0.47548999999999997  1.0000
  C   C79       1.0  0.9443999999999999  0.77696  0.40667  1.0000
  C   C80       1.0  0.28343999999999986  0.9582899999999999  0.6385199999999998  1.0000
  N   N1        1.0  0.06867999999999999  0.62119  0.5076  1.0000
  N   N2        1.0  0.12049999999999991  0.6368499999999999  0.4668299999999999  1.0000
  N   N3        1.0  0.06914999999999996  0.9397699999999999  0.50203  1.0000
  N   N4        1.0  0.16358999999999999  0.9874199999999999  0.5616  1.0000
  N   N5        1.0  0.11438999999999992  0.06129999999999992  0.9940799999999997  1.0000
  N   N6        1.0  0.17115000000000002  0.1541  0.03552999999999999  1.0000
  N   N7        1.0  0.43901  0.06857  0.0008499999999999997  1.0000
  N   N8        1.0  0.4277  0.10469999999999999  0.94317  1.0000
  N   N9        1.0  0.61998  0.11303999999999995  0.05086  1.0000
  N   N10       1.0  0.63552  0.16914  0.014379999999999997  1.0000
  N   N11       1.0  0.9398999999999997  0.43899  0.3710699999999999  1.0000
  N   N12       1.0  0.9874900000000001  0.4275799999999999  0.32482  1.0000
  N   N13       1.0  0.061179999999999936  0.06714999999999996  0.4475499999999999  1.0000
  N   N14       1.0  0.15424999999999994  0.11894999999999997  0.4842899999999999  1.0000
  N   N15       1.0  0.06877999999999995  0.06846999999999998  0.12960999999999995  1.0000
  N   N16       1.0  0.10494000000000002  0.16257999999999997  0.17695  1.0000
  N   N17       1.0  0.93125  0.37876999999999994  0.49237  1.0000
  N   N18       1.0  0.87946  0.36314999999999986  0.5331799999999998  1.0000
  N   N19       1.0  0.9307700000000001  0.06016999999999993  0.4977699999999999  1.0000
  N   N20       1.0  0.8365  0.0127  0.4383  1.0000
  N   N21       1.0  0.88564  0.93866  0.005979999999999998  1.0000
  N   N22       1.0  0.82886  0.84587  0.9645499999999998  1.0000
  N   N23       1.0  0.5607699999999999  0.9311999999999997  0.9988399999999998  1.0000
  N   N24       1.0  0.57209  0.8951  0.056599999999999984  1.0000
  N   N25       1.0  0.3799899999999998  0.8869899999999997  0.9492999999999998  1.0000
  N   N26       1.0  0.36441999999999997  0.8308599999999999  0.9857399999999997  1.0000
  N   N27       1.0  0.06019999999999998  0.56084  0.62897  1.0000
  N   N28       1.0  0.012399999999999979  0.57222  0.67514  1.0000
  N   N29       1.0  0.9388500000000001  0.9329399999999997  0.5524799999999997  1.0000
  N   N30       1.0  0.8457799999999999  0.8810999999999996  0.51574  1.0000
  N   N31       1.0  0.9310800000000001  0.9315799999999999  0.87038  1.0000
  N   N32       1.0  0.8949299999999997  0.8374099999999997  0.8230499999999997  1.0000
