data_image0
_chemical_formula_structural       Zn4H88C156N4O16
_chemical_formula_sum              "Zn4 H88 C156 N4 O16"
_cell_length_a       15.35859
_cell_length_b       15.41324
_cell_length_c       23.74869
_cell_angle_alpha    108.86777
_cell_angle_beta     94.0401
_cell_angle_gamma    90.01363

_space_group_name_H-M_alt    "P 1"
_space_group_IT_number       1

loop_
  _space_group_symop_operation_xyz
  'x, y, z'

loop_
  _atom_site_type_symbol
  _atom_site_label
  _atom_site_symmetry_multiplicity
  _atom_site_fract_x
  _atom_site_fract_y
  _atom_site_fract_z
  _atom_site_occupancy
  Zn  Zn1       1.0  0.00545  0.5310399999999997  0.56232  1.0000
  Zn  Zn2       1.0  0.49535  0.9683499999999999  0.43694  1.0000
  Zn  Zn3       1.0  0.99455  0.46895999999999993  0.43769000000000013  1.0000
  Zn  Zn4       1.0  0.50465  0.03166000000000012  0.5630600000000001  1.0000
  H   H1        1.0  0.55052  0.2649299999999999  0.59017  1.0000
  H   H2        1.0  0.0018099999999999959  0.11048999999999995  0.49229  1.0000
  H   H3        1.0  0.7309099999999998  0.03407000000000003  0.4873700000000001  1.0000
  H   H4        1.0  0.5354  0.18033999999999997  0.39513000000000004  1.0000
  H   H5        1.0  0.8865999999999999  0.99291  0.48751  1.0000
  H   H6        1.0  0.7623  0.41694  0.40692  1.0000
  H   H7        1.0  0.6408999999999999  0.3833099999999999  0.32785  1.0000
  H   H8        1.0  0.52728  0.2642599999999999  0.32172  1.0000
  H   H9        1.0  0.7830299999999999  0.4957799999999999  0.60197  1.0000
  H   H10       1.0  0.14857  0.4828399999999999  0.63433  1.0000
  H   H11       1.0  0.9596299999999998  0.2677599999999999  0.49756  1.0000
  H   H12       1.0  0.67463  0.52907  0.6784  1.0000
  H   H13       1.0  0.21645  0.53938  0.7389600000000001  1.0000
  H   H14       1.0  0.55776  0.41299  0.67212  1.0000
  H   H15       1.0  0.99566  0.7169300000000001  0.7852200000000003  1.0000
  H   H16       1.0  0.93945  0.65523  0.67791  1.0000
  H   H17       1.0  0.18908  0.86877  0.89393  1.0000
  H   H18       1.0  0.3252299999999999  0.59965  0.86344  1.0000
  H   H19       1.0  0.46756  0.54008  0.89154  1.0000
  H   H20       1.0  0.52735  0.5908499999999998  0.9973000000000002  1.0000
  H   H21       1.0  0.21976  0.0356600000000001  0.9471100000000002  1.0000
  H   H22       1.0  0.05400000000000001  0.6276  0.92441  1.0000
  H   H23       1.0  0.9492399999999999  0.67588  0.40956000000000004  1.0000
  H   H24       1.0  0.4983  0.61809  0.5078  1.0000
  H   H25       1.0  0.76927  0.54667  0.51244  1.0000
  H   H26       1.0  0.96469  0.7845199999999998  0.60472  1.0000
  H   H27       1.0  0.6136099999999998  0.50539  0.51255  1.0000
  H   H28       1.0  0.7383399999999998  0.009709999999999958  0.59283  1.0000
  H   H29       1.0  0.8597  0.05478000000000003  0.6719  1.0000
  H   H30       1.0  0.9729399999999998  0.9415399999999998  0.67821  1.0000
  H   H31       1.0  0.71598  0.8940800000000001  0.3978500000000001  1.0000
  H   H32       1.0  0.35155  0.8491499999999997  0.36577  1.0000
  H   H33       1.0  0.54047  0.7701700000000001  0.50256  1.0000
  H   H34       1.0  0.82423  0.8514699999999998  0.3213  1.0000
  H   H35       1.0  0.28355  0.80071  0.26108  1.0000
  H   H36       1.0  0.94166  0.7422699999999998  0.32766000000000006  1.0000
  H   H37       1.0  0.50434  0.93138  0.21418  1.0000
  H   H38       1.0  0.5608  0.9772699999999997  0.32152  1.0000
  H   H39       1.0  0.31108  0.97452  0.10592000000000001  1.0000
  H   H40       1.0  0.17479  0.73595  0.13658000000000003  1.0000
  H   H41       1.0  0.03248  0.6483299999999997  0.10853  1.0000
  H   H42       1.0  0.9726899999999998  0.59353  0.00277  1.0000
  H   H43       1.0  0.28031  0.08834  0.05269000000000001  1.0000
  H   H44       1.0  0.44607  0.7030999999999997  0.07559  1.0000
  H   H45       1.0  0.4494799999999999  0.7350699999999998  0.40983  1.0000
  H   H46       1.0  0.99819  0.8895199999999999  0.50771  1.0000
  H   H47       1.0  0.2691  0.96593  0.51263  1.0000
  H   H48       1.0  0.46461  0.81966  0.60488  1.0000
  H   H49       1.0  0.11340000000000001  0.007090000000000057  0.5124900000000001  1.0000
  H   H50       1.0  0.23771  0.58306  0.59308  1.0000
  H   H51       1.0  0.3591  0.61669  0.67215  1.0000
  H   H52       1.0  0.47273  0.73574  0.67828  1.0000
  H   H53       1.0  0.21697000000000002  0.50422  0.39803000000000005  1.0000
  H   H54       1.0  0.85144  0.51716  0.36567000000000005  1.0000
  H   H55       1.0  0.04038  0.73224  0.50244  1.0000
  H   H56       1.0  0.32538  0.47093  0.3216  1.0000
  H   H57       1.0  0.78356  0.4606299999999999  0.26105000000000006  1.0000
  H   H58       1.0  0.44225  0.5870099999999999  0.32789000000000007  1.0000
  H   H59       1.0  0.0043399999999999975  0.28307  0.21479  1.0000
  H   H60       1.0  0.06055000000000001  0.3447699999999999  0.32209000000000004  1.0000
  H   H61       1.0  0.81092  0.13123  0.10608000000000001  1.0000
  H   H62       1.0  0.67478  0.40035  0.13657  1.0000
  H   H63       1.0  0.5324499999999998  0.45992000000000005  0.10846000000000001  1.0000
  H   H64       1.0  0.4726599999999999  0.4091499999999999  0.00271  1.0000
  H   H65       1.0  0.78024  0.9643399999999998  0.05289  1.0000
  H   H66       1.0  0.94601  0.3723999999999999  0.07559  1.0000
  H   H67       1.0  0.05077000000000001  0.3241200000000001  0.5904400000000001  1.0000
  H   H68       1.0  0.5017  0.3819099999999999  0.4922  1.0000
  H   H69       1.0  0.23074  0.45334  0.48756  1.0000
  H   H70       1.0  0.03531  0.21548  0.39528  1.0000
  H   H71       1.0  0.3864  0.49461000000000005  0.48745000000000005  1.0000
  H   H72       1.0  0.26167  0.9902899999999998  0.40717  1.0000
  H   H73       1.0  0.14029999999999995  0.94523  0.3281  1.0000
  H   H74       1.0  0.027059999999999994  0.058460000000000005  0.32179  1.0000
  H   H75       1.0  0.28401999999999994  0.10593000000000005  0.60215  1.0000
  H   H76       1.0  0.64845  0.15084999999999996  0.63423  1.0000
  H   H77       1.0  0.45954  0.22982999999999998  0.49744  1.0000
  H   H78       1.0  0.17576999999999995  0.14853  0.67871  1.0000
  H   H79       1.0  0.71646  0.19929  0.73893  1.0000
  H   H80       1.0  0.05834999999999998  0.2577299999999999  0.67234  1.0000
  H   H81       1.0  0.49567000000000005  0.06862000000000013  0.7858200000000002  1.0000
  H   H82       1.0  0.43921  0.022729999999999972  0.67848  1.0000
  H   H83       1.0  0.68892  0.025480000000000082  0.8940900000000002  1.0000
  H   H84       1.0  0.8252199999999997  0.26404999999999995  0.86342  1.0000
  H   H85       1.0  0.96753  0.3516700000000001  0.8914700000000002  1.0000
  H   H86       1.0  0.027320000000000007  0.40647000000000005  0.9972300000000001  1.0000
  H   H87       1.0  0.71969  0.91166  0.94732  1.0000
  H   H88       1.0  0.55393  0.29690000000000005  0.92441  1.0000
  C   C1        1.0  0.65369  0.2502799999999999  0.44178  1.0000
  C   C2        1.0  0.7574499999999998  0.17411  0.49317  1.0000
  C   C3        1.0  0.6640199999999998  0.21006999999999998  0.49348  1.0000
  C   C4        1.0  0.7857099999999999  0.33436  0.49928  1.0000
  C   C5        1.0  0.82194  0.23987999999999998  0.4960300000000001  1.0000
  C   C6        1.0  0.7285  0.36192  0.55298  1.0000
  C   C7        1.0  0.66297  0.2958099999999999  0.54976  1.0000
  C   C8        1.0  0.6018399999999999  0.31471  0.5928  1.0000
  C   C9        1.0  0.7183499999999998  0.31713999999999987  0.44509000000000004  1.0000
  C   C10       1.0  0.9332  0.12787  0.49281  1.0000
  C   C11       1.0  0.7808  0.08545  0.49013  1.0000
  C   C12       1.0  0.58533  0.23130999999999993  0.39726  1.0000
  C   C13       1.0  0.86897  0.06233000000000004  0.49002000000000007  1.0000
  C   C14       1.0  0.71324  0.36483  0.40405  1.0000
  C   C15       1.0  0.64464  0.34543999999999997  0.35943000000000014  1.0000
  C   C16       1.0  0.86343  0.3981999999999999  0.50129  1.0000
  C   C17       1.0  0.60164  0.13087  0.49031  1.0000
  C   C18       1.0  0.58114  0.2788799999999999  0.35595  1.0000
  C   C19       1.0  0.73256  0.4453  0.59955  1.0000
  C   C20       1.0  0.11788000000000001  0.53514  0.66938  1.0000
  C   C21       1.0  0.90966  0.21688  0.49571  1.0000
  C   C22       1.0  0.67139  0.4634999999999998  0.64268  1.0000
  C   C23       1.0  0.15474  0.56649  0.72764  1.0000
  C   C24       1.0  0.60625  0.39865  0.63926  1.0000
  C   C25       1.0  0.031860000000000006  0.6654799999999998  0.7533500000000001  1.0000
  C   C26       1.0  0.99992  0.63108  0.69391  1.0000
  C   C27       1.0  0.14815  0.66697  0.83137  1.0000
  C   C28       1.0  0.18101  0.6937  0.8823900000000002  1.0000
  C   C29       1.0  0.21765  0.72467  0.94383  1.0000
  C   C30       1.0  0.30685  0.68333  0.95347  1.0000
  C   C31       1.0  0.15892  0.6996199999999998  0.9868600000000001  1.0000
  C   C32       1.0  0.11172  0.6335799999999998  0.77139  1.0000
  C   C33       1.0  0.21565  0.8925099999999999  0.9401500000000002  1.0000
  C   C34       1.0  0.35215  0.62164  0.9095700000000001  1.0000
  C   C35       1.0  0.4319299999999999  0.5884799999999999  0.92563  1.0000
  C   C36       1.0  0.46568999999999994  0.61726  0.9850800000000001  1.0000
  C   C37       1.0  0.23294999999999993  0.98606  0.97025  1.0000
  C   C38       1.0  0.07975000000000002  0.6508599999999999  0.9708200000000001  1.0000
  C   C39       1.0  0.23272999999999994  0.82958  0.9701500000000001  1.0000
  C   C40       1.0  0.84651  0.80818  0.55805  1.0000
  C   C41       1.0  0.74259  0.68098  0.50666  1.0000
  C   C42       1.0  0.83604  0.71677  0.50621  1.0000
  C   C43       1.0  0.7143899999999997  0.83526  0.50079  1.0000
  C   C44       1.0  0.67815  0.74398  0.5039900000000002  1.0000
  C   C45       1.0  0.77111  0.8093399999999997  0.44687  1.0000
  C   C46       1.0  0.83676  0.74658  0.45001000000000013  1.0000
  C   C47       1.0  0.8978299999999998  0.72288  0.40695  1.0000
  C   C48       1.0  0.78194  0.8718  0.55487  1.0000
  C   C49       1.0  0.56691  0.63507  0.50731  1.0000
  C   C50       1.0  0.7193099999999998  0.59531  0.50975  1.0000
  C   C51       1.0  0.91482  0.8333799999999999  0.6026  1.0000
  C   C52       1.0  0.63115  0.57229  0.50998  1.0000
  C   C53       1.0  0.7872899999999997  0.9604399999999997  0.5957900000000002  1.0000
  C   C54       1.0  0.85583  0.98537  0.64043  1.0000
  C   C55       1.0  0.6365599999999999  0.89695  0.4991100000000001  1.0000
  C   C56       1.0  0.89838  0.6408599999999998  0.50934  1.0000
  C   C57       1.0  0.91916  0.92212  0.6439200000000002  1.0000
  C   C58       1.0  0.76671  0.8462799999999998  0.4002900000000001  1.0000
  C   C59       1.0  0.38222999999999996  0.86606  0.33054  1.0000
  C   C60       1.0  0.59046  0.7212  0.5044  1.0000
  C   C61       1.0  0.82775  0.82163  0.35707000000000005  1.0000
  C   C62       1.0  0.34529999999999994  0.83903  0.27231  1.0000
  C   C63       1.0  0.8931700000000001  0.7605299999999998  0.36052000000000006  1.0000
  C   C64       1.0  0.46825  0.91199  0.24622  1.0000
  C   C65       1.0  0.50031  0.9371299999999998  0.30563  1.0000
  C   C66       1.0  0.35189  0.83534  0.16848  1.0000
  C   C67       1.0  0.3189899999999999  0.8110399999999998  0.11748000000000001  1.0000
  C   C68       1.0  0.28234  0.7806799999999998  0.05608  1.0000
  C   C69       1.0  0.19314999999999993  0.7297599999999997  0.04651000000000001  1.0000
  C   C70       1.0  0.34111  0.7127599999999997  0.013120000000000001  1.0000
  C   C71       1.0  0.38837  0.8620899999999998  0.22841  1.0000
  C   C72       1.0  0.28443  0.95213  0.0597  1.0000
  C   C73       1.0  0.14788  0.7118800000000001  0.09045000000000002  1.0000
  C   C74       1.0  0.06809  0.66272  0.07442  1.0000
  C   C75       1.0  0.034349999999999985  0.6321099999999997  0.014970000000000002  1.0000
  C   C76       1.0  0.2671199999999999  0.01567  0.0296  1.0000
  C   C77       1.0  0.42026  0.6800199999999997  0.02919  1.0000
  C   C78       1.0  0.26729  0.85931  0.02971  1.0000
  C   C79       1.0  0.34631  0.74972  0.55823  1.0000
  C   C80       1.0  0.24255  0.82589  0.50683  1.0000
  C   C81       1.0  0.33599  0.78993  0.50653  1.0000
  C   C82       1.0  0.2143  0.66564  0.50072  1.0000
  C   C83       1.0  0.17807  0.7601199999999998  0.50397  1.0000
  C   C84       1.0  0.27151  0.63808  0.44702  1.0000
  C   C85       1.0  0.33704  0.70419  0.45024000000000003  1.0000
  C   C86       1.0  0.39816  0.68529  0.4072  1.0000
  C   C87       1.0  0.28166  0.68286  0.55491  1.0000
  C   C88       1.0  0.0668  0.87213  0.50719  1.0000
  C   C89       1.0  0.21919999999999995  0.9145499999999998  0.50988  1.0000
  C   C90       1.0  0.41468  0.76869  0.60274  1.0000
  C   C91       1.0  0.13104  0.93767  0.50998  1.0000
  C   C92       1.0  0.28676  0.63517  0.59595  1.0000
  C   C93       1.0  0.3553599999999998  0.6545599999999998  0.64057  1.0000
  C   C94       1.0  0.13658000000000003  0.6018000000000001  0.49871000000000004  1.0000
  C   C95       1.0  0.39836  0.86913  0.50969  1.0000
  C   C96       1.0  0.4188699999999999  0.72113  0.64405  1.0000
  C   C97       1.0  0.26745  0.5547  0.40046  1.0000
  C   C98       1.0  0.88213  0.46486  0.33062  1.0000
  C   C99       1.0  0.09034000000000002  0.7831299999999999  0.5042900000000001  1.0000
  C   C100      1.0  0.32862  0.5364999999999998  0.3573200000000001  1.0000
  C   C101      1.0  0.84526  0.43350999999999995  0.27237  1.0000
  C   C102      1.0  0.3937499999999999  0.6013499999999999  0.36074  1.0000
  C   C103      1.0  0.9681399999999999  0.3345199999999999  0.24665  1.0000
  C   C104      1.0  8.999999999999976e-05  0.36892  0.30609  1.0000
  C   C105      1.0  0.85185  0.33304  0.16864  1.0000
  C   C106      1.0  0.81899  0.3062999999999999  0.11761000000000002  1.0000
  C   C107      1.0  0.78235  0.27533  0.056170000000000005  1.0000
  C   C108      1.0  0.69315  0.31667  0.04653  1.0000
  C   C109      1.0  0.84109  0.30038  0.013140000000000002  1.0000
  C   C110      1.0  0.88829  0.3664199999999999  0.22861  1.0000
  C   C111      1.0  0.78436  0.10748999999999997  0.059850000000000014  1.0000
  C   C112      1.0  0.64785  0.37836  0.09043  1.0000
  C   C113      1.0  0.56808  0.41152  0.07437  1.0000
  C   C114      1.0  0.53432  0.38274  0.014930000000000002  1.0000
  C   C115      1.0  0.7670499999999998  0.013939999999999996  0.02975  1.0000
  C   C116      1.0  0.92026  0.3491399999999999  0.02918  1.0000
  C   C117      1.0  0.76727  0.17042  0.029860000000000005  1.0000
  C   C118      1.0  0.15349  0.19182000000000005  0.44196000000000013  1.0000
  C   C119      1.0  0.25742  0.31902  0.49334000000000006  1.0000
  C   C120      1.0  0.16396999999999998  0.28323  0.49379  1.0000
  C   C121      1.0  0.28561  0.16474000000000003  0.49921  1.0000
  C   C122      1.0  0.3218499999999999  0.25602  0.49601  1.0000
  C   C123      1.0  0.22890000000000002  0.19066  0.55313  1.0000
  C   C124      1.0  0.16323999999999997  0.25343  0.54999  1.0000
  C   C125      1.0  0.10217  0.27712  0.59305  1.0000
  C   C126      1.0  0.21807  0.12819999999999995  0.44514  1.0000
  C   C127      1.0  0.4330999999999999  0.36493  0.49269  1.0000
  C   C128      1.0  0.28069  0.4047  0.49025  1.0000
  C   C129      1.0  0.08519  0.16662  0.39741  1.0000
  C   C130      1.0  0.36885  0.42771000000000003  0.49002000000000007  1.0000
  C   C131      1.0  0.21271999999999996  0.03956  0.40421  1.0000
  C   C132      1.0  0.14416999999999994  0.014639999999999978  0.35958  1.0000
  C   C133      1.0  0.36344  0.10304999999999996  0.5009  1.0000
  C   C134      1.0  0.10163000000000001  0.35914  0.4906600000000001  1.0000
  C   C135      1.0  0.08085  0.07787999999999998  0.35608  1.0000
  C   C136      1.0  0.2333  0.15372  0.59972  1.0000
  C   C137      1.0  0.61777  0.13394  0.66946  1.0000
  C   C138      1.0  0.40954  0.2788  0.49561  1.0000
  C   C139      1.0  0.17225  0.17836999999999995  0.64293  1.0000
  C   C140      1.0  0.6547  0.16097000000000006  0.7277  1.0000
  C   C141      1.0  0.10683999999999999  0.2394799999999999  0.63948  1.0000
  C   C142      1.0  0.53176  0.08801999999999993  0.75378  1.0000
  C   C143      1.0  0.49969  0.06287  0.69438  1.0000
  C   C144      1.0  0.64811  0.16467000000000007  0.8315200000000003  1.0000
  C   C145      1.0  0.68102  0.18895999999999988  0.88252  1.0000
  C   C146      1.0  0.71767  0.21932  0.9439200000000001  1.0000
  C   C147      1.0  0.80685  0.2702399999999998  0.9535000000000001  1.0000
  C   C148      1.0  0.6589  0.28723999999999983  0.98689  1.0000
  C   C149      1.0  0.61164  0.13791  0.77159  1.0000
  C   C150      1.0  0.71558  0.047869999999999975  0.9403  1.0000
  C   C151      1.0  0.85213  0.28812  0.90956  1.0000
  C   C152      1.0  0.93191  0.3372799999999999  0.92558  1.0000
  C   C153      1.0  0.96565  0.36788999999999994  0.9850300000000001  1.0000
  C   C154      1.0  0.73288  0.9843399999999998  0.97041  1.0000
  C   C155      1.0  0.57974  0.31999000000000005  0.9708100000000001  1.0000
  C   C156      1.0  0.7327099999999998  0.14069000000000004  0.97029  1.0000
  N   N1        1.0  0.041940000000000005  0.56702  0.6525  1.0000
  N   N2        1.0  0.45832  0.9145700000000001  0.34715000000000007  1.0000
  N   N3        1.0  0.9580700000000001  0.43298  0.34751  1.0000
  N   N4        1.0  0.54169  0.08542999999999995  0.65285  1.0000
  O   O1        1.0  0.89797  0.4459799999999999  0.55215  1.0000
  O   O2        1.0  0.58464  0.12150000000000004  0.53965  1.0000
  O   O3        1.0  0.8918  0.39367  0.45148  1.0000
  O   O4        1.0  0.57579  0.0761  0.43908  1.0000
  O   O5        1.0  0.60119  0.8927099999999998  0.44812000000000013  1.0000
  O   O6        1.0  0.91729  0.58373  0.45994  1.0000
  O   O7        1.0  0.60941  0.94331  0.54894  1.0000
  O   O8        1.0  0.92259  0.63592  0.5604600000000001  1.0000
  O   O9        1.0  0.10203  0.55402  0.44785  1.0000
  O   O10       1.0  0.41537  0.8785000000000001  0.46035  1.0000
  O   O11       1.0  0.10821  0.60633  0.54853  1.0000
  O   O12       1.0  0.4242099999999999  0.9239  0.5609200000000001  1.0000
  O   O13       1.0  0.3988199999999999  0.10729  0.55189  1.0000
  O   O14       1.0  0.08272000000000002  0.41627  0.5400600000000001  1.0000
  O   O15       1.0  0.39059  0.05669000000000002  0.4510700000000001  1.0000
  O   O16       1.0  0.07741  0.36407999999999996  0.43954000000000004  1.0000
