data_image0
_chemical_formula_structural       Zn8H160C136N64
_chemical_formula_sum              "Zn8 H160 C136 N64"
_cell_length_a       12.97478
_cell_length_b       18.92408
_cell_length_c       15.986449999999998
_cell_angle_alpha    89.94083
_cell_angle_beta     90.0
_cell_angle_gamma    89.97488

_symmetry_space_group_name_H-M    'P 1'
_symmetry_Int_Tables_number       1

loop_
  _symmetry_equiv_pos_as_xyz
  'x,y,z'

loop_
  _atom_site_type_symbol
  _atom_site_label
  _atom_site_symmetry_multiplicity
  _atom_site_fract_x
  _atom_site_fract_y
  _atom_site_fract_z
  _atom_site_occupancy
  Zn  Zn1       1.0  0.62687  0.28709  0.55201  1.0000
  Zn  Zn2       1.0  0.37357  0.21332999999999996  0.05128  1.0000
  Zn  Zn3       1.0  0.12382  0.713  0.95144  1.0000
  Zn  Zn4       1.0  0.8730500000000001  0.7866799999999999  0.45223  1.0000
  Zn  Zn5       1.0  0.37483000000000005  0.7131199999999999  0.45197  1.0000
  Zn  Zn6       1.0  0.6253600000000002  0.78658  0.94907  1.0000
  Zn  Zn7       1.0  0.87485  0.28716  0.05148  1.0000
  Zn  Zn8       1.0  0.12662  0.21295999999999998  0.55178  1.0000
  H   H1        1.0  0.63365  0.16797999999999996  0.41113  1.0000
  H   H2        1.0  0.84454  0.33258  0.46164  1.0000
  H   H3        1.0  0.92263  0.2515  0.33149  1.0000
  H   H4        1.0  0.70239  0.15436  0.24937000000000006  1.0000
  H   H5        1.0  0.8334300000000001  0.17298  0.23355  1.0000
  H   H6        1.0  0.73725  0.0357  0.16442  1.0000
  H   H7        1.0  0.8454100000000001  0.98559  0.1951  1.0000
  H   H8        1.0  0.76211  0.14659  0.06823  1.0000
  H   H9        1.0  0.03691  0.05065  0.16139  1.0000
  H   H10       1.0  0.07868000000000003  0.18646  0.11236  1.0000
  H   H11       1.0  0.64322  0.0416  0.29198  1.0000
  H   H12       1.0  0.7028000000000001  0.0518  0.3907500000000001  1.0000
  H   H13       1.0  0.67181  0.91965  0.21134  1.0000
  H   H14       1.0  0.7619  0.7945899999999999  0.25846  1.0000
  H   H15       1.0  0.79565  0.93965  0.45748  1.0000
  H   H16       1.0  0.9708300000000001  0.07297  0.28709  1.0000
  H   H17       1.0  0.9169200000000001  0.9983099999999999  0.33919  1.0000
  H   H18       1.0  0.05758  0.15611999999999998  0.37267  1.0000
  H   H19       1.0  0.8120900000000001  0.046369999999999995  0.49361  1.0000
  H   H20       1.0  0.9327200000000002  0.11467  0.61122  1.0000
  H   H21       1.0  0.36562  0.33227999999999996  0.91111  1.0000
  H   H22       1.0  0.15446000000000004  0.16687  0.9611  1.0000
  H   H23       1.0  0.07776  0.24817  0.8308  1.0000
  H   H24       1.0  0.2975  0.34535  0.7492  1.0000
  H   H25       1.0  0.16617000000000004  0.32676  0.73362  1.0000
  H   H26       1.0  0.2628  0.46416  0.66406  1.0000
  H   H27       1.0  0.15515  0.51437  0.69428  1.0000
  H   H28       1.0  0.23925000000000002  0.35331  0.56941  1.0000
  H   H29       1.0  0.9633  0.44863  0.66177  1.0000
  H   H30       1.0  0.9214000000000002  0.31359  0.61035  1.0000
  H   H31       1.0  0.35601  0.4586299999999999  0.79198  1.0000
  H   H32       1.0  0.29609  0.44852  0.89052  1.0000
  H   H33       1.0  0.32757  0.58093  0.71079  1.0000
  H   H34       1.0  0.23835000000000003  0.70618  0.75881  1.0000
  H   H35       1.0  0.20222000000000007  0.55947  0.95636  1.0000
  H   H36       1.0  0.02900000000000001  0.42691  0.78681  1.0000
  H   H37       1.0  0.08256  0.50141  0.83868  1.0000
  H   H38       1.0  0.94128  0.34429  0.87305  1.0000
  H   H39       1.0  0.18811000000000003  0.45337  0.99299  1.0000
  H   H40       1.0  0.06821  0.38448999999999994  0.11112  1.0000
  H   H41       1.0  0.13734  0.83328  0.08882  1.0000
  H   H42       1.0  0.34706  0.66736  0.03927  1.0000
  H   H43       1.0  0.4253600000000001  0.74835  0.16914  1.0000
  H   H44       1.0  0.20531  0.84447  0.25274  1.0000
  H   H45       1.0  0.33790000000000003  0.8278899999999999  0.26611  1.0000
  H   H46       1.0  0.2376  0.9645299999999999  0.3361400000000001  1.0000
  H   H47       1.0  0.34488  0.014870000000000001  0.30591  1.0000
  H   H48       1.0  0.25892  0.85139  0.42507  1.0000
  H   H49       1.0  0.53729  0.9484299999999999  0.33913  1.0000
  H   H50       1.0  0.57832  0.81237  0.38972  1.0000
  H   H51       1.0  0.14298000000000002  0.95796  0.20875  1.0000
  H   H52       1.0  0.20277000000000003  0.94754  0.10977  1.0000
  H   H53       1.0  0.16757  0.0796  0.28878  1.0000
  H   H54       1.0  0.25809  0.20466  0.24328  1.0000
  H   H55       1.0  0.29557  0.06119999999999999  0.04356  1.0000
  H   H56       1.0  0.47136000000000006  0.92871  0.21264  1.0000
  H   H57       1.0  0.41498  0.00228  0.15877  1.0000
  H   H58       1.0  0.55612  0.84254  0.12805  1.0000
  H   H59       1.0  0.31298  0.9548399999999999  0.0066  1.0000
  H   H60       1.0  0.43379000000000006  0.88583  0.88903  1.0000
  H   H61       1.0  0.86375  0.66703  0.58979  1.0000
  H   H62       1.0  0.65376  0.83271  0.5391  1.0000
  H   H63       1.0  0.57472  0.75204  0.66926  1.0000
  H   H64       1.0  0.7929900000000001  0.6557099999999999  0.75334  1.0000
  H   H65       1.0  0.66011  0.67218  0.76534  1.0000
  H   H66       1.0  0.7630100000000001  0.53545  0.83626  1.0000
  H   H67       1.0  0.6552400000000003  0.48502  0.80666  1.0000
  H   H68       1.0  0.74236  0.64854  0.92418  1.0000
  H   H69       1.0  0.46487000000000006  0.55138  0.83717  1.0000
  H   H70       1.0  0.42207  0.6860999999999999  0.89043  1.0000
  H   H71       1.0  0.85678  0.54268  0.70925  1.0000
  H   H72       1.0  0.79814  0.55321  0.61014  1.0000
  H   H73       1.0  0.8304700000000002  0.41991  0.789  1.0000
  H   H74       1.0  0.7398400000000002  0.2957  0.74326  1.0000
  H   H75       1.0  0.71021  0.43876999999999994  0.54178  1.0000
  H   H76       1.0  0.5281  0.56884  0.71193  1.0000
  H   H77       1.0  0.58685  0.49667999999999995  0.65807  1.0000
  H   H78       1.0  0.4443300000000001  0.6572599999999998  0.62896  1.0000
  H   H79       1.0  0.68681  0.54496  0.50598  1.0000
  H   H80       1.0  0.56549  0.61492  0.38943  1.0000
  H   H81       1.0  0.36343  0.83314  0.58935  1.0000
  H   H82       1.0  0.15375  0.66739  0.53926  1.0000
  H   H83       1.0  0.07486  0.74844  0.66945  1.0000
  H   H84       1.0  0.29406  0.84457  0.75325  1.0000
  H   H85       1.0  0.16169  0.82806  0.7660700000000003  1.0000
  H   H86       1.0  0.26229  0.96478  0.83655  1.0000
  H   H87       1.0  0.15436  0.01493  0.80626  1.0000
  H   H88       1.0  0.24129  0.85142  0.92502  1.0000
  H   H89       1.0  0.9632200000000001  0.94829  0.83823  1.0000
  H   H90       1.0  0.9220300000000001  0.81303  0.89009  1.0000
  H   H91       1.0  0.3572  0.95762  0.70898  1.0000
  H   H92       1.0  0.29736  0.94726  0.61015  1.0000
  H   H93       1.0  0.33286  0.07963999999999999  0.78849  1.0000
  H   H94       1.0  0.24180000000000001  0.20461999999999997  0.7435  1.0000
  H   H95       1.0  0.20602000000000006  0.06138999999999999  0.54298  1.0000
  H   H96       1.0  0.028570000000000005  0.92926  0.71241  1.0000
  H   H97       1.0  0.08543000000000003  0.0028699999999999997  0.65897  1.0000
  H   H98       1.0  0.9451200000000001  0.8427799999999999  0.62919  1.0000
  H   H99       1.0  0.18674000000000002  0.95498  0.50595  1.0000
  H   H100      1.0  0.06579  0.8858699999999999  0.38905  1.0000
  H   H101      1.0  0.6355  0.6668599999999999  0.08843  1.0000
  H   H102      1.0  0.84537  0.83296  0.03898  1.0000
  H   H103      1.0  0.9238000000000002  0.75202  0.16908  1.0000
  H   H104      1.0  0.70482  0.65578  0.25205  1.0000
  H   H105      1.0  0.83758  0.67264  0.26525  1.0000
  H   H106      1.0  0.7367  0.53579  0.33666  1.0000
  H   H107      1.0  0.84459  0.48545999999999995  0.30665  1.0000
  H   H108      1.0  0.75741  0.64863  0.42439  1.0000
  H   H109      1.0  0.03523  0.5518  0.33752  1.0000
  H   H110      1.0  0.07768000000000001  0.68637  0.39152  1.0000
  H   H111      1.0  0.64272  0.5424399999999999  0.20811  1.0000
  H   H112      1.0  0.7027100000000001  0.55264  0.10956  1.0000
  H   H113      1.0  0.6680300000000001  0.4199399999999999  0.28885  1.0000
  H   H114      1.0  0.75832  0.29498  0.24312  1.0000
  H   H115      1.0  0.7951300000000002  0.43964999999999993  0.04377  1.0000
  H   H116      1.0  0.9710400000000002  0.57003  0.21249  1.0000
  H   H117      1.0  0.91409  0.49725  0.15899  1.0000
  H   H118      1.0  0.055290000000000006  0.65751  0.12907  1.0000
  H   H119      1.0  0.81205  0.5458199999999999  0.00618  1.0000
  H   H120      1.0  0.93425  0.61496  0.8894  1.0000
  H   H121      1.0  0.86529  0.16776  0.91125  1.0000
  H   H122      1.0  0.65433  0.33272  0.96161  1.0000
  H   H123      1.0  0.57703  0.25182  0.83166  1.0000
  H   H124      1.0  0.79721  0.15487999999999996  0.7490300000000002  1.0000
  H   H125      1.0  0.6657900000000001  0.17335  0.73371  1.0000
  H   H126      1.0  0.76223  0.03585  0.66406  1.0000
  H   H127      1.0  0.65511  0.98558  0.69503  1.0000
  H   H128      1.0  0.73792  0.14691  0.56956  1.0000
  H   H129      1.0  0.46231  0.05084  0.66104  1.0000
  H   H130      1.0  0.4204300000000001  0.18705999999999998  0.6125700000000002  1.0000
  H   H131      1.0  0.85642  0.04187  0.79169  1.0000
  H   H132      1.0  0.79677  0.05187  0.89054  1.0000
  H   H133      1.0  0.82869  0.92028  0.71054  1.0000
  H   H134      1.0  0.73893  0.79498  0.75696  1.0000
  H   H135      1.0  0.70479  0.9393499999999999  0.95681  1.0000
  H   H136      1.0  0.52902  0.07314  0.78671  1.0000
  H   H137      1.0  0.58327  0.99855  0.83916  1.0000
  H   H138      1.0  0.4416300000000001  0.1561  0.8728  1.0000
  H   H139      1.0  0.68767  0.04609  0.99292  1.0000
  H   H140      1.0  0.56773  0.11497  0.11108  1.0000
  H   H141      1.0  0.13409  0.33187  0.41096  1.0000
  H   H142      1.0  0.34556000000000003  0.16719  0.46163  1.0000
  H   H143      1.0  0.4227100000000001  0.24805999999999997  0.33103  1.0000
  H   H144      1.0  0.20342000000000005  0.34538  0.24855  1.0000
  H   H145      1.0  0.33499000000000007  0.32703  0.23406  1.0000
  H   H146      1.0  0.23654000000000003  0.46425  0.16481000000000007  1.0000
  H   H147      1.0  0.34446  0.51447  0.19445  1.0000
  H   H148      1.0  0.2607  0.35335  0.06874  1.0000
  H   H149      1.0  0.53561  0.44922  0.16164  1.0000
  H   H150      1.0  0.5782  0.31374  0.11119  1.0000
  H   H151      1.0  0.14369000000000004  0.45852  0.2915  1.0000
  H   H152      1.0  0.20256000000000002  0.44827  0.39055  1.0000
  H   H153      1.0  0.17371000000000003  0.58094  0.21064000000000005  1.0000
  H   H154      1.0  0.26281  0.7056299999999999  0.25912  1.0000
  H   H155      1.0  0.29428  0.56004  0.45787  1.0000
  H   H156      1.0  0.471  0.42779  0.28743  1.0000
  H   H157      1.0  0.41634  0.50193  0.33948  1.0000
  H   H158      1.0  0.55856  0.34440999999999994  0.37311  1.0000
  H   H159      1.0  0.31228  0.4539  0.49376  1.0000
  H   H160      1.0  0.43205  0.38418  0.61102  1.0000
  C   C1        1.0  0.7055200000000003  0.19671  0.41362  1.0000
  C   C2        1.0  0.81345  0.28554999999999997  0.43242  1.0000
  C   C3        1.0  0.8533100000000002  0.24578999999999998  0.36809  1.0000
  C   C4        1.0  0.7794300000000001  0.1487  0.27768  1.0000
  C   C5        1.0  0.8051500000000001  0.06905  0.28328  1.0000
  C   C6        1.0  0.81457  0.03948  0.19206  1.0000
  C   C7        1.0  0.83774  0.14307  0.09709000000000002  1.0000
  C   C8        1.0  0.98425  0.09287999999999999  0.14539  1.0000
  C   C9        1.0  0.005140000000000001  0.15938  0.11529  1.0000
  C   C10       1.0  0.71398  0.030229999999999996  0.32758  1.0000
  C   C11       1.0  0.7132100000000001  0.906  0.26786  1.0000
  C   C12       1.0  0.75612  0.84333  0.29344  1.0000
  C   C13       1.0  0.78104  0.9187899999999999  0.39578  1.0000
  C   C14       1.0  0.9082300000000002  0.05567  0.32863  1.0000
  C   C15       1.0  0.00719  0.13698  0.4214100000000001  1.0000
  C   C16       1.0  0.87959  0.0787  0.48559  1.0000
  C   C17       1.0  0.9405100000000002  0.11281  0.54392  1.0000
  C   C18       1.0  0.29395  0.3032  0.91397  1.0000
  C   C19       1.0  0.18597  0.21408  0.9324  1.0000
  C   C20       1.0  0.14668  0.25384  0.86781  1.0000
  C   C21       1.0  0.22046  0.35091  0.7776  1.0000
  C   C22       1.0  0.19447000000000006  0.43066  0.78302  1.0000
  C   C23       1.0  0.18548  0.46030999999999994  0.69177  1.0000
  C   C24       1.0  0.16238  0.35735  0.5958  1.0000
  C   C25       1.0  0.01588  0.40684999999999993  0.64467  1.0000
  C   C26       1.0  0.995  0.34054  0.61403  1.0000
  C   C27       1.0  0.2851  0.46987  0.82728  1.0000
  C   C28       1.0  0.28612  0.59436  0.76729  1.0000
  C   C29       1.0  0.24344  0.65713  0.79322  1.0000
  C   C30       1.0  0.21985  0.58151  0.89586  1.0000
  C   C31       1.0  0.09147000000000002  0.44409  0.82841  1.0000
  C   C32       1.0  0.99232  0.36308  0.9215  1.0000
  C   C33       1.0  0.12071  0.42095  0.98532  1.0000
  C   C34       1.0  0.06022000000000002  0.38672  0.04383  1.0000
  C   C35       1.0  0.20716000000000007  0.80236  0.08827  1.0000
  C   C36       1.0  0.31601  0.71446  0.0683  1.0000
  C   C37       1.0  0.3557  0.7540399999999999  0.13286  1.0000
  C   C38       1.0  0.28156  0.8512400000000001  0.22321  1.0000
  C   C39       1.0  0.30534  0.93122  0.21696  1.0000
  C   C40       1.0  0.31479  0.9607599999999998  0.30827  1.0000
  C   C41       1.0  0.33767  0.85719  0.40354  1.0000
  C   C42       1.0  0.48471  0.9063399999999999  0.35524  1.0000
  C   C43       1.0  0.50491  0.83965  0.38572  1.0000
  C   C44       1.0  0.21341  0.96949  0.17285  1.0000
  C   C45       1.0  0.20967  0.09339  0.2327  1.0000
  C   C46       1.0  0.25416  0.15596  0.20834  1.0000
  C   C47       1.0  0.28283  0.08072  0.1062  1.0000
  C   C48       1.0  0.40806  0.94503  0.17111  1.0000
  C   C49       1.0  0.50606  0.8621799999999998  0.07935  1.0000
  C   C50       1.0  0.38044000000000006  0.92227  0.0145  1.0000
  C   C51       1.0  0.44115  0.8877999999999999  0.95644  1.0000
  C   C52       1.0  0.7924  0.6966  0.58784  1.0000
  C   C53       1.0  0.6844300000000001  0.78558  0.56873  1.0000
  C   C54       1.0  0.6438900000000001  0.74554  0.6324  1.0000
  C   C55       1.0  0.71712  0.6486399999999999  0.7232  1.0000
  C   C56       1.0  0.69427  0.56859  0.71731  1.0000
  C   C57       1.0  0.68568  0.53903  0.80854  1.0000
  C   C58       1.0  0.66262  0.64173  0.90606  1.0000
  C   C59       1.0  0.51655  0.59261  0.8567  1.0000
  C   C60       1.0  0.49567000000000005  0.65943  0.88617  1.0000
  C   C61       1.0  0.78672  0.53093  0.67302  1.0000
  C   C62       1.0  0.78981  0.40652  0.73242  1.0000
  C   C63       1.0  0.74479  0.34417  0.70783  1.0000
  C   C64       1.0  0.71819  0.41986  0.60533  1.0000
  C   C65       1.0  0.5923  0.55386  0.67087  1.0000
  C   C66       1.0  0.49467  0.63784  0.58008  1.0000
  C   C67       1.0  0.6191400000000001  0.57729  0.51441  1.0000
  C   C68       1.0  0.55874  0.61253  0.4568  1.0000
  C   C69       1.0  0.29273  0.80313  0.58831  1.0000
  C   C70       1.0  0.18433000000000002  0.7146199999999999  0.5685  1.0000
  C   C71       1.0  0.14419  0.75435  0.63283  1.0000
  C   C72       1.0  0.21804  0.8514899999999999  0.72339  1.0000
  C   C73       1.0  0.19454  0.93145  0.71733  1.0000
  C   C74       1.0  0.18512000000000003  0.9609699999999999  0.80871  1.0000
  C   C75       1.0  0.16249  0.85721  0.9038800000000002  1.0000
  C   C76       1.0  0.01587  0.9065599999999999  0.85552  1.0000
  C   C77       1.0  0.9954400000000002  0.8400599999999999  0.8858700000000003  1.0000
  C   C78       1.0  0.2867  0.96933  0.67317  1.0000
  C   C79       1.0  0.2905  0.09334  0.73255  1.0000
  C   C80       1.0  0.24606  0.15595  0.70835  1.0000
  C   C81       1.0  0.21746  0.08059  0.606  1.0000
  C   C82       1.0  0.09208  0.9455699999999999  0.67117  1.0000
  C   C83       1.0  0.99429  0.86253  0.57995  1.0000
  C   C84       1.0  0.11928000000000002  0.92262  0.51427  1.0000
  C   C85       1.0  0.05843  0.88776  0.45647  1.0000
  C   C86       1.0  0.7065100000000001  0.69686  0.08678  1.0000
  C   C87       1.0  0.81437  0.78573  0.06808  1.0000
  C   C88       1.0  0.85473  0.7457  0.13197  1.0000
  C   C89       1.0  0.78119  0.64893  0.22268  1.0000
  C   C90       1.0  0.805  0.56891  0.21728  1.0000
  C   C91       1.0  0.81389  0.53946  0.30858  1.0000
  C   C92       1.0  0.8370700000000002  0.64222  0.40577  1.0000
  C   C93       1.0  0.98339  0.59321  0.3565  1.0000
  C   C94       1.0  0.00407  0.65982  0.38692  1.0000
  C   C95       1.0  0.71347  0.5308  0.17274  1.0000
  C   C96       1.0  0.7098500000000001  0.4064299999999999  0.23278000000000004  1.0000
  C   C97       1.0  0.7540200000000001  0.34369  0.20807  1.0000
  C   C98       1.0  0.78256  0.41941999999999996  0.10623  1.0000
  C   C99       1.0  0.90736  0.55447  0.17125  1.0000
  C   C100      1.0  0.00507  0.63801  0.08007  1.0000
  C   C101      1.0  0.8804700000000001  0.57743  0.0146  1.0000
  C   C102      1.0  0.94086  0.61239  0.95685  1.0000
  C   C103      1.0  0.79415  0.1973  0.91345  1.0000
  C   C104      1.0  0.6858400000000001  0.28573  0.9327  1.0000
  C   C105      1.0  0.64646  0.24619999999999997  0.86804  1.0000
  C   C106      1.0  0.72027  0.14913  0.77755  1.0000
  C   C107      1.0  0.69469  0.06936  0.78326  1.0000
  C   C108      1.0  0.68516  0.03966  0.69213  1.0000
  C   C109      1.0  0.66149  0.14291  0.59699  1.0000
  C   C110      1.0  0.51493  0.09328999999999998  0.6457500000000003  1.0000
  C   C111      1.0  0.49408  0.15975  0.61526  1.0000
  C   C112      1.0  0.78583  0.030359999999999998  0.82734  1.0000
  C   C113      1.0  0.78748  0.9063699999999999  0.7670400000000003  1.0000
  C   C114      1.0  0.74399  0.8437  0.79198  1.0000
  C   C115      1.0  0.71825  0.9188899999999999  0.89473  1.0000
  C   C116      1.0  0.59156  0.05592  0.82846  1.0000
  C   C117      1.0  0.49245  0.137  0.92135  1.0000
  C   C118      1.0  0.62038  0.07891  0.9853400000000002  1.0000
  C   C119      1.0  0.55967  0.11299000000000001  0.04369  1.0000
  C   C120      1.0  0.20596  0.30301  0.41374  1.0000
  C   C121      1.0  0.31405  0.21413999999999997  0.43236  1.0000
  C   C122      1.0  0.35358  0.25389  0.36792  1.0000
  C   C123      1.0  0.28006  0.35105  0.27764  1.0000
  C   C124      1.0  0.30537000000000003  0.43085  0.2833  1.0000
  C   C125      1.0  0.31411000000000006  0.46046  0.192  1.0000
  C   C126      1.0  0.33715  0.35743  0.09591  1.0000
  C   C127      1.0  0.4835  0.40723  0.14444  1.0000
  C   C128      1.0  0.50454  0.34068  0.11464  1.0000
  C   C129      1.0  0.21414  0.4698  0.32743  1.0000
  C   C130      1.0  0.21398  0.59429  0.26765  1.0000
  C   C131      1.0  0.25715  0.65682  0.2937300000000001  1.0000
  C   C132      1.0  0.27888  0.58141  0.39674  1.0000
  C   C133      1.0  0.40812  0.4445799999999999  0.32885  1.0000
  C   C134      1.0  0.50719  0.36289  0.42146  1.0000
  C   C135      1.0  0.37917  0.4211  0.48559  1.0000
  C   C136      1.0  0.43976  0.38641  0.54387  1.0000
  N   N1        1.0  0.72163  0.25689  0.45889  1.0000
  N   N2        1.0  0.7836200000000001  0.18987  0.35425  1.0000
  N   N3        1.0  0.87726  0.08095  0.13341  1.0000
  N   N4        1.0  0.91616  0.19069999999999998  0.08651  1.0000
  N   N5        1.0  0.72478  0.95398  0.33442  1.0000
  N   N6        1.0  0.79665  0.85073  0.37258  1.0000
  N   N7        1.0  0.92387  0.09294  0.40698  1.0000
  N   N8        1.0  0.01865  0.14845  0.50402  1.0000
  N   N9        1.0  0.27748  0.24291  0.95932  1.0000
  N   N10       1.0  0.21641000000000005  0.30965  0.85406  1.0000
  N   N11       1.0  0.12288  0.41887  0.63315  1.0000
  N   N12       1.0  0.08429  0.3095  0.58548  1.0000
  N   N13       1.0  0.27331  0.54602  0.83342  1.0000
  N   N14       1.0  0.20335000000000003  0.64942  0.8724500000000002  1.0000
  N   N15       1.0  0.07581  0.40689999999999993  0.90681  1.0000
  N   N16       1.0  0.98202  0.35112999999999994  0.00405  1.0000
  N   N17       1.0  0.22392  0.74289  0.04186  1.0000
  N   N18       1.0  0.28546  0.80962  0.14703  1.0000
  N   N19       1.0  0.37758000000000014  0.91887  0.36686  1.0000
  N   N20       1.0  0.41507  0.80882  0.41371  1.0000
  N   N21       1.0  0.22257  0.04578  0.16572  1.0000
  N   N22       1.0  0.29755  0.14886  0.13022  1.0000
  N   N23       1.0  0.42351  0.90704  0.09335  1.0000
  N   N24       1.0  0.51824  0.8511699999999999  0.99654  1.0000
  N   N25       1.0  0.77643  0.7569499999999999  0.5427300000000003  1.0000
  N   N26       1.0  0.7134800000000001  0.68937  0.64633  1.0000
  N   N27       1.0  0.62354  0.58087  0.86736  1.0000
  N   N28       1.0  0.58525  0.69052  0.91409  1.0000
  N   N29       1.0  0.77745  0.45472  0.66568  1.0000
  N   N30       1.0  0.7029100000000001  0.35163  0.62944  1.0000
  N   N31       1.0  0.57683  0.59276  0.59338  1.0000
  N   N32       1.0  0.48219  0.64924  0.49755  1.0000
  N   N33       1.0  0.27642  0.74321  0.54249  1.0000
  N   N34       1.0  0.2142  0.81016  0.64705  1.0000
  N   N35       1.0  0.12273  0.91896  0.86727  1.0000
  N   N36       1.0  0.08499  0.80898  0.91403  1.0000
  N   N37       1.0  0.27774  0.04566  0.66565  1.0000
  N   N38       1.0  0.20301  0.14886  0.63011  1.0000
  N   N39       1.0  0.07660000000000002  0.90763  0.59336  1.0000
  N   N40       1.0  0.98174  0.8511399999999999  0.49719000000000013  1.0000
  N   N41       1.0  0.72263  0.75707  0.04143  1.0000
  N   N42       1.0  0.7850300000000002  0.6896599999999999  0.14576  1.0000
  N   N43       1.0  0.8762900000000001  0.58161  0.36672  1.0000
  N   N44       1.0  0.91431  0.69086  0.41478  1.0000
  N   N45       1.0  0.72392  0.45463  0.16633  1.0000
  N   N46       1.0  0.79705  0.35122  0.12995  1.0000
  N   N47       1.0  0.92267  0.59314  0.09361  1.0000
  N   N48       1.0  0.0175  0.64905  0.99746  1.0000
  N   N49       1.0  0.7776700000000001  0.25707  0.95935  1.0000
  N   N50       1.0  0.71632  0.19048  0.85404  1.0000
  N   N51       1.0  0.62194  0.08104  0.63361  1.0000
  N   N52       1.0  0.58333  0.19071  0.58639  1.0000
  N   N53       1.0  0.7754700000000002  0.95409  0.83384  1.0000
  N   N54       1.0  0.7028000000000001  0.8508499999999999  0.87093  1.0000
  N   N55       1.0  0.5758  0.09307999999999998  0.90682  1.0000
  N   N56       1.0  0.48142  0.14867  0.00392  1.0000
  N   N57       1.0  0.22233  0.2428  0.45909  1.0000
  N   N58       1.0  0.28378  0.30972  0.35413  1.0000
  N   N59       1.0  0.37645  0.41916  0.13291  1.0000
  N   N60       1.0  0.41543000000000013  0.30959  0.08594  1.0000
  N   N61       1.0  0.22548000000000007  0.54602  0.33408  1.0000
  N   N62       1.0  0.29633  0.6492499999999999  0.37318  1.0000
  N   N63       1.0  0.42392000000000013  0.40707  0.4070800000000001  1.0000
  N   N64       1.0  0.51787  0.35076  0.50394  1.0000
