data_image0
_chemical_formula_structural       Zn6H76C120N12O28
_chemical_formula_sum              "Zn6 H76 C120 N12 O28"
_cell_length_a       14.47341
_cell_length_b       16.26987
_cell_length_c       16.6328
_cell_angle_alpha    116.3862
_cell_angle_beta     90.10198
_cell_angle_gamma    116.51305

_symmetry_space_group_name_H-M    'P 1'
_symmetry_Int_Tables_number       1

loop_
  _symmetry_equiv_pos_as_xyz
  'x,y,z'

loop_
  _atom_site_type_symbol
  _atom_site_label
  _atom_site_symmetry_multiplicity
  _atom_site_fract_x
  _atom_site_fract_y
  _atom_site_fract_z
  _atom_site_occupancy
  Zn  Zn1       1.0  0.44457  0.27914999999999995  0.31675999999999993  1.0000
  Zn  Zn2       1.0  0.16449000000000003  0.71851  0.18273  1.0000
  Zn  Zn3       1.0  0.55542  0.72084  0.6832399999999997  1.0000
  Zn  Zn4       1.0  0.8354999999999999  0.28148999999999985  0.8172599999999998  1.0000
  Zn  Zn5       1.0  0.22251999999999997  0.0001299999999999201  0.7500799999999997  1.0000
  Zn  Zn6       1.0  0.77748  0.9998699999999999  0.24990999999999994  1.0000
  H   H1        1.0  0.49214999999999975  0.2983699999999998  0.8012399999999997  1.0000
  H   H2        1.0  0.6152399999999998  0.45008999999999977  0.7777199999999997  1.0000
  H   H3        1.0  0.36071  0.10008  0.50794  1.0000
  H   H4        1.0  0.77477  0.39564999999999995  0.61908  1.0000
  H   H5        1.0  0.95834  0.5194199999999999  0.7249299999999999  1.0000
  H   H6        1.0  0.009309999999999853  0.7057499999999997  0.8395299999999998  1.0000
  H   H7        1.0  0.8765199999999995  0.7657599999999998  0.85022  1.0000
  H   H8        1.0  0.66916  0.33941  0.3518  1.0000
  H   H9        1.0  0.84535  0.50348  0.44404  1.0000
  H   H10       1.0  0.678  0.68064  0.51563  1.0000
  H   H11       1.0  0.5111399999999999  0.5110899999999999  0.4174699999999999  1.0000
  H   H12       1.0  0.9697600000000001  0.6774  0.44024999999999986  1.0000
  H   H13       1.0  0.1378499999999999  0.8469299999999997  0.54531  1.0000
  H   H14       1.0  0.9924099999999998  0.91968  0.76046  1.0000
  H   H15       1.0  0.81546  0.7585199999999999  0.6629599999999998  1.0000
  H   H16       1.0  0.4833799999999999  0.09896999999999996  0.26631  1.0000
  H   H17       1.0  0.5044399999999998  0.9688899999999998  0.12671999999999997  1.0000
  H   H18       1.0  0.47818999999999995  0.1297899999999998  0.9859399999999998  1.0000
  H   H19       1.0  0.44806  0.24620999999999998  0.12926  1.0000
  H   H20       1.0  0.19479999999999995  0.70327  0.69931  1.0000
  H   H21       1.0  0.16724  0.55133  0.7220499999999997  1.0000
  H   H22       1.0  0.26000999999999985  0.8991799999999996  0.9926199999999997  1.0000
  H   H23       1.0  0.38115999999999983  0.6059999999999998  0.8813099999999998  1.0000
  H   H24       1.0  0.44060999999999995  0.4825899999999999  0.77568  1.0000
  H   H25       1.0  0.30457999999999985  0.29615999999999976  0.6609599999999998  1.0000
  H   H26       1.0  0.11156999999999993  0.23508999999999988  0.6504699999999998  1.0000
  H   H27       1.0  0.32869  0.6600199999999999  0.14771999999999993  1.0000
  H   H28       1.0  0.34225  0.49726  0.05635  1.0000
  H   H29       1.0  0.99709  0.31648000000000004  0.98374  1.0000
  H   H30       1.0  0.99813  0.48470999999999986  0.08089  1.0000
  H   H31       1.0  0.2927599999999999  0.32192  0.059909999999999984  1.0000
  H   H32       1.0  0.29101999999999995  0.15277999999999983  0.9549399999999998  1.0000
  H   H33       1.0  0.07291999999999994  0.08005999999999992  0.7389499999999999  1.0000
  H   H34       1.0  0.05723999999999998  0.24076  0.83619  1.0000
  H   H35       1.0  0.3832799999999999  0.8988699999999997  0.23285999999999996  1.0000
  H   H36       1.0  0.5349499999999999  0.03021999999999995  0.37277999999999994  1.0000
  H   H37       1.0  0.34828000000000003  0.8697900000000001  0.51401  1.0000
  H   H38       1.0  0.20129999999999995  0.7519199999999999  0.3702  1.0000
  H   H39       1.0  0.50785  0.70163  0.19875999999999994  1.0000
  H   H40       1.0  0.38475  0.54991  0.22227999999999995  1.0000
  H   H41       1.0  0.63929  0.8999099999999999  0.4920599999999999  1.0000
  H   H42       1.0  0.22523  0.60434  0.38091999999999987  1.0000
  H   H43       1.0  0.04165000000000003  0.48058000000000006  0.27506  1.0000
  H   H44       1.0  0.99069  0.29424  0.16047  1.0000
  H   H45       1.0  0.12347999999999995  0.23422999999999994  0.14976999999999993  1.0000
  H   H46       1.0  0.33084  0.66059  0.6482  1.0000
  H   H47       1.0  0.1546399999999999  0.49650999999999984  0.5559599999999998  1.0000
  H   H48       1.0  0.322  0.31936  0.4843699999999999  1.0000
  H   H49       1.0  0.48886  0.48889999999999995  0.58253  1.0000
  H   H50       1.0  0.030240000000000006  0.3226  0.55975  1.0000
  H   H51       1.0  0.8621499999999999  0.1530599999999999  0.45468999999999987  1.0000
  H   H52       1.0  0.0075900000000000065  0.08031  0.23954  1.0000
  H   H53       1.0  0.18452999999999994  0.24146999999999993  0.33704  1.0000
  H   H54       1.0  0.5166199999999997  0.9010299999999996  0.7336899999999997  1.0000
  H   H55       1.0  0.49556  0.031099999999999954  0.87328  1.0000
  H   H56       1.0  0.52181  0.8702  0.014059999999999996  1.0000
  H   H57       1.0  0.5519299999999999  0.7537799999999998  0.8707299999999998  1.0000
  H   H58       1.0  0.8051899999999996  0.2967299999999998  0.3006899999999999  1.0000
  H   H59       1.0  0.83275  0.44866999999999996  0.27794999999999986  1.0000
  H   H60       1.0  0.7399899999999999  0.10081999999999998  0.007369999999999998  1.0000
  H   H61       1.0  0.61884  0.394  0.11869  1.0000
  H   H62       1.0  0.5593799999999999  0.5173999999999999  0.22432  1.0000
  H   H63       1.0  0.6954199999999997  0.7038399999999998  0.33903999999999995  1.0000
  H   H64       1.0  0.8884299999999997  0.7648999999999999  0.34952999999999995  1.0000
  H   H65       1.0  0.67131  0.33996999999999994  0.8522799999999999  1.0000
  H   H66       1.0  0.65775  0.50274  0.94364  1.0000
  H   H67       1.0  0.0029000000000000124  0.68352  0.016259999999999997  1.0000
  H   H68       1.0  0.001869999999999887  0.5152899999999998  0.9190999999999998  1.0000
  H   H69       1.0  0.7072299999999999  0.6780699999999998  0.9400899999999998  1.0000
  H   H70       1.0  0.70898  0.84722  0.04505999999999999  1.0000
  H   H71       1.0  0.92708  0.91993  0.26105  1.0000
  H   H72       1.0  0.94275  0.7592399999999999  0.16379999999999995  1.0000
  H   H73       1.0  0.61672  0.10111999999999997  0.76714  1.0000
  H   H74       1.0  0.46504999999999985  0.9697799999999998  0.62722  1.0000
  H   H75       1.0  0.6517099999999999  0.13020999999999994  0.48598  1.0000
  H   H76       1.0  0.7987  0.2480699999999999  0.62979  1.0000
  C   C1        1.0  0.3454  0.09945999999999994  0.6679299999999998  1.0000
  C   C2        1.0  0.42057  0.18979999999999994  0.6556499999999998  1.0000
  C   C3        1.0  0.49253  0.2884  0.73213  1.0000
  C   C4        1.0  0.5607999999999997  0.3722799999999999  0.7194399999999997  1.0000
  C   C5        1.0  0.55872  0.3574299999999999  0.6298399999999997  1.0000
  C   C6        1.0  0.48791999999999996  0.25916999999999996  0.5522599999999999  1.0000
  C   C7        1.0  0.41780999999999996  0.17672999999999994  0.56644  1.0000
  C   C8        1.0  0.49045  0.24176  0.45576  1.0000
  C   C9        1.0  0.7254799999999999  0.51174  0.67623  1.0000
  C   C10       1.0  0.79918  0.4771799999999998  0.6700099999999998  1.0000
  C   C11       1.0  0.90153  0.54701  0.72891  1.0000
  C   C12       1.0  0.92956  0.65122  0.79351  1.0000
  C   C13       1.0  0.8552199999999999  0.6850199999999997  0.79941  1.0000
  C   C14       1.0  0.7516899999999996  0.6152799999999998  0.7409299999999998  1.0000
  C   C15       1.0  0.66987  0.6500399999999997  0.7494799999999998  1.0000
  C   C16       1.0  0.67595  0.41707  0.3874999999999999  1.0000
  C   C17       1.0  0.7733299999999995  0.5085999999999998  0.4389999999999999  1.0000
  C   C18       1.0  0.77674  0.60616  0.4867799999999999  1.0000
  C   C19       1.0  0.68091  0.60751  0.47994  1.0000
  C   C20       1.0  0.5868799999999997  0.51297  0.42561  1.0000
  C   C21       1.0  0.8786  0.70464  0.54402  1.0000
  C   C22       1.0  0.9707299999999996  0.7287899999999998  0.51067  1.0000
  C   C23       1.0  0.06477000000000001  0.82236  0.5682399999999997  1.0000
  C   C24       1.0  0.98315  0.86527  0.6884999999999999  1.0000
  C   C25       1.0  0.88521  0.77572  0.6345199999999998  1.0000
  C   C26       1.0  0.4792799999999998  0.09958999999999994  0.20123999999999995  1.0000
  C   C27       1.0  0.4932399999999999  0.029089999999999994  0.12321999999999997  1.0000
  C   C28       1.0  0.4927799999999999  0.03687  0.04231999999999999  1.0000
  C   C29       1.0  0.47798999999999986  0.11767999999999997  0.04510999999999998  1.0000
  C   C30       1.0  0.46237999999999996  0.18414  0.12481999999999997  1.0000
  C   C31       1.0  0.24456999999999993  0.9005599999999998  0.8330799999999998  1.0000
  C   C32       1.0  0.23074  0.8104399999999999  0.8449199999999998  1.0000
  C   C33       1.0  0.2047999999999999  0.7124799999999998  0.7682  1.0000
  C   C34       1.0  0.19005  0.62867  0.78057  1.0000
  C   C35       1.0  0.20279999999999995  0.6431199999999999  0.8700799999999997  1.0000
  C   C36       1.0  0.22955999999999985  0.7407799999999997  0.9478399999999998  1.0000
  C   C37       1.0  0.24121  0.8231  0.9339799999999998  1.0000
  C   C38       1.0  0.24966999999999986  0.7578699999999998  0.044229999999999985  1.0000
  C   C39       1.0  0.2152899999999999  0.4893099999999998  0.8239599999999998  1.0000
  C   C40       1.0  0.32377999999999985  0.5243299999999997  0.8303999999999998  1.0000
  C   C41       1.0  0.35605  0.45471  0.7716  1.0000
  C   C42       1.0  0.27947  0.3503899999999999  0.7070399999999999  1.0000
  C   C43       1.0  0.17108999999999988  0.31605999999999973  0.7011899999999998  1.0000
  C   C44       1.0  0.13742999999999994  0.38557999999999987  0.7594699999999998  1.0000
  C   C45       1.0  0.02065000000000001  0.35096  0.75163  1.0000
  C   C46       1.0  0.2579699999999999  0.5819099999999999  0.1119  1.0000
  C   C47       1.0  0.2646399999999999  0.4910799999999999  0.06082999999999999  1.0000
  C   C48       1.0  0.17069999999999994  0.3928399999999999  0.012879999999999997  1.0000
  C   C49       1.0  0.07295999999999996  0.39023  0.01936  1.0000
  C   C50       1.0  0.07259  0.4841  0.07318999999999999  1.0000
  C   C51       1.0  0.17443999999999996  0.2948099999999999  0.9556499999999998  1.0000
  C   C52       1.0  0.2423899999999999  0.2707599999999999  0.98927  1.0000
  C   C53       1.0  0.24276999999999993  0.17742999999999987  0.9317399999999998  1.0000
  C   C54       1.0  0.11825999999999992  0.13450999999999985  0.8109999999999998  1.0000
  C   C55       1.0  0.10989999999999989  0.22378999999999977  0.8648899999999998  1.0000
  C   C56       1.0  0.37887  0.89881  0.2981799999999999  1.0000
  C   C57       1.0  0.46354999999999985  0.9700299999999996  0.3764399999999999  1.0000
  C   C58       1.0  0.4556999999999997  0.9627699999999996  0.45756999999999987  1.0000
  C   C59       1.0  0.3600499999999998  0.8816299999999999  0.4547399999999999  1.0000
  C   C60       1.0  0.27771999999999986  0.8143699999999998  0.3747899999999999  1.0000
  C   C61       1.0  0.6545999999999998  0.9005299999999998  0.3320599999999999  1.0000
  C   C62       1.0  0.5794199999999998  0.81019  0.34433999999999987  1.0000
  C   C63       1.0  0.50746  0.7116  0.26786  1.0000
  C   C64       1.0  0.4391999999999999  0.62771  0.28055  1.0000
  C   C65       1.0  0.44127  0.6425599999999998  0.37014999999999987  1.0000
  C   C66       1.0  0.51208  0.74083  0.4477299999999999  1.0000
  C   C67       1.0  0.58219  0.8232599999999998  0.4335599999999999  1.0000
  C   C68       1.0  0.5095499999999997  0.7582299999999995  0.5442399999999997  1.0000
  C   C69       1.0  0.27451999999999993  0.48825999999999997  0.3237599999999999  1.0000
  C   C70       1.0  0.20081999999999992  0.5228199999999997  0.32999  1.0000
  C   C71       1.0  0.09846999999999992  0.4529899999999999  0.27109  1.0000
  C   C72       1.0  0.07043  0.34878  0.20648  1.0000
  C   C73       1.0  0.14477  0.3149799999999999  0.20059  1.0000
  C   C74       1.0  0.24829999999999994  0.3847199999999999  0.25906  1.0000
  C   C75       1.0  0.3301199999999999  0.3499599999999998  0.25050999999999995  1.0000
  C   C76       1.0  0.32404  0.58293  0.61249  1.0000
  C   C77       1.0  0.2266599999999999  0.4913999999999998  0.5609999999999998  1.0000
  C   C78       1.0  0.22325999999999996  0.39384  0.51322  1.0000
  C   C79       1.0  0.31909  0.39248  0.52005  1.0000
  C   C80       1.0  0.4131199999999999  0.4870299999999999  0.57439  1.0000
  C   C81       1.0  0.1213999999999999  0.29535999999999984  0.4559799999999999  1.0000
  C   C82       1.0  0.029269999999999914  0.27119999999999983  0.4893299999999999  1.0000
  C   C83       1.0  0.9352199999999998  0.17762999999999995  0.43175999999999987  1.0000
  C   C84       1.0  0.016839999999999997  0.13473  0.3115  1.0000
  C   C85       1.0  0.11478999999999995  0.22426999999999994  0.3654799999999999  1.0000
  C   C86       1.0  0.52072  0.90041  0.79876  1.0000
  C   C87       1.0  0.5067599999999999  0.9708999999999999  0.8767799999999998  1.0000
  C   C88       1.0  0.50722  0.96313  0.9576699999999998  1.0000
  C   C89       1.0  0.5220099999999998  0.8823099999999996  0.9548899999999998  1.0000
  C   C90       1.0  0.5376099999999999  0.8158599999999998  0.8751699999999998  1.0000
  C   C91       1.0  0.7554199999999999  0.09942999999999999  0.16692  1.0000
  C   C92       1.0  0.76926  0.18954999999999997  0.15506999999999996  1.0000
  C   C93       1.0  0.7951999999999999  0.2875099999999999  0.23179999999999995  1.0000
  C   C94       1.0  0.80995  0.37132  0.21943  1.0000
  C   C95       1.0  0.79719  0.35687  0.12992  1.0000
  C   C96       1.0  0.7704299999999997  0.25922  0.052159999999999984  1.0000
  C   C97       1.0  0.7587799999999999  0.1768999999999999  0.06600999999999999  1.0000
  C   C98       1.0  0.7503199999999999  0.24213000000000004  0.95577  1.0000
  C   C99       1.0  0.7846999999999998  0.5106799999999999  0.17603999999999995  1.0000
  C   C100      1.0  0.6762099999999998  0.47566  0.1696  1.0000
  C   C101      1.0  0.64394  0.54529  0.2284  1.0000
  C   C102      1.0  0.72053  0.64961  0.29295  1.0000
  C   C103      1.0  0.82891  0.68394  0.2988  1.0000
  C   C104      1.0  0.86257  0.61442  0.24051999999999996  1.0000
  C   C105      1.0  0.9793399999999999  0.6490399999999997  0.24836999999999995  1.0000
  C   C106      1.0  0.74202  0.4180799999999998  0.8880999999999998  1.0000
  C   C107      1.0  0.73535  0.50891  0.93917  1.0000
  C   C108      1.0  0.8292899999999997  0.60715  0.98712  1.0000
  C   C109      1.0  0.9270399999999998  0.60977  0.98064  1.0000
  C   C110      1.0  0.92741  0.51589  0.92681  1.0000
  C   C111      1.0  0.82556  0.7051899999999998  0.04434999999999999  1.0000
  C   C112      1.0  0.75761  0.72923  0.01073  1.0000
  C   C113      1.0  0.75722  0.82256  0.06825  1.0000
  C   C114      1.0  0.8817399999999997  0.86548  0.189  1.0000
  C   C115      1.0  0.8900999999999998  0.77621  0.13510999999999998  1.0000
  C   C116      1.0  0.62112  0.10118999999999999  0.70182  1.0000
  C   C117      1.0  0.53645  0.029960000000000014  0.62356  1.0000
  C   C118      1.0  0.5443  0.03723000000000001  0.54243  1.0000
  C   C119      1.0  0.6399399999999998  0.11836999999999996  0.54526  1.0000
  C   C120      1.0  0.7222699999999997  0.18562999999999993  0.62521  1.0000
  N   N1        1.0  0.58421  0.4190999999999999  0.3803799999999999  1.0000
  N   N2        1.0  0.4629099999999999  0.17558999999999994  0.2021  1.0000
  N   N3        1.0  0.07163999999999987  0.8894899999999998  0.65624  1.0000
  N   N4        1.0  0.16360000000000002  0.57867  0.11844999999999997  1.0000
  N   N5        1.0  0.2865999999999999  0.8224799999999998  0.29733  1.0000
  N   N6        1.0  0.18258999999999995  0.1104799999999999  0.8435099999999999  1.0000
  N   N7        1.0  0.4157899999999998  0.5809  0.6196199999999997  1.0000
  N   N8        1.0  0.53709  0.82441  0.7979  1.0000
  N   N9        1.0  0.9283599999999997  0.11050999999999997  0.34376  1.0000
  N   N10       1.0  0.83639  0.42132  0.88155  1.0000
  N   N11       1.0  0.7133900000000001  0.17752  0.70266  1.0000
  N   N12       1.0  0.8174099999999999  0.88952  0.15648999999999993  1.0000
  O   O1        1.0  0.27697999999999995  0.013479999999999989  0.59925  1.0000
  O   O2        1.0  0.35441999999999985  0.11649999999999983  0.7525199999999997  1.0000
  O   O3        1.0  0.6708699999999997  0.6933999999999999  0.6997099999999999  1.0000
  O   O4        1.0  0.60927  0.6367899999999999  0.80126  1.0000
  O   O5        1.0  0.6232999999999997  0.4408299999999999  0.6151099999999998  1.0000
  O   O6        1.0  0.4141  0.24322999999999995  0.41583  1.0000
  O   O7        1.0  0.5614399999999999  0.22697  0.42058  1.0000
  O   O8        1.0  0.26111  0.98572  0.9018  1.0000
  O   O9        1.0  0.23645999999999984  0.8839199999999998  0.7486199999999997  1.0000
  O   O10       1.0  0.9779299999999997  0.30584999999999996  0.8000999999999998  1.0000
  O   O11       1.0  0.9732699999999999  0.3663399999999998  0.7017099999999997  1.0000
  O   O12       1.0  0.18420999999999976  0.5599099999999996  0.8848699999999998  1.0000
  O   O13       1.0  0.17157999999999995  0.75519  0.08381  1.0000
  O   O14       1.0  0.33616  0.77356  0.07957  1.0000
  O   O15       1.0  0.7230199999999996  0.9865199999999995  0.40075  1.0000
  O   O16       1.0  0.6455799999999998  0.88349  0.24746999999999994  1.0000
  O   O17       1.0  0.3291299999999999  0.30658999999999986  0.3002899999999999  1.0000
  O   O18       1.0  0.39071999999999996  0.36320999999999987  0.19872999999999993  1.0000
  O   O19       1.0  0.37669999999999987  0.5591599999999998  0.38488999999999995  1.0000
  O   O20       1.0  0.58589  0.75676  0.58417  1.0000
  O   O21       1.0  0.43856  0.77302  0.57942  1.0000
  O   O22       1.0  0.7388799999999998  0.014279999999999998  0.0982  1.0000
  O   O23       1.0  0.76353  0.11608  0.25138  1.0000
  O   O24       1.0  0.02206999999999988  0.6941499999999998  0.19989999999999997  1.0000
  O   O25       1.0  0.02671999999999999  0.63365  0.2982799999999999  1.0000
  O   O26       1.0  0.81579  0.44008  0.11512999999999997  1.0000
  O   O27       1.0  0.82841  0.2448  0.91619  1.0000
  O   O28       1.0  0.66384  0.22643999999999995  0.92043  1.0000
