data_image0
_chemical_formula_structural       Ni6H108C168N24O24
_chemical_formula_sum              "Ni6 H108 C168 N24 O24"
_cell_length_a       8.02523
_cell_length_b       18.73207
_cell_length_c       29.551809999999996
_cell_angle_alpha    90.04461
_cell_angle_beta     89.95576
_cell_angle_gamma    93.50478000000001

_symmetry_space_group_name_H-M    'P 1'
_symmetry_Int_Tables_number       1

loop_
  _symmetry_equiv_pos_as_xyz
  'x,y,z'

loop_
  _atom_site_type_symbol
  _atom_site_label
  _atom_site_symmetry_multiplicity
  _atom_site_fract_x
  _atom_site_fract_y
  _atom_site_fract_z
  _atom_site_occupancy
  Ni  Ni1       1.0  0.9708399999999998  0.2773  0.25638000000000005  1.0000
  Ni  Ni2       1.0  0.028999999999999995  0.22313  0.75638  1.0000
  Ni  Ni3       1.0  0.02915999999999999  0.72272  0.7436700000000003  1.0000
  Ni  Ni4       1.0  0.9714399999999999  0.77661  0.24375000000000005  1.0000
  Ni  Ni5       1.0  0.0008500000000000097  0.49968000000000007  0.4996700000000001  1.0000
  Ni  Ni6       1.0  0.9995299999999999  1.0000000000000226e-05  0.9999200000000001  1.0000
  H   H1        1.0  0.4158  0.44618  0.42105000000000004  1.0000
  H   H2        1.0  0.52252  0.66695  0.3850600000000001  1.0000
  H   H3        1.0  0.19877  0.53339  0.30053000000000013  1.0000
  H   H4        1.0  0.70874  0.46465000000000006  0.4391600000000001  1.0000
  H   H5        1.0  0.82215  0.64516  0.5212400000000001  1.0000
  H   H6        1.0  0.5435  0.67088  0.46824000000000005  1.0000
  H   H7        1.0  0.05273999999999999  0.64817  0.3066500000000001  1.0000
  H   H8        1.0  0.56836  0.71845  0.30305  1.0000
  H   H9        1.0  0.3846399999999999  0.81008  0.25322  1.0000
  H   H10       1.0  0.11909000000000002  0.43034000000000006  0.2811300000000001  1.0000
  H   H11       1.0  0.1299  0.23955000000000004  0.35530000000000006  1.0000
  H   H12       1.0  0.29245999999999994  0.34807  0.4058000000000001  1.0000
  H   H13       1.0  0.22155  0.70068  0.53211  1.0000
  H   H14       1.0  0.29073  0.83129  0.53646  1.0000
  H   H15       1.0  0.21176  0.84795  0.3926800000000001  1.0000
  H   H16       1.0  0.14145  0.71725  0.38911  1.0000
  H   H17       1.0  0.16838999999999998  0.93236  0.5348300000000001  1.0000
  H   H18       1.0  0.34928  0.13478  0.48007000000000005  1.0000
  H   H19       1.0  0.39537  0.9422  0.4031300000000001  1.0000
  H   H20       1.0  0.33714  0.18164  0.4119100000000001  1.0000
  H   H21       1.0  0.50747  0.2545  0.35582  1.0000
  H   H22       1.0  0.79622  0.07436  0.32801000000000013  1.0000
  H   H23       1.0  0.62649  0.0008999999999999999  0.38286  1.0000
  H   H24       1.0  0.40444  0.15741  0.54907  1.0000
  H   H25       1.0  0.34349  0.21332000000000004  0.6228700000000003  1.0000
  H   H26       1.0  0.95757  0.04978  0.64822  1.0000
  H   H27       1.0  0.006000000000000023  0.9968100000000001  0.57265  1.0000
  H   H28       1.0  0.58498  0.054090000000000006  0.9212400000000002  1.0000
  H   H29       1.0  0.47825  0.8333  0.88498  1.0000
  H   H30       1.0  0.80127  0.96697  0.8003800000000002  1.0000
  H   H31       1.0  0.29196  0.03553  0.93974  1.0000
  H   H32       1.0  0.17868  0.85455  0.02122  1.0000
  H   H33       1.0  0.45761  0.82918  0.9681100000000002  1.0000
  H   H34       1.0  0.94846  0.85109  0.80716  1.0000
  H   H35       1.0  0.432  0.78232  0.8029100000000002  1.0000
  H   H36       1.0  0.61569  0.68913  0.75414  1.0000
  H   H37       1.0  0.88048  0.07013  0.7811000000000002  1.0000
  H   H38       1.0  0.86986  0.26068  0.8557  1.0000
  H   H39       1.0  0.70768  0.15207  0.9060400000000002  1.0000
  H   H40       1.0  0.77852  0.79887  0.03245  1.0000
  H   H41       1.0  0.70944  0.66816  0.03675000000000001  1.0000
  H   H42       1.0  0.78799  0.65159  0.8928100000000002  1.0000
  H   H43       1.0  0.85765  0.78241  0.8894100000000003  1.0000
  H   H44       1.0  0.83156  0.56704  0.034950000000000016  1.0000
  H   H45       1.0  0.65151  0.36461  0.97976  1.0000
  H   H46       1.0  0.6049  0.55741  0.9033  1.0000
  H   H47       1.0  0.66169  0.31782  0.9118000000000002  1.0000
  H   H48       1.0  0.49013  0.24553000000000003  0.85556  1.0000
  H   H49       1.0  0.20394  0.42624  0.8281000000000002  1.0000
  H   H50       1.0  0.37407  0.49942000000000003  0.88311  1.0000
  H   H51       1.0  0.59518  0.34203  0.04907  1.0000
  H   H52       1.0  0.6548  0.28661  0.12302000000000003  1.0000
  H   H53       1.0  0.0401  0.45011  0.14854000000000006  1.0000
  H   H54       1.0  0.99379  0.50266  0.07279000000000002  1.0000
  H   H55       1.0  0.5847  0.55395  0.57878  1.0000
  H   H56       1.0  0.47736  0.3333  0.61493  1.0000
  H   H57       1.0  0.80048  0.46699999999999997  0.69957  1.0000
  H   H58       1.0  0.29165  0.53529  0.56021  1.0000
  H   H59       1.0  0.17923  0.35405  0.4787400000000001  1.0000
  H   H60       1.0  0.45791  0.32894  0.5318900000000002  1.0000
  H   H61       1.0  0.9473699999999998  0.35195000000000004  0.69313  1.0000
  H   H62       1.0  0.4317  0.28173  0.69699  1.0000
  H   H63       1.0  0.61587  0.18957  0.7462500000000002  1.0000
  H   H64       1.0  0.88046  0.56989  0.71886  1.0000
  H   H65       1.0  0.87051  0.7606400000000001  0.6446900000000002  1.0000
  H   H66       1.0  0.70781  0.65224  0.59414  1.0000
  H   H67       1.0  0.7789  0.2992  0.46780000000000005  1.0000
  H   H68       1.0  0.70931  0.16863  0.4635700000000001  1.0000
  H   H69       1.0  0.78771  0.15223  0.6073900000000002  1.0000
  H   H70       1.0  0.85814  0.28294  0.61087  1.0000
  H   H71       1.0  0.83159  0.0679  0.4652900000000001  1.0000
  H   H72       1.0  0.65126  0.8652600000000001  0.51993  1.0000
  H   H73       1.0  0.60435  0.0577  0.59693  1.0000
  H   H74       1.0  0.6628199999999999  0.81819  0.5880200000000002  1.0000
  H   H75       1.0  0.4923999999999999  0.74531  0.6440600000000002  1.0000
  H   H76       1.0  0.20371  0.92543  0.67194  1.0000
  H   H77       1.0  0.37334  0.9989500000000001  0.61709  1.0000
  H   H78       1.0  0.59543  0.84292  0.4506400000000001  1.0000
  H   H79       1.0  0.65761  0.78682  0.37697  1.0000
  H   H80       1.0  0.04368000000000001  0.9502299999999999  0.3518500000000001  1.0000
  H   H81       1.0  0.99416  0.00349  0.42721  1.0000
  H   H82       1.0  0.41397  0.94608  0.07871  1.0000
  H   H83       1.0  0.52168  0.16678  0.11503000000000002  1.0000
  H   H84       1.0  0.19877  0.03322  0.19971  1.0000
  H   H85       1.0  0.70729  0.96454  0.060140000000000006  1.0000
  H   H86       1.0  0.82099  0.14557  0.97877  1.0000
  H   H87       1.0  0.54237  0.17109  0.03192  1.0000
  H   H88       1.0  0.05163  0.149  0.19292000000000006  1.0000
  H   H89       1.0  0.56821  0.2178  0.19719  1.0000
  H   H90       1.0  0.38443  0.31093  0.24601000000000006  1.0000
  H   H91       1.0  0.11660999999999998  0.93023  0.21869  1.0000
  H   H92       1.0  0.1282  0.7396  0.14436  1.0000
  H   H93       1.0  0.29238999999999987  0.84789  0.09412000000000002  1.0000
  H   H94       1.0  0.22138  0.20114  0.9675700000000003  1.0000
  H   H95       1.0  0.29082  0.33175  0.9632800000000002  1.0000
  H   H96       1.0  0.21195  0.34833  0.10722000000000002  1.0000
  H   H97       1.0  0.14194  0.21755000000000002  0.11060000000000003  1.0000
  H   H98       1.0  0.16849  0.43307000000000007  0.9652900000000002  1.0000
  H   H99       1.0  0.34987  0.63553  0.02025  1.0000
  H   H100      1.0  0.39651999999999993  0.44282  0.09677  1.0000
  H   H101      1.0  0.33765  0.68228  0.08836000000000001  1.0000
  H   H102      1.0  0.50615  0.75481  0.14501000000000006  1.0000
  H   H103      1.0  0.7947  0.57481  0.17261000000000007  1.0000
  H   H104      1.0  0.62686  0.50146  0.11716000000000003  1.0000
  H   H105      1.0  0.40513  0.65807  0.95099  1.0000
  H   H106      1.0  0.3453  0.71343  0.8771000000000002  1.0000
  H   H107      1.0  0.96007  0.54982  0.8516600000000002  1.0000
  H   H108      1.0  0.006750000000000012  0.4973000000000001  0.92736  1.0000
  C   C1        1.0  0.3993799999999999  0.48971  0.39759  1.0000
  C   C2        1.0  0.47816999999999993  0.55681  0.40628  1.0000
  C   C3        1.0  0.4585099999999999  0.61533  0.3781700000000001  1.0000
  C   C4        1.0  0.35327  0.60562  0.3408600000000001  1.0000
  C   C5        1.0  0.27558  0.53886  0.3306800000000001  1.0000
  C   C6        1.0  0.29996  0.48061  0.35899  1.0000
  C   C7        1.0  0.69942  0.51583  0.45556000000000013  1.0000
  C   C8        1.0  0.75347  0.61116  0.4972300000000001  1.0000
  C   C9        1.0  0.6202  0.62545  0.47034  1.0000
  C   C10       1.0  0.1658  0.67935  0.29763000000000006  1.0000
  C   C11       1.0  0.43498  0.7180700000000001  0.2969500000000001  1.0000
  C   C12       1.0  0.34199  0.76306  0.27215  1.0000
  C   C13       1.0  0.14315  0.39392  0.30843  1.0000
  C   C14       1.0  0.15195  0.29603  0.34808  1.0000
  C   C15       1.0  0.23235999999999996  0.34919  0.3731700000000001  1.0000
  C   C16       1.0  0.17657  0.7003100000000001  0.46022000000000013  1.0000
  C   C17       1.0  0.2203  0.73315  0.50166  1.0000
  C   C18       1.0  0.25714  0.80675  0.50404  1.0000
  C   C19       1.0  0.25194  0.84979  0.4650100000000001  1.0000
  C   C20       1.0  0.21627  0.81595  0.42328000000000005  1.0000
  C   C21       1.0  0.17764  0.74258  0.42102  1.0000
  C   C22       1.0  0.27784  0.9284200000000001  0.46841000000000005  1.0000
  C   C23       1.0  0.22615000000000002  0.9636300000000001  0.5074200000000001  1.0000
  C   C24       1.0  0.25088  0.03804  0.51222  1.0000
  C   C25       1.0  0.32658  0.07725  0.47656  1.0000
  C   C26       1.0  0.37975  0.04361000000000001  0.43715  1.0000
  C   C27       1.0  0.35372  0.9690100000000001  0.4333700000000001  1.0000
  C   C28       1.0  0.4702099999999999  0.0861  0.4017700000000001  1.0000
  C   C29       1.0  0.43806  0.15811  0.39362000000000014  1.0000
  C   C30       1.0  0.53262  0.19902  0.36242000000000013  1.0000
  C   C31       1.0  0.66335  0.16902  0.33891  1.0000
  C   C32       1.0  0.69424  0.09705  0.34624000000000005  1.0000
  C   C33       1.0  0.598  0.05605000000000001  0.3768900000000001  1.0000
  C   C34       1.0  0.77174  0.21271  0.3072  1.0000
  C   C35       1.0  0.20878  0.0732  0.55509  1.0000
  C   C36       1.0  0.30203  0.13504  0.56978  1.0000
  C   C37       1.0  0.27043  0.16589  0.6115100000000002  1.0000
  C   C38       1.0  0.14695  0.13506  0.6402500000000001  1.0000
  C   C39       1.0  0.05384  0.0733  0.6259100000000002  1.0000
  C   C40       1.0  0.08261  0.04347  0.58369  1.0000
  C   C41       1.0  0.11181  0.16838  0.6846700000000001  1.0000
  C   C42       1.0  0.11689  0.62288  0.45689000000000013  1.0000
  C   C43       1.0  0.6012  0.010560000000000002  0.8977000000000003  1.0000
  C   C44       1.0  0.52253  0.94343  0.9063500000000002  1.0000
  C   C45       1.0  0.5422399999999999  0.88494  0.8781600000000003  1.0000
  C   C46       1.0  0.6473899999999998  0.89468  0.8408000000000002  1.0000
  C   C47       1.0  0.7248  0.96146  0.8306100000000002  1.0000
  C   C48       1.0  0.70024  0.01971  0.8589900000000003  1.0000
  C   C49       1.0  0.30124  0.9841899999999999  0.9558700000000002  1.0000
  C   C50       1.0  0.24727  0.88864  0.9972700000000002  1.0000
  C   C51       1.0  0.3805799999999999  0.87452  0.9702900000000002  1.0000
  C   C52       1.0  0.83525  0.82013  0.7980300000000002  1.0000
  C   C53       1.0  0.56553  0.78215  0.7971000000000003  1.0000
  C   C54       1.0  0.6584699999999998  0.73646  0.7727500000000003  1.0000
  C   C55       1.0  0.85675  0.10652  0.8084600000000002  1.0000
  C   C56       1.0  0.84804  0.20426  0.8483200000000001  1.0000
  C   C57       1.0  0.76757  0.15107  0.8733500000000002  1.0000
  C   C58       1.0  0.82298  0.79902  0.9605000000000002  1.0000
  C   C59       1.0  0.77956  0.76635  0.00198  1.0000
  C   C60       1.0  0.74264  0.69276  0.00434  1.0000
  C   C61       1.0  0.74805  0.64972  0.9652700000000002  1.0000
  C   C62       1.0  0.78308  0.68347  0.9234800000000002  1.0000
  C   C63       1.0  0.82158  0.75681  0.92125  1.0000
  C   C64       1.0  0.72264  0.57112  0.9685500000000002  1.0000
  C   C65       1.0  0.77411  0.53583  0.0074800000000000005  1.0000
  C   C66       1.0  0.74936  0.46142000000000005  0.012180000000000003  1.0000
  C   C67       1.0  0.67409  0.4222  0.97644  1.0000
  C   C68       1.0  0.62072  0.45601  0.93716  1.0000
  C   C69       1.0  0.64668  0.5306  0.9334900000000003  1.0000
  C   C70       1.0  0.52946  0.41373  0.9018400000000002  1.0000
  C   C71       1.0  0.56094  0.34163  0.89362  1.0000
  C   C72       1.0  0.46614  0.30106  0.8623300000000003  1.0000
  C   C73       1.0  0.3363  0.33142  0.8388200000000002  1.0000
  C   C74       1.0  0.30564  0.40339  0.8463200000000002  1.0000
  C   C75       1.0  0.4019  0.44414000000000003  0.8770800000000002  1.0000
  C   C76       1.0  0.22852  0.2879  0.8070000000000003  1.0000
  C   C77       1.0  0.79085  0.42637  0.05510000000000002  1.0000
  C   C78       1.0  0.69726  0.36462  0.06979000000000003  1.0000
  C   C79       1.0  0.7281  0.33393  0.11157000000000003  1.0000
  C   C80       1.0  0.85121  0.36484  0.14033  1.0000
  C   C81       1.0  0.9445299999999998  0.42654  0.12606000000000003  1.0000
  C   C82       1.0  0.91663  0.45616  0.08379  1.0000
  C   C83       1.0  0.88654  0.33176  0.18474000000000004  1.0000
  C   C84       1.0  0.8833200000000001  0.8762600000000001  0.9571900000000002  1.0000
  C   C85       1.0  0.60083  0.51049  0.6023100000000002  1.0000
  C   C86       1.0  0.5221  0.44337000000000004  0.5936500000000002  1.0000
  C   C87       1.0  0.54143  0.38491  0.62184  1.0000
  C   C88       1.0  0.64652  0.39466  0.65918  1.0000
  C   C89       1.0  0.72397  0.46146000000000004  0.6693700000000002  1.0000
  C   C90       1.0  0.69984  0.51966  0.64098  1.0000
  C   C91       1.0  0.30141  0.48397999999999997  0.54401  1.0000
  C   C92       1.0  0.24785  0.38828  0.50263  1.0000
  C   C93       1.0  0.38098  0.37429  0.52965  1.0000
  C   C94       1.0  0.83444  0.3207  0.7021800000000002  1.0000
  C   C95       1.0  0.56518  0.28203  0.70295  1.0000
  C   C96       1.0  0.6584  0.23679  0.7275000000000001  1.0000
  C   C97       1.0  0.8566  0.60629  0.6915500000000002  1.0000
  C   C98       1.0  0.84828  0.70418  0.65189  1.0000
  C   C99       1.0  0.76778  0.65107  0.62678  1.0000
  C   C100      1.0  0.8231599999999999  0.2997  0.53971  1.0000
  C   C101      1.0  0.77964  0.2667900000000001  0.49829000000000007  1.0000
  C   C102      1.0  0.74265  0.19321  0.4959800000000001  1.0000
  C   C103      1.0  0.74767  0.15026  0.53505  1.0000
  C   C104      1.0  0.78317  0.18418  0.57677  1.0000
  C   C105      1.0  0.82186  0.25755  0.57898  1.0000
  C   C106      1.0  0.72192  0.07164  0.53166  1.0000
  C   C107      1.0  0.7736799999999998  0.03652  0.4926200000000001  1.0000
  C   C108      1.0  0.74917  0.96213  0.4877400000000001  1.0000
  C   C109      1.0  0.6736  0.92281  0.5234000000000002  1.0000
  C   C110      1.0  0.62039  0.95636  0.5628600000000002  1.0000
  C   C111      1.0  0.64611  0.030960000000000005  0.56668  1.0000
  C   C112      1.0  0.52998  0.9137900000000001  0.5982200000000002  1.0000
  C   C113      1.0  0.56201  0.84176  0.6063400000000002  1.0000
  C   C114      1.0  0.4674099999999999  0.80083  0.6375300000000003  1.0000
  C   C115      1.0  0.33677  0.83086  0.66106  1.0000
  C   C116      1.0  0.30586  0.90282  0.6537200000000002  1.0000
  C   C117      1.0  0.4020599999999999  0.94382  0.6230700000000002  1.0000
  C   C118      1.0  0.22835  0.78722  0.69278  1.0000
  C   C119      1.0  0.7913  0.9271300000000001  0.44479000000000013  1.0000
  C   C120      1.0  0.69805  0.8653200000000001  0.4300200000000001  1.0000
  C   C121      1.0  0.73019  0.83437  0.38836000000000004  1.0000
  C   C122      1.0  0.85403  0.8650300000000001  0.3597100000000001  1.0000
  C   C123      1.0  0.94694  0.92685  0.37404  1.0000
  C   C124      1.0  0.91754  0.9568200000000001  0.41619  1.0000
  C   C125      1.0  0.88979  0.83142  0.3154100000000001  1.0000
  C   C126      1.0  0.88321  0.37709  0.5429000000000003  1.0000
  C   C127      1.0  0.39812  0.9895900000000001  0.10228  1.0000
  C   C128      1.0  0.47710999999999987  0.05668  0.09365000000000002  1.0000
  C   C129      1.0  0.4576699999999999  0.11515000000000002  0.12186000000000001  1.0000
  C   C130      1.0  0.35261  0.10543  0.15924000000000005  1.0000
  C   C131      1.0  0.27504  0.03868  0.16944  1.0000
  C   C132      1.0  0.29909  0.9804600000000001  0.14100000000000004  1.0000
  C   C133      1.0  0.69805  0.0159  0.04404000000000002  1.0000
  C   C134      1.0  0.75229  0.11149000000000002  0.0027  1.0000
  C   C135      1.0  0.61912  0.12567  0.029720000000000007  1.0000
  C   C136      1.0  0.1649  0.17998  0.20204000000000003  1.0000
  C   C137      1.0  0.43464  0.21795  0.20299  1.0000
  C   C138      1.0  0.34168  0.26362  0.22736  1.0000
  C   C139      1.0  0.14132999999999996  0.89377  0.19143  1.0000
  C   C140      1.0  0.15054  0.796  0.15168000000000006  1.0000
  C   C141      1.0  0.23149  0.84909  0.12668  1.0000
  C   C142      1.0  0.17674999999999993  0.20091  0.0395  1.0000
  C   C143      1.0  0.22034  0.23365  0.99805  1.0000
  C   C144      1.0  0.25757  0.30723  0.9957200000000003  1.0000
  C   C145      1.0  0.25243  0.3503  0.0348  1.0000
  C   C146      1.0  0.21696  0.31648  0.07655000000000003  1.0000
  C   C147      1.0  0.17813999999999994  0.24313000000000004  0.07876000000000001  1.0000
  C   C148      1.0  0.27835  0.42897  0.03157000000000001  1.0000
  C   C149      1.0  0.22646  0.46428  0.9926900000000002  1.0000
  C   C150      1.0  0.25145  0.53868  0.98794  1.0000
  C   C151      1.0  0.3270999999999999  0.57795  0.02362  1.0000
  C   C152      1.0  0.38024  0.54425  0.06296  1.0000
  C   C153      1.0  0.35457  0.46958  0.06659  1.0000
  C   C154      1.0  0.47046  0.58673  0.09842  1.0000
  C   C155      1.0  0.43813  0.65871  0.10677000000000003  1.0000
  C   C156      1.0  0.53181  0.69944  0.13827  1.0000
  C   C157      1.0  0.66186  0.66922  0.16183  1.0000
  C   C158      1.0  0.69304  0.59736  0.15424000000000004  1.0000
  C   C159      1.0  0.5978699999999999  0.55654  0.12331000000000003  1.0000
  C   C160      1.0  0.77087  0.71223  0.19365000000000004  1.0000
  C   C161      1.0  0.2095  0.5737  0.94505  1.0000
  C   C162      1.0  0.30294  0.63547  0.9303200000000003  1.0000
  C   C163      1.0  0.27191  0.66613  0.8885500000000002  1.0000
  C   C164      1.0  0.1488  0.6352000000000001  0.85979  1.0000
  C   C165      1.0  0.05559  0.57349  0.8741200000000002  1.0000
  C   C166      1.0  0.0837  0.54387  0.9163800000000002  1.0000
  C   C167      1.0  0.11355999999999998  0.66818  0.8153300000000002  1.0000
  C   C168      1.0  0.11649  0.12361  0.04273000000000001  1.0000
  N   N1        1.0  0.80097  0.54283  0.4875600000000001  1.0000
  N   N2        1.0  0.58736  0.56463  0.4440000000000001  1.0000
  N   N3        1.0  0.17547  0.73858  0.27306  1.0000
  N   N4        1.0  0.32145  0.66451  0.31281  1.0000
  N   N5        1.0  0.09786  0.32475  0.30797000000000013  1.0000
  N   N6        1.0  0.22642  0.41192  0.3478600000000001  1.0000
  N   N7        1.0  0.19960000000000003  0.95699  0.9878200000000003  1.0000
  N   N8        1.0  0.41329999999999995  0.93546  0.9441000000000003  1.0000
  N   N9        1.0  0.82535  0.76042  0.7738300000000002  1.0000
  N   N10       1.0  0.67941  0.8356800000000001  0.8128000000000002  1.0000
  N   N11       1.0  0.90217  0.17569  0.8081100000000002  1.0000
  N   N12       1.0  0.77351  0.08842  0.8479000000000002  1.0000
  N   N13       1.0  0.20024  0.45668  0.51202  1.0000
  N   N14       1.0  0.41347  0.43533  0.55581  1.0000
  N   N15       1.0  0.8250099999999998  0.26121  0.7265400000000002  1.0000
  N   N16       1.0  0.67859  0.33573  0.6872000000000003  1.0000
  N   N17       1.0  0.9020599999999999  0.67545  0.6920300000000003  1.0000
  N   N18       1.0  0.77341  0.58834  0.65211  1.0000
  N   N19       1.0  0.79966  0.04307  0.012080000000000004  1.0000
  N   N20       1.0  0.58618  0.06467  0.05586  1.0000
  N   N21       1.0  0.17481  0.23962999999999998  0.22628  1.0000
  N   N22       1.0  0.32074  0.16443000000000002  0.18726000000000007  1.0000
  N   N23       1.0  0.09604  0.82461  0.19182  1.0000
  N   N24       1.0  0.22527000000000003  0.91181  0.15207000000000007  1.0000
  O   O1        1.0  0.11682000000000001  0.58916  0.4962  1.0000
  O   O2        1.0  0.06751  0.59629  0.4204700000000001  1.0000
  O   O3        1.0  0.90159  0.18491  0.2907300000000001  1.0000
  O   O4        1.0  0.74012  0.27664  0.29724  1.0000
  O   O5        1.0  0.02206  0.1329  0.7138800000000002  1.0000
  O   O6        1.0  0.16689000000000004  0.2326  0.6932500000000003  1.0000
  O   O7        1.0  0.88382  0.9099499999999999  0.9966000000000003  1.0000
  O   O8        1.0  0.93264  0.9024000000000001  0.9206500000000002  1.0000
  O   O9        1.0  0.09948999999999997  0.31623  0.7905300000000002  1.0000
  O   O10       1.0  0.25953  0.22387  0.7969700000000001  1.0000
  O   O11       1.0  0.97575  0.36748  0.21390000000000006  1.0000
  O   O12       1.0  0.83252  0.26741  0.19327  1.0000
  O   O13       1.0  0.88376  0.41055  0.50345  1.0000
  O   O14       1.0  0.93237  0.40375  0.57932  1.0000
  O   O15       1.0  0.09861999999999999  0.81509  0.7092700000000002  1.0000
  O   O16       1.0  0.25981  0.72329  0.7027400000000003  1.0000
  O   O17       1.0  0.98154  0.86621  0.28635  1.0000
  O   O18       1.0  0.83321  0.7673700000000001  0.3068500000000001  1.0000
  O   O19       1.0  0.11572  0.09007  0.0032600000000000007  1.0000
  O   O20       1.0  0.06752  0.09729  0.07926  1.0000
  O   O21       1.0  0.90071  0.68372  0.20950000000000005  1.0000
  O   O22       1.0  0.74033  0.7760300000000001  0.20436  1.0000
  O   O23       1.0  0.024610000000000003  0.63241  0.7861500000000001  1.0000
  O   O24       1.0  0.16751  0.73254  0.8067700000000001  1.0000
