data_image0
_chemical_formula_structural       Ni6H76C120N24O24
_chemical_formula_sum              "Ni6 H76 C120 N24 O24"
_cell_length_a       13.39638
_cell_length_b       13.47188
_cell_length_c       23.507060000000003
_cell_angle_alpha    77.85662
_cell_angle_beta     73.35312
_cell_angle_gamma    60.22397000000001

_symmetry_space_group_name_H-M    'P 1'
_symmetry_Int_Tables_number       1

loop_
  _symmetry_equiv_pos_as_xyz
  'x,y,z'

loop_
  _atom_site_type_symbol
  _atom_site_label
  _atom_site_symmetry_multiplicity
  _atom_site_fract_x
  _atom_site_fract_y
  _atom_site_fract_z
  _atom_site_occupancy
  Ni  Ni1       1.0  0.5382799999999999  0.6765199999999999  0.55016  1.0000
  Ni  Ni2       1.0  0.76586  0.82345  0.94994  1.0000
  Ni  Ni3       1.0  0.46171999999999996  0.32348  0.44984  1.0000
  Ni  Ni4       1.0  0.23413999999999996  0.17656  0.05006000000000001  1.0000
  Ni  Ni5       1.0  0.19421999999999998  0.7523  0.24995  1.0000
  Ni  Ni6       1.0  0.8057799999999999  0.24770999999999999  0.7500500000000001  1.0000
  H   H1        1.0  0.75892  0.94698  0.11527  1.0000
  H   H2        1.0  0.76875  0.11578  0.24940999999999997  1.0000
  H   H3        1.0  0.43805000000000005  0.21298000000000003  0.20762  1.0000
  H   H4        1.0  0.92934  0.9371199999999998  0.26256  1.0000
  H   H5        1.0  0.16655  0.76972  0.11036  1.0000
  H   H6        1.0  0.9466700000000001  0.9035799999999999  0.0826  1.0000
  H   H7        1.0  0.5958  0.13864000000000007  0.3543  1.0000
  H   H8        1.0  0.3392999999999998  0.48619  0.34196  1.0000
  H   H9        1.0  0.4304  0.4113  0.22874  1.0000
  H   H10       1.0  0.38154  0.23930000000000004  0.11632  1.0000
  H   H11       1.0  0.4559799999999998  0.93369  0.05396  1.0000
  H   H12       1.0  0.6342599999999999  0.88616  0.10814  1.0000
  H   H13       1.0  0.04289  0.05026  0.37484  1.0000
  H   H14       1.0  0.3732799999999998  0.7556400000000001  0.3926  1.0000
  H   H15       1.0  0.2270199999999999  0.03468000000000001  0.50254  1.0000
  H   H16       1.0  0.88731  0.14360000000000003  0.47095  1.0000
  H   H17       1.0  0.16483999999999996  0.23231999999999997  0.44977000000000006  1.0000
  H   H18       1.0  0.01852999999999999  0.42565  0.4794399999999999  1.0000
  H   H19       1.0  0.74027  0.3375  0.50395  1.0000
  H   H20       1.0  0.8219600000000001  0.55403  0.38472  1.0000
  H   H21       1.0  0.13446000000000002  0.38665  0.24996  1.0000
  H   H22       1.0  0.85984  0.28786  0.29244  1.0000
  H   H23       1.0  0.12758  0.5675  0.23692  1.0000
  H   H24       1.0  0.04511999999999999  0.73261  0.38989  1.0000
  H   H25       1.0  0.9335099999999998  0.59655  0.41742999999999997  1.0000
  H   H26       1.0  0.08829999999999999  0.36237  0.14511  1.0000
  H   H27       1.0  0.16545999999999997  0.014800000000000002  0.15882  1.0000
  H   H28       1.0  0.07150000000000001  0.09019000000000002  0.27186  1.0000
  H   H29       1.0  0.7379699999999998  0.26116  0.38398  1.0000
  H   H30       1.0  0.44408999999999993  0.56688  0.44577999999999995  1.0000
  H   H31       1.0  0.6292699999999996  0.61463  0.3918  1.0000
  H   H32       1.0  0.46612999999999993  0.45084  0.12519  1.0000
  H   H33       1.0  0.5207099999999998  0.74521  0.10783  1.0000
  H   H34       1.0  0.7638100000000003  0.46607  0.99816  1.0000
  H   H35       1.0  0.5008  0.35699  0.029429999999999998  1.0000
  H   H36       1.0  0.84535  0.26809  0.05129  1.0000
  H   H37       1.0  0.92202  0.07473  0.02126  1.0000
  H   H38       1.0  0.5807399999999999  0.16304000000000005  0.99645  1.0000
  H   H39       1.0  0.24108000000000002  0.053029999999999994  0.88473  1.0000
  H   H40       1.0  0.2312500000000003  0.8842199999999999  0.75059  1.0000
  H   H41       1.0  0.5619600000000001  0.78703  0.7923799999999999  1.0000
  H   H42       1.0  0.07065999999999999  0.06288999999999999  0.73744  1.0000
  H   H43       1.0  0.8334500000000001  0.23029  0.8896399999999999  1.0000
  H   H44       1.0  0.05333000000000001  0.09643  0.9174  1.0000
  H   H45       1.0  0.40421000000000007  0.86137  0.6457  1.0000
  H   H46       1.0  0.6606999999999995  0.51382  0.65804  1.0000
  H   H47       1.0  0.5695999999999998  0.58871  0.77126  1.0000
  H   H48       1.0  0.6184599999999999  0.7607  0.88368  1.0000
  H   H49       1.0  0.54402  0.06632  0.94604  1.0000
  H   H50       1.0  0.36573999999999984  0.11385000000000003  0.8918599999999999  1.0000
  H   H51       1.0  0.9571100000000002  0.94975  0.62516  1.0000
  H   H52       1.0  0.62673  0.24437  0.6074  1.0000
  H   H53       1.0  0.7729800000000001  0.9653300000000001  0.49746  1.0000
  H   H54       1.0  0.11269000000000003  0.85641  0.52906  1.0000
  H   H55       1.0  0.83516  0.7676900000000001  0.55023  1.0000
  H   H56       1.0  0.98147  0.57436  0.52056  1.0000
  H   H57       1.0  0.25972999999999996  0.66251  0.49605  1.0000
  H   H58       1.0  0.17804  0.44598000000000004  0.61528  1.0000
  H   H59       1.0  0.86554  0.6133600000000001  0.7500399999999999  1.0000
  H   H60       1.0  0.14015999999999995  0.71215  0.70756  1.0000
  H   H61       1.0  0.8724299999999997  0.43251  0.76308  1.0000
  H   H62       1.0  0.9548800000000001  0.2674  0.61011  1.0000
  H   H63       1.0  0.06649000000000005  0.40345999999999993  0.58257  1.0000
  H   H64       1.0  0.9116999999999998  0.63764  0.85489  1.0000
  H   H65       1.0  0.83454  0.98521  0.84118  1.0000
  H   H66       1.0  0.9284999999999998  0.9098200000000001  0.72814  1.0000
  H   H67       1.0  0.2620299999999999  0.7388500000000001  0.61602  1.0000
  H   H68       1.0  0.55591  0.43313  0.55422  1.0000
  H   H69       1.0  0.37072999999999995  0.38538  0.6082  1.0000
  H   H70       1.0  0.5338699999999993  0.5491700000000003  0.87481  1.0000
  H   H71       1.0  0.4792900000000002  0.25479999999999997  0.8921699999999999  1.0000
  H   H72       1.0  0.23618999999999993  0.53393  0.00184  1.0000
  H   H73       1.0  0.49920000000000003  0.64302  0.97057  1.0000
  H   H74       1.0  0.15464999999999987  0.7319200000000001  0.94871  1.0000
  H   H75       1.0  0.07798999999999998  0.92527  0.97874  1.0000
  H   H76       1.0  0.4192600000000001  0.83697  0.00355  1.0000
  C   C1        1.0  0.71366  0.01007  0.14809  1.0000
  C   C2        1.0  0.7767899999999998  0.021070000000000002  0.18242  1.0000
  C   C3        1.0  0.7197599999999998  0.10364  0.22417  1.0000
  C   C4        1.0  0.5979099999999999  0.17259  0.23194999999999996  1.0000
  C   C5        1.0  0.5332699999999999  0.16263999999999998  0.19836  1.0000
  C   C6        1.0  0.59216  0.08147  0.15625  1.0000
  C   C7        1.0  0.9646899999999996  0.91081  0.21761  1.0000
  C   C8        1.0  0.0837399999999999  0.8242400000000001  0.13803  1.0000
  C   C9        1.0  0.9757599999999998  0.8911400000000002  0.12355  1.0000
  C   C10       1.0  0.53845  0.22259  0.33616  1.0000
  C   C11       1.0  0.40397  0.40177  0.3275  1.0000
  C   C12       1.0  0.44893999999999995  0.36512  0.27122  1.0000
  C   C13       1.0  0.42277999999999993  0.14976  0.10844  1.0000
  C   C14       1.0  0.4680099999999999  0.9893  0.07531  1.0000
  C   C15       1.0  0.55593  0.96527  0.10249  1.0000
  C   C16       1.0  0.20112000000000005  0.84263  0.33167  1.0000
  C   C17       1.0  0.20751999999999993  0.89779  0.37871  1.0000
  C   C18       1.0  0.11821999999999999  0.006369999999999996  0.39592  1.0000
  C   C19       1.0  0.30429999999999996  0.8397600000000001  0.40599999999999997  1.0000
  C   C20       1.0  0.12601999999999997  0.05895  0.43901  1.0000
  C   C21       1.0  0.30976999999999993  0.8888400000000001  0.45122  1.0000
  C   C22       1.0  0.2217899999999998  0.9982500000000001  0.467  1.0000
  C   C23       1.0  0.03631000000000002  0.17516  0.45649  1.0000
  C   C24       1.0  0.91576  0.20615  0.47177  1.0000
  C   C25       1.0  0.07166999999999998  0.2554199999999999  0.46054  1.0000
  C   C26       1.0  0.9885699999999998  0.36508  0.4774  1.0000
  C   C27       1.0  0.8332700000000001  0.31442000000000003  0.49073  1.0000
  C   C28       1.0  0.8682099999999999  0.39601000000000003  0.49248  1.0000
  C   C29       1.0  0.77686  0.51541  0.50821  1.0000
  C   C30       1.0  0.40292  0.82171  0.48625  1.0000
  C   C31       1.0  0.8726799999999999  0.4909200000000001  0.35192  1.0000
  C   C32       1.0  0.9809099999999998  0.48052  0.31734  1.0000
  C   C33       1.0  0.048329999999999984  0.39816  0.27548  1.0000
  C   C34       1.0  0.003499999999999975  0.32877  0.2679  1.0000
  C   C35       1.0  0.8954199999999999  0.33828  0.30168  1.0000
  C   C36       1.0  0.83093  0.41929  0.34385  1.0000
  C   C37       1.0  0.09186999999999994  0.59296  0.28203  1.0000
  C   C38       1.0  0.04473999999999998  0.6783600000000001  0.36201  1.0000
  C   C39       1.0  0.99036  0.61026  0.37643  1.0000
  C   C40       1.0  0.09709  0.27838  0.16354  1.0000
  C   C41       1.0  0.13234000000000004  0.09925  0.17293  1.0000
  C   C42       1.0  0.08572999999999993  0.13616  0.22917  1.0000
  C   C43       1.0  0.6818399999999999  0.35083  0.39164  1.0000
  C   C44       1.0  0.53321  0.51133  0.42451  1.0000
  C   C45       1.0  0.62443  0.53543  0.39747  1.0000
  C   C46       1.0  0.37312  0.65969  0.1681  1.0000
  C   C47       1.0  0.48238999999999993  0.60351  0.12145000000000002  1.0000
  C   C48       1.0  0.5187999999999999  0.49483000000000005  0.1043  1.0000
  C   C49       1.0  0.54917  0.66114  0.09438999999999999  1.0000
  C   C50       1.0  0.62276  0.44194  0.06138999999999999  1.0000
  C   C51       1.0  0.6493799999999997  0.6118  0.04938  1.0000
  C   C52       1.0  0.68635  0.50243  0.03363  1.0000
  C   C53       1.0  0.66674  0.32567  0.04388  1.0000
  C   C54       1.0  0.5926299999999998  0.2946  0.02852  1.0000
  C   C55       1.0  0.7862999999999998  0.24525000000000002  0.04007  1.0000
  C   C56       1.0  0.8296299999999998  0.13565  0.02316  1.0000
  C   C57       1.0  0.6373599999999998  0.18625  0.00961  1.0000
  C   C58       1.0  0.7555499999999998  0.10476  0.00785  1.0000
  C   C59       1.0  0.80006  0.9853800000000001  0.99193  1.0000
  C   C60       1.0  0.71098  0.67859  0.01417  1.0000
  C   C61       1.0  0.28634000000000015  0.98994  0.8519099999999998  1.0000
  C   C62       1.0  0.2232100000000001  0.97894  0.8175799999999999  1.0000
  C   C63       1.0  0.28025000000000005  0.89636  0.77583  1.0000
  C   C64       1.0  0.40209000000000006  0.82742  0.76805  1.0000
  C   C65       1.0  0.46672999999999987  0.8373699999999998  0.80164  1.0000
  C   C66       1.0  0.4078399999999998  0.91854  0.84375  1.0000
  C   C67       1.0  0.03530999999999999  0.08919999999999999  0.78239  1.0000
  C   C68       1.0  0.91626  0.17577  0.86197  1.0000
  C   C69       1.0  0.02424000000000002  0.10887  0.87645  1.0000
  C   C70       1.0  0.46155000000000024  0.77741  0.66384  1.0000
  C   C71       1.0  0.5960300000000002  0.59824  0.6725  1.0000
  C   C72       1.0  0.5510599999999999  0.63489  0.72878  1.0000
  C   C73       1.0  0.57723  0.85025  0.8915599999999999  1.0000
  C   C74       1.0  0.5319899999999997  0.010710000000000008  0.92469  1.0000
  C   C75       1.0  0.44406999999999985  0.03473999999999998  0.8975100000000001  1.0000
  C   C76       1.0  0.7988799999999999  0.15737  0.66833  1.0000
  C   C77       1.0  0.79248  0.10222000000000003  0.62129  1.0000
  C   C78       1.0  0.88178  0.99364  0.60408  1.0000
  C   C79       1.0  0.6957  0.16025  0.594  1.0000
  C   C80       1.0  0.8739800000000001  0.94105  0.56099  1.0000
  C   C81       1.0  0.6902300000000001  0.11117000000000003  0.54878  1.0000
  C   C82       1.0  0.7782099999999997  0.0017600000000000014  0.533  1.0000
  C   C83       1.0  0.9636899999999996  0.82485  0.54351  1.0000
  C   C84       1.0  0.08424000000000001  0.7938600000000001  0.52823  1.0000
  C   C85       1.0  0.9283299999999999  0.7445900000000001  0.53946  1.0000
  C   C86       1.0  0.011430000000000098  0.6349299999999999  0.5226  1.0000
  C   C87       1.0  0.16672999999999993  0.68559  0.50927  1.0000
  C   C88       1.0  0.13179000000000007  0.604  0.50752  1.0000
  C   C89       1.0  0.22314000000000006  0.48458999999999997  0.49179  1.0000
  C   C90       1.0  0.5970799999999998  0.1783  0.51375  1.0000
  C   C91       1.0  0.12732  0.50909  0.64808  1.0000
  C   C92       1.0  0.019090000000000065  0.51949  0.68266  1.0000
  C   C93       1.0  0.9516699999999999  0.6018399999999999  0.72452  1.0000
  C   C94       1.0  0.99651  0.67124  0.7321  1.0000
  C   C95       1.0  0.10458000000000005  0.66173  0.69832  1.0000
  C   C96       1.0  0.1690699999999999  0.58072  0.65615  1.0000
  C   C97       1.0  0.90813  0.40705  0.7179699999999999  1.0000
  C   C98       1.0  0.9552599999999996  0.32165  0.63799  1.0000
  C   C99       1.0  0.009650000000000034  0.38974  0.62357  1.0000
  C   C100      1.0  0.90291  0.72163  0.83646  1.0000
  C   C101      1.0  0.8676599999999998  0.90076  0.82707  1.0000
  C   C102      1.0  0.9142699999999998  0.8638500000000001  0.77083  1.0000
  C   C103      1.0  0.3181599999999999  0.6491800000000001  0.60836  1.0000
  C   C104      1.0  0.46679000000000004  0.48868  0.5755  1.0000
  C   C105      1.0  0.3755700000000001  0.46458  0.60253  1.0000
  C   C106      1.0  0.6268799999999995  0.3403200000000001  0.8319  1.0000
  C   C107      1.0  0.5176099999999999  0.3965  0.87855  1.0000
  C   C108      1.0  0.48120000000000007  0.50518  0.8956999999999999  1.0000
  C   C109      1.0  0.45082999999999984  0.33887  0.9056100000000001  1.0000
  C   C110      1.0  0.3772400000000001  0.55806  0.9386099999999999  1.0000
  C   C111      1.0  0.35061999999999993  0.3882  0.95062  1.0000
  C   C112      1.0  0.31364999999999993  0.4975800000000001  0.9663699999999998  1.0000
  C   C113      1.0  0.33326000000000006  0.6743300000000002  0.95612  1.0000
  C   C114      1.0  0.40736999999999984  0.70541  0.97148  1.0000
  C   C115      1.0  0.21370000000000003  0.75476  0.95993  1.0000
  C   C116      1.0  0.1703699999999999  0.86436  0.97684  1.0000
  C   C117      1.0  0.36263999999999946  0.8137600000000001  0.99039  1.0000
  C   C118      1.0  0.24444999999999995  0.8952400000000001  0.99215  1.0000
  C   C119      1.0  0.19994  0.01462  0.00807  1.0000
  C   C120      1.0  0.28901999999999983  0.32142  0.98583  1.0000
  N   N1        1.0  0.07546000000000003  0.83646  0.19661  1.0000
  N   N2        1.0  0.8999100000000001  0.94693  0.17457  1.0000
  N   N3        1.0  0.4597999999999999  0.3121  0.36728000000000005  1.0000
  N   N4        1.0  0.53532  0.25133  0.277  1.0000
  N   N5        1.0  0.38627999999999996  0.10401  0.07915  1.0000
  N   N6        1.0  0.5265999999999997  0.06712  0.12394  1.0000
  N   N7        1.0  0.10645999999999996  0.66764  0.30324  1.0000
  N   N8        1.0  0.02135999999999997  0.55525  0.32517  1.0000
  N   N9        1.0  0.13805999999999993  0.18868000000000001  0.13271  1.0000
  N   N10       1.0  0.06461999999999998  0.24988000000000002  0.22291  1.0000
  N   N11       1.0  0.5701199999999995  0.39656  0.42075  1.0000
  N   N12       1.0  0.7185999999999999  0.43351000000000006  0.37618999999999997  1.0000
  N   N13       1.0  0.92454  0.16355000000000003  0.8033899999999999  1.0000
  N   N14       1.0  0.10009  0.05308000000000001  0.82543  1.0000
  N   N15       1.0  0.5401999999999999  0.6879100000000002  0.63272  1.0000
  N   N16       1.0  0.4646800000000001  0.74868  0.723  1.0000
  N   N17       1.0  0.6137200000000002  0.8959999999999999  0.92085  1.0000
  N   N18       1.0  0.4733999999999999  0.93289  0.87606  1.0000
  N   N19       1.0  0.8935399999999999  0.33236999999999994  0.69676  1.0000
  N   N20       1.0  0.9786399999999997  0.44476  0.67483  1.0000
  N   N21       1.0  0.8619400000000004  0.81132  0.86729  1.0000
  N   N22       1.0  0.9353799999999998  0.75012  0.7770899999999998  1.0000
  N   N23       1.0  0.4298899999999999  0.6034499999999999  0.57925  1.0000
  N   N24       1.0  0.2814000000000001  0.5664899999999999  0.62381  1.0000
  O   O1        1.0  0.11688999999999988  0.8991600000000001  0.30329  1.0000
  O   O2        1.0  0.27882999999999997  0.7405100000000001  0.32011  1.0000
  O   O3        1.0  0.6761799999999996  0.52276  0.53795  1.0000
  O   O4        1.0  0.79908  0.59868  0.4914299999999999  1.0000
  O   O5        1.0  0.3857300000000001  0.8473  0.53898  1.0000
  O   O6        1.0  0.49648999999999976  0.73369  0.4650500000000001  1.0000
  O   O7        1.0  0.31495999999999996  0.60475  0.19596  1.0000
  O   O8        1.0  0.3389299999999998  0.7612900000000001  0.17987000000000003  1.0000
  O   O9        1.0  0.7374499999999997  0.9774200000000001  0.96186  1.0000
  O   O10       1.0  0.8887399999999999  0.90259  0.00882  1.0000
  O   O11       1.0  0.7730199999999997  0.65188  0.9616999999999999  1.0000
  O   O12       1.0  0.6949500000000001  0.76733  0.03485  1.0000
  O   O13       1.0  0.8831099999999996  0.10085000000000002  0.69671  1.0000
  O   O14       1.0  0.72117  0.2595  0.67989  1.0000
  O   O15       1.0  0.3238199999999997  0.47725  0.46205  1.0000
  O   O16       1.0  0.20091999999999996  0.40133  0.50857  1.0000
  O   O17       1.0  0.61427  0.15270999999999998  0.46101999999999993  1.0000
  O   O18       1.0  0.50351  0.26632  0.53495  1.0000
  O   O19       1.0  0.68504  0.39525999999999994  0.80404  1.0000
  O   O20       1.0  0.6610700000000002  0.23872  0.82013  1.0000
  O   O21       1.0  0.26255  0.022590000000000002  0.03814  1.0000
  O   O22       1.0  0.11126  0.09742000000000005  0.9911799999999998  1.0000
  O   O23       1.0  0.22698999999999994  0.34813  0.0383  1.0000
  O   O24       1.0  0.30505999999999994  0.23268000000000003  0.9651499999999998  1.0000
