data_image0
_chemical_formula_structural       Ag16H24W48C56N8O152
_chemical_formula_sum              "Ag16 H24 W48 C56 N8 O152"
_cell_length_a       11.64595
_cell_length_b       11.644229999999999
_cell_length_c       33.3593
_cell_angle_alpha    89.92609999999999
_cell_angle_beta     90.12102
_cell_angle_gamma    89.84416

_symmetry_space_group_name_H-M    'P 1'
_symmetry_Int_Tables_number       1

loop_
  _symmetry_equiv_pos_as_xyz
  'x,y,z'

loop_
  _atom_site_type_symbol
  _atom_site_label
  _atom_site_symmetry_multiplicity
  _atom_site_fract_x
  _atom_site_fract_y
  _atom_site_fract_z
  _atom_site_occupancy
  Ag  Ag1       1.0  0.056410000000000037  0.24848  0.98591  1.0000
  Ag  Ag2       1.0  0.90757  0.41578  0.90487  1.0000
  Ag  Ag3       1.0  0.94278  0.75185  0.48741999999999996  1.0000
  Ag  Ag4       1.0  0.08762000000000003  0.5860200000000001  0.4055399999999999  1.0000
  Ag  Ag5       1.0  0.24975  0.56494  0.2359  1.0000
  Ag  Ag6       1.0  0.09026  0.41809  0.15557  1.0000
  Ag  Ag7       1.0  0.74989  0.43907000000000007  0.7352499999999997  1.0000
  Ag  Ag8       1.0  0.9100500000000002  0.5812800000000001  0.65635  1.0000
  Ag  Ag9       1.0  0.4395100000000001  0.7524400000000001  0.26479  1.0000
  Ag  Ag10      1.0  0.57907  0.9093900000000001  0.34332  1.0000
  Ag  Ag11      1.0  0.56304  0.24989000000000003  0.76453  1.0000
  Ag  Ag12      1.0  0.4182900000000001  0.09163000000000002  0.84427  1.0000
  Ag  Ag13      1.0  0.24783000000000002  0.057880000000000015  0.014459999999999997  1.0000
  Ag  Ag14      1.0  0.4148200000000001  0.90879  0.0953  1.0000
  Ag  Ag15      1.0  0.75184  0.94092  0.51271  1.0000
  Ag  Ag16      1.0  0.58108  0.08978000000000003  0.5948999999999998  1.0000
  H   H1        1.0  0.98928  0.28602  0.06811  1.0000
  H   H2        1.0  0.6824100000000001  0.29862  0.12879  1.0000
  H   H3        1.0  0.76735  0.9898400000000002  0.06503  1.0000
  H   H4        1.0  0.0033900000000000002  0.7207300000000002  0.57074  1.0000
  H   H5        1.0  0.31238  0.7015500000000001  0.63029  1.0000
  H   H6        1.0  0.23601000000000005  0.007990000000000002  0.56354  1.0000
  H   H7        1.0  0.21420000000000006  0.49525000000000013  0.31946  1.0000
  H   H8        1.0  0.20038000000000006  0.18724  0.37985  1.0000
  H   H9        1.0  0.50817  0.2690000000000001  0.31524  1.0000
  H   H10       1.0  0.78476  0.50601  0.8202199999999997  1.0000
  H   H11       1.0  0.7992900000000001  0.8162200000000001  0.87899  1.0000
  H   H12       1.0  0.49067  0.73188  0.81481  1.0000
  H   H13       1.0  0.50502  0.7848500000000003  0.17975  1.0000
  H   H14       1.0  0.81455  0.79896  0.12063999999999998  1.0000
  H   H15       1.0  0.7314100000000001  0.49113000000000007  0.18535  1.0000
  H   H16       1.0  0.49303  0.2152  0.6803  1.0000
  H   H17       1.0  0.18529  0.20113  0.6195699999999998  1.0000
  H   H18       1.0  0.26696  0.50943  0.68398  1.0000
  H   H19       1.0  0.28546  0.9902600000000003  0.9314399999999998  1.0000
  H   H20       1.0  0.29732  0.68166  0.87171  1.0000
  H   H21       1.0  0.9892200000000002  0.76866  0.93554  1.0000
  H   H22       1.0  0.7189  0.0053  0.43036  1.0000
  H   H23       1.0  0.70136  0.31377  0.37054999999999993  1.0000
  H   H24       1.0  0.00891  0.23495  0.4363499999999999  1.0000
  W   W1        1.0  0.70168  0.51765  0.06089  1.0000
  W   W2        1.0  0.69057  0.52168  0.95275  1.0000
  W   W3        1.0  0.65803  0.29596  0.98551  1.0000
  W   W4        1.0  0.42263  0.23183  0.94399  1.0000
  W   W5        1.0  0.47045  0.22137000000000004  0.04304  1.0000
  W   W6        1.0  0.51719  0.49148000000000003  0.09842  1.0000
  W   W7        1.0  0.29967  0.4799100000000001  0.55793  1.0000
  W   W8        1.0  0.30994  0.47868  0.45167  1.0000
  W   W9        1.0  0.34115  0.7030100000000001  0.48503  1.0000
  W   W10       1.0  0.57427  0.76705  0.4428799999999999  1.0000
  W   W11       1.0  0.52817  0.7773100000000001  0.54267  1.0000
  W   W12       1.0  0.4801200000000001  0.50784  0.59798  1.0000
  W   W13       1.0  0.97644  0.20885000000000004  0.3112899999999999  1.0000
  W   W14       1.0  0.9695200000000003  0.19632  0.2028  1.0000
  W   W15       1.0  0.19586  0.16344  0.23468999999999995  1.0000
  W   W16       1.0  0.25936  0.92434  0.19425  1.0000
  W   W17       1.0  0.2732  0.9774500000000003  0.29207  1.0000
  W   W18       1.0  0.00626  0.02454  0.34867  1.0000
  W   W19       1.0  0.0212  0.7922500000000002  0.8106  1.0000
  W   W20       1.0  0.026910000000000003  0.80409  0.70178  1.0000
  W   W21       1.0  0.8009900000000001  0.83706  0.7339299999999997  1.0000
  W   W22       1.0  0.73877  0.07523  0.69296  1.0000
  W   W23       1.0  0.7252100000000002  0.02426  0.79101  1.0000
  W   W24       1.0  0.9948900000000002  0.9776700000000002  0.84754  1.0000
  W   W25       1.0  0.78902  0.02163  0.18914  1.0000
  W   W26       1.0  0.80332  0.02809  0.29824  1.0000
  W   W27       1.0  0.8353200000000001  0.80152  0.2662  1.0000
  W   W28       1.0  0.07471000000000001  0.73919  0.30697  1.0000
  W   W29       1.0  0.02103  0.72562  0.20909  1.0000
  W   W30       1.0  0.9748800000000002  0.9945100000000002  0.15243  1.0000
  W   W31       1.0  0.20869  0.9776100000000002  0.68876  1.0000
  W   W32       1.0  0.19598  0.97054  0.79731  1.0000
  W   W33       1.0  0.16365000000000002  0.19746  0.76548  1.0000
  W   W34       1.0  0.92424  0.26239  0.8058  1.0000
  W   W35       1.0  0.9766900000000001  0.27473000000000003  0.70819  1.0000
  W   W36       1.0  0.02454  0.00802  0.65137  1.0000
  W   W37       1.0  0.51704  0.70162  0.93925  1.0000
  W   W38       1.0  0.52172  0.69113  0.0474  1.0000
  W   W39       1.0  0.29592  0.65832  0.015030000000000002  1.0000
  W   W40       1.0  0.23204000000000002  0.42255  0.05622  1.0000
  W   W41       1.0  0.22186000000000006  0.4704400000000001  0.95757  1.0000
  W   W42       1.0  0.49125000000000013  0.5172  0.90164  1.0000
  W   W43       1.0  0.48135000000000006  0.29736000000000007  0.44057  1.0000
  W   W44       1.0  0.4798500000000001  0.30756  0.54801  1.0000
  W   W45       1.0  0.70409  0.3412  0.51493  1.0000
  W   W46       1.0  0.7666300000000001  0.57542  0.55688  1.0000
  W   W47       1.0  0.77736  0.5291300000000001  0.45727  1.0000
  W   W48       1.0  0.50876  0.47979  0.4017  1.0000
  C   C1        1.0  0.70523  0.14307  0.09521  1.0000
  C   C2        1.0  0.9086900000000002  0.24368000000000006  0.07531  1.0000
  C   C3        1.0  0.59654  0.09264  0.11107999999999997  1.0000
  C   C4        1.0  0.73688  0.25155  0.10833  1.0000
  C   C5        1.0  0.7857  0.07757  0.074  1.0000
  C   C6        1.0  0.00112  0.05707000000000002  0.06496  1.0000
  C   C7        1.0  0.89376  0.12607000000000002  0.06744  1.0000
  C   C8        1.0  0.29394000000000003  0.8544600000000001  0.59473  1.0000
  C   C9        1.0  0.08626  0.76006  0.57682  1.0000
  C   C10       1.0  0.40335000000000004  0.9038500000000003  0.61035  1.0000
  C   C11       1.0  0.25870000000000004  0.74841  0.60937  1.0000
  C   C12       1.0  0.21516000000000005  0.9212100000000001  0.57305  1.0000
  C   C13       1.0  0.99994  0.9474200000000003  0.56409  1.0000
  C   C14       1.0  0.10554000000000002  0.87586  0.56695  1.0000
  C   C15       1.0  0.35487000000000013  0.20824  0.34548  1.0000
  C   C16       1.0  0.25586  0.41381  0.32637  1.0000
  C   C17       1.0  0.40443  0.09760000000000002  0.36033  1.0000
  C   C18       1.0  0.24726000000000006  0.24148000000000003  0.35926  1.0000
  C   C19       1.0  0.42061000000000004  0.28830000000000006  0.32428  1.0000
  C   C20       1.0  0.44242000000000004  0.50354  0.31483  1.0000
  C   C21       1.0  0.37278000000000006  0.39699  0.31772  1.0000
  C   C22       1.0  0.64414  0.79357  0.8449  1.0000
  C   C23       1.0  0.7430600000000002  0.58756  0.82682  1.0000
  C   C24       1.0  0.59352  0.90397  0.85936  1.0000
  C   C25       1.0  0.75206  0.7611500000000001  0.85874  1.0000
  C   C26       1.0  0.5781200000000001  0.71273  0.82412  1.0000
  C   C27       1.0  0.55724  0.4967800000000001  0.81481  1.0000
  C   C28       1.0  0.62595  0.60386  0.81819  1.0000
  C   C29       1.0  0.7924200000000002  0.6441700000000001  0.15489  1.0000
  C   C30       1.0  0.58662  0.7431800000000001  0.17317  1.0000
  C   C31       1.0  0.90288  0.59356  0.14055  1.0000
  C   C32       1.0  0.75979  0.75195  0.14101999999999998  1.0000
  C   C33       1.0  0.71199  0.5784  0.1759  1.0000
  C   C34       1.0  0.4964  0.55726  0.18538  1.0000
  C   C35       1.0  0.60319  0.6262000000000001  0.18192  1.0000
  C   C36       1.0  0.20610000000000003  0.3556200000000001  0.65405  1.0000
  C   C37       1.0  0.41173  0.25689  0.67319  1.0000
  C   C38       1.0  0.09462  0.4048  0.63992  1.0000
  C   C39       1.0  0.23951000000000006  0.24809  0.64018  1.0000
  C   C40       1.0  0.2862100000000001  0.4216900000000001  0.6751  1.0000
  C   C41       1.0  0.50112  0.4432300000000001  0.6852199999999999  1.0000
  C   C42       1.0  0.3947100000000001  0.37382  0.68179  1.0000
  C   C43       1.0  0.14216000000000004  0.7050400000000002  0.90552  1.0000
  C   C44       1.0  0.24308000000000005  0.90942  0.92457  1.0000
  C   C45       1.0  0.09232  0.59496  0.89036  1.0000
  C   C46       1.0  0.25043  0.73654  0.8921  1.0000
  C   C47       1.0  0.07694  0.7864300000000001  0.92644  1.0000
  C   C48       1.0  0.057010000000000005  0.0023700000000000006  0.93506  1.0000
  C   C49       1.0  0.12566  0.8946800000000003  0.93267  1.0000
  C   C50       1.0  0.85529  0.29417  0.40551  1.0000
  C   C51       1.0  0.7591600000000001  0.0876  0.42404  1.0000
  C   C52       1.0  0.90453  0.40345  0.3897  1.0000
  C   C53       1.0  0.7484100000000001  0.25999  0.39138  1.0000
  C   C54       1.0  0.9217900000000001  0.21484  0.42703  1.0000
  C   C55       1.0  0.9468800000000002  0.99963  0.43594999999999995  1.0000
  C   C56       1.0  0.8756  0.10557000000000001  0.43326  1.0000
  N   N1        1.0  0.83175  0.30577000000000004  0.09543  1.0000
  N   N2        1.0  0.16073000000000004  0.69716  0.59788  1.0000
  N   N3        1.0  0.19404  0.33804  0.34707  1.0000
  N   N4        1.0  0.80529  0.66431  0.84696  1.0000
  N   N5        1.0  0.6631100000000001  0.8052700000000002  0.15291  1.0000
  N   N6        1.0  0.33621  0.19504000000000005  0.65235  1.0000
  N   N7        1.0  0.30472  0.83191  0.90453  1.0000
  N   N8        1.0  0.69626  0.16304000000000002  0.40339  1.0000
  O   O1        1.0  0.5923000000000002  0.20467  0.94548  1.0000
  O   O2        1.0  0.76558  0.56519  0.9961499999999999  1.0000
  O   O3        1.0  0.54387  0.52747  0.03636  1.0000
  O   O4        1.0  0.71463  0.3727700000000001  0.030460000000000004  1.0000
  O   O5        1.0  0.51464  0.32535  0.08073  1.0000
  O   O6        1.0  0.4049900000000001  0.13844  0.99262  1.0000
  O   O7        1.0  0.46307000000000004  0.35130000000000006  0.9114  1.0000
  O   O8        1.0  0.50252  0.09143000000000003  0.08682  1.0000
  O   O9        1.0  0.6505500000000001  0.49067  0.89457  1.0000
  O   O10       1.0  0.28053  0.3152400000000001  0.9537  1.0000
  O   O11       1.0  0.76616  0.37129  0.95165  1.0000
  O   O12       1.0  0.61199  0.17207000000000003  0.02404  1.0000
  O   O13       1.0  0.4973800000000001  0.33165  0.9977499999999999  1.0000
  O   O14       1.0  0.37754  0.13142000000000004  0.9089799999999999  1.0000
  O   O15       1.0  0.67437  0.47401000000000004  0.11488  1.0000
  O   O16       1.0  0.69778  0.67351  0.06441  1.0000
  O   O17       1.0  0.59361  0.05234  0.14545  1.0000
  O   O18       1.0  0.01688  0.9763200000000002  0.09132  1.0000
  O   O19       1.0  0.07682  0.08573  0.03991  1.0000
  O   O20       1.0  0.40616000000000013  0.79476  0.4444499999999999  1.0000
  O   O21       1.0  0.23422  0.43482  0.49517  1.0000
  O   O22       1.0  0.45748  0.47063000000000005  0.53554  1.0000
  O   O23       1.0  0.27893  0.6286600000000001  0.5297499999999999  1.0000
  O   O24       1.0  0.48088  0.6737000000000001  0.57998  1.0000
  O   O25       1.0  0.59468  0.8573500000000001  0.49206  1.0000
  O   O26       1.0  0.53622  0.6464500000000001  0.4104999999999999  1.0000
  O   O27       1.0  0.4969500000000001  0.9069900000000002  0.58572  1.0000
  O   O28       1.0  0.34902000000000005  0.5083  0.39386  1.0000
  O   O29       1.0  0.71599  0.68156  0.45294  1.0000
  O   O30       1.0  0.23372000000000004  0.6284300000000002  0.45047  1.0000
  O   O31       1.0  0.3868700000000001  0.8274200000000002  0.5227  1.0000
  O   O32       1.0  0.4991400000000001  0.66546  0.4973  1.0000
  O   O33       1.0  0.62115  0.8674200000000001  0.4081499999999999  1.0000
  O   O34       1.0  0.32061000000000006  0.5254700000000001  0.61203  1.0000
  O   O35       1.0  0.3012  0.32514000000000004  0.56339  1.0000
  O   O36       1.0  0.40764  0.9428200000000002  0.6447599999999999  1.0000
  O   O37       1.0  0.98694  0.02925  0.59021  1.0000
  O   O38       1.0  0.92287  0.9198400000000001  0.53936  1.0000
  O   O39       1.0  0.28568  0.09710000000000003  0.19496  1.0000
  O   O40       1.0  0.92664  0.26977  0.24656000000000003  1.0000
  O   O41       1.0  0.96572  0.05078  0.28684  1.0000
  O   O42       1.0  0.11983  0.2183  0.28077  1.0000
  O   O43       1.0  0.17021  0.02238  0.32997  1.0000
  O   O44       1.0  0.35495  0.9087  0.24271999999999996  1.0000
  O   O45       1.0  0.14086  0.9666  0.16171  1.0000
  O   O46       1.0  0.40435000000000004  0.0053  0.33497  1.0000
  O   O47       1.0  0.0005000000000000002  0.15433  0.14515  1.0000
  O   O48       1.0  0.17796  0.7837000000000002  0.20400999999999994  1.0000
  O   O49       1.0  0.11943000000000001  0.2736100000000001  0.20188  1.0000
  O   O50       1.0  0.32089  0.11929000000000002  0.27292  1.0000
  O   O51       1.0  0.16146000000000002  0.0010000000000000002  0.24670999999999998  1.0000
  O   O52       1.0  0.36088  0.8804200000000002  0.1594  1.0000
  O   O53       1.0  0.02295  0.1816  0.3650699999999999  1.0000
  O   O54       1.0  0.8198600000000001  0.20193  0.31492  1.0000
  O   O55       1.0  0.44554  0.09053  0.39428  1.0000
  O   O56       1.0  0.5263799999999998  0.5158  0.34025  1.0000
  O   O57       1.0  0.41176  0.5815100000000001  0.29078  1.0000
  O   O58       1.0  0.71201  0.9036900000000002  0.69359  1.0000
  O   O59       1.0  0.06871  0.7305500000000001  0.74568  1.0000
  O   O60       1.0  0.0334  0.94932  0.7857  1.0000
  O   O61       1.0  0.87693  0.7822700000000002  0.7798899999999998  1.0000
  O   O62       1.0  0.82934  0.9804200000000002  0.82874  1.0000
  O   O63       1.0  0.64434  0.09339  0.74166  1.0000
  O   O64       1.0  0.8573  0.03483000000000001  0.66054  1.0000
  O   O65       1.0  0.5948400000000001  0.99663  0.83422  1.0000
  O   O66       1.0  0.9940500000000001  0.8497  0.64427  1.0000
  O   O67       1.0  0.8213  0.21654000000000004  0.70305  1.0000
  O   O68       1.0  0.87656  0.7274200000000002  0.70096  1.0000
  O   O69       1.0  0.67497  0.88406  0.77187  1.0000
  O   O70       1.0  0.83563  0.9995800000000001  0.74572  1.0000
  O   O71       1.0  0.63528  0.1197  0.65862  1.0000
  O   O72       1.0  0.9766000000000002  0.8214900000000003  0.8644  1.0000
  O   O73       1.0  0.17734000000000005  0.79469  0.81411  1.0000
  O   O74       1.0  0.54961  0.9096  0.8929  1.0000
  O   O75       1.0  0.47467  0.47969000000000006  0.8403399999999998  1.0000
  O   O76       1.0  0.5882200000000001  0.42216000000000004  0.7896599999999999  1.0000
  O   O77       1.0  0.9028900000000001  0.71328  0.30652  1.0000
  O   O78       1.0  0.72895  0.06912  0.25438  1.0000
  O   O79       1.0  0.94766  0.033760000000000005  0.21407  1.0000
  O   O80       1.0  0.7814700000000002  0.87826  0.22019999999999995  1.0000
  O   O81       1.0  0.9772300000000002  0.8294400000000002  0.1712  1.0000
  O   O82       1.0  0.09177000000000003  0.6445300000000002  0.25835  1.0000
  O   O83       1.0  0.03422  0.85781  0.33945  1.0000
  O   O84       1.0  0.99496  0.5946900000000002  0.1659  1.0000
  O   O85       1.0  0.8471600000000001  0.9945700000000001  0.35579  1.0000
  O   O86       1.0  0.21578  0.82156  0.29702  1.0000
  O   O87       1.0  0.72613  0.87803  0.29906  1.0000
  O   O88       1.0  0.88058  0.6750400000000001  0.22824  1.0000
  O   O89       1.0  0.998  0.83577  0.25439  1.0000
  O   O90       1.0  0.11929000000000002  0.63625  0.34148  1.0000
  O   O91       1.0  0.8187100000000002  0.9760900000000002  0.13548  1.0000
  O   O92       1.0  0.7942500000000001  0.17768  0.18596  1.0000
  O   O93       1.0  0.9091900000000003  0.54981  0.10697  1.0000
  O   O94       1.0  0.47950000000000004  0.47485  0.15975  1.0000
  O   O95       1.0  0.42214000000000007  0.58791  0.21071  1.0000
  O   O96       1.0  0.09756  0.28626  0.80554  1.0000
  O   O97       1.0  0.26935000000000003  0.9273600000000002  0.75356  1.0000
  O   O98       1.0  0.050480000000000004  0.96643  0.71312  1.0000
  O   O99       1.0  0.21782999999999997  0.12041000000000003  0.7193099999999998  1.0000
  O   O100      1.0  0.02204  0.17129  0.67035  1.0000
  O   O101      1.0  0.90873  0.35874  0.75722  1.0000
  O   O102      1.0  0.96582  0.14335  0.83827  1.0000
  O   O103      1.0  0.00439  0.40565  0.66646  1.0000
  O   O104      1.0  0.15434  0.005030000000000001  0.8549  1.0000
  O   O105      1.0  0.7833200000000001  0.18203000000000003  0.7959  1.0000
  O   O106      1.0  0.27398  0.12018  0.79805  1.0000
  O   O107      1.0  0.11980000000000003  0.3213  0.72725  1.0000
  O   O108      1.0  0.0003899999999999989  0.1647  0.7536399999999998  1.0000
  O   O109      1.0  0.88111  0.3650000000000001  0.8405  1.0000
  O   O110      1.0  0.18159000000000003  0.02343  0.63493  1.0000
  O   O111      1.0  0.20084000000000005  0.8212200000000002  0.68514  1.0000
  O   O112      1.0  0.0845  0.44518  0.60609  1.0000
  O   O113      1.0  0.51542  0.5260300000000001  0.65946  1.0000
  O   O114      1.0  0.57683  0.41347000000000006  0.71031  1.0000
  O   O115      1.0  0.20514000000000004  0.59305  0.05511  1.0000
  O   O116      1.0  0.5651000000000002  0.7656700000000002  0.0039  1.0000
  O   O117      1.0  0.52698  0.54375  0.9637099999999998  1.0000
  O   O118      1.0  0.3724600000000001  0.71411  0.9696899999999999  1.0000
  O   O119      1.0  0.32512  0.5147600000000001  0.9196799999999999  1.0000
  O   O120      1.0  0.13814000000000004  0.40507  0.007639999999999999  1.0000
  O   O121      1.0  0.35142  0.4630400000000001  0.0888  1.0000
  O   O122      1.0  0.0914  0.5019100000000001  0.91534  1.0000
  O   O123      1.0  0.4907100000000001  0.65091  0.1055  1.0000
  O   O124      1.0  0.31492000000000003  0.28046  0.0465  1.0000
  O   O125      1.0  0.37166  0.7672900000000002  0.04852  1.0000
  O   O126      1.0  0.17222  0.61211  0.9772499999999998  1.0000
  O   O127      1.0  0.33161000000000007  0.49716000000000005  0.00326  1.0000
  O   O128      1.0  0.13131  0.37755000000000005  0.09109  1.0000
  O   O129      1.0  0.4736300000000001  0.67442  0.8852  1.0000
  O   O130      1.0  0.67301  0.6976800000000001  0.93574  1.0000
  O   O131      1.0  0.052190000000000014  0.58867  0.85621  1.0000
  O   O132      1.0  0.97613  0.01758  0.9087  1.0000
  O   O133      1.0  0.08579000000000002  0.07862  0.95992  1.0000
  O   O134      1.0  0.7948100000000002  0.4068300000000001  0.55556  1.0000
  O   O135      1.0  0.43519  0.23332  0.50453  1.0000
  O   O136      1.0  0.47273  0.4557400000000001  0.46406  1.0000
  O   O137      1.0  0.62815  0.28031000000000006  0.4702899999999999  1.0000
  O   O138      1.0  0.67402  0.48126  0.41984  1.0000
  O   O139      1.0  0.8576200000000002  0.59551  0.50774  1.0000
  O   O140      1.0  0.64642  0.53661  0.58922  1.0000
  O   O141      1.0  0.9075100000000003  0.49723  0.41423  1.0000
  O   O142      1.0  0.5083000000000001  0.34902  0.60616  1.0000
  O   O143      1.0  0.68152  0.7178100000000001  0.54714  1.0000
  O   O144      1.0  0.62965  0.233  0.54938  1.0000
  O   O145      1.0  0.8274100000000001  0.38745  0.47714  1.0000
  O   O146      1.0  0.66704  0.50032  0.50284  1.0000
  O   O147      1.0  0.8671900000000001  0.62179  0.59169  1.0000
  O   O148      1.0  0.5256  0.32144000000000006  0.38649  1.0000
  O   O149      1.0  0.32606000000000007  0.30076  0.43641  1.0000
  O   O150      1.0  0.9428300000000001  0.4073500000000001  0.35522  1.0000
  O   O151      1.0  0.02857000000000001  0.98684  0.40979  1.0000
  O   O152      1.0  0.9196100000000001  0.92242  0.4606299999999999  1.0000
