data_image0
_chemical_formula_structural       Zn6H72C128N16O16
_chemical_formula_sum              "Zn6 H72 C128 N16 O16"
_cell_length_a       14.14616
_cell_length_b       19.22175
_cell_length_c       19.01886
_cell_angle_alpha    87.12695000000001
_cell_angle_beta     68.13529
_cell_angle_gamma    82.56851

_space_group_name_H-M_alt    "P 1"
_space_group_IT_number       1

loop_
  _space_group_symop_operation_xyz
  'x, y, z'

loop_
  _atom_site_type_symbol
  _atom_site_label
  _atom_site_symmetry_multiplicity
  _atom_site_fract_x
  _atom_site_fract_y
  _atom_site_fract_z
  _atom_site_occupancy
  Zn  Zn1       1.0  0.20918  0.8838  0.13519  1.0000
  Zn  Zn2       1.0  0.6572699999999998  0.61617  0.13458  1.0000
  Zn  Zn3       1.0  0.79079  0.11622000000000003  0.8647499999999998  1.0000
  Zn  Zn4       1.0  0.34264000000000006  0.38384999999999997  0.8654999999999998  1.0000
  Zn  Zn5       1.0  0.4999999999999998  0.9986199999999998  0.50014  1.0000
  Zn  Zn6       1.0  0.0003100000000000116  0.49848999999999993  0.49974999999999997  1.0000
  H   H1        1.0  0.7565099999999996  0.92809  0.22322  1.0000
  H   H2        1.0  0.48930999999999986  0.15214999999999998  0.9147499999999998  1.0000
  H   H3        1.0  0.13267000000000004  0.99119  0.98087  1.0000
  H   H4        1.0  0.005090000000000012  0.054279999999999995  0.93314  1.0000
  H   H5        1.0  0.03152000000000009  0.17177  0.8729199999999998  1.0000
  H   H6        1.0  0.19096999999999997  0.22336  0.85506  1.0000
  H   H7        1.0  0.45700000000000013  0.04149  0.9843999999999999  1.0000
  H   H8        1.0  0.057330000000000034  0.81124  0.26846  1.0000
  H   H9        1.0  0.8764399999999996  0.83799  0.3631  1.0000
  H   H10       1.0  0.9001500000000001  0.97591  0.4367299999999999  1.0000
  H   H11       1.0  0.8141199999999997  0.01882  0.58223  1.0000
  H   H12       1.0  0.86359  0.04073  0.2571399999999999  1.0000
  H   H13       1.0  0.044410000000000005  0.00571  0.16688  1.0000
  H   H14       1.0  0.66693  0.19637  0.77837  1.0000
  H   H15       1.0  0.58118  0.16488  0.69191  1.0000
  H   H16       1.0  0.6871399999999999  0.94789  0.71825  1.0000
  H   H17       1.0  0.56935  0.9299699999999999  0.21828  1.0000
  H   H18       1.0  0.7571999999999999  0.9877199999999999  0.81089  1.0000
  H   H19       1.0  0.020169999999999993  0.57229  0.2232  1.0000
  H   H20       1.0  0.5967299999999999  0.34704  0.9142499999999999  1.0000
  H   H21       1.0  0.8849599999999999  0.50871  0.98126  1.0000
  H   H22       1.0  0.06072000000000008  0.44652  0.9339999999999999  1.0000
  H   H23       1.0  0.09574999999999995  0.32916  0.87356  1.0000
  H   H24       1.0  0.9547899999999997  0.2768  0.85569  1.0000
  H   H25       1.0  0.5584400000000002  0.4577  0.9832499999999998  1.0000
  H   H26       1.0  0.6749899999999998  0.68863  0.26776  1.0000
  H   H27       1.0  0.7605799999999999  0.66144  0.36276999999999987  1.0000
  H   H28       1.0  0.6627499999999997  0.52439  0.4371799999999999  1.0000
  H   H29       1.0  0.6030799999999998  0.48154999999999987  0.58294  1.0000
  H   H30       1.0  0.87947  0.45894  0.25697  1.0000
  H   H31       1.0  0.78956  0.49444999999999995  0.16637  1.0000
  H   H32       1.0  0.5534699999999999  0.30347  0.7796399999999998  1.0000
  H   H33       1.0  0.72586  0.33471  0.69291  1.0000
  H   H34       1.0  0.59508  0.55184  0.71857  1.0000
  H   H35       1.0  0.21233000000000007  0.5705699999999999  0.21810999999999994  1.0000
  H   H36       1.0  0.4320299999999998  0.51225  0.81154  1.0000
  H   H37       1.0  0.24347000000000002  0.07236999999999998  0.7765  1.0000
  H   H38       1.0  0.51068  0.84786  0.08525  1.0000
  H   H39       1.0  0.8673299999999999  0.00881  0.01913  1.0000
  H   H40       1.0  0.9949099999999999  0.94573  0.06686  1.0000
  H   H41       1.0  0.96847  0.82824  0.12709  1.0000
  H   H42       1.0  0.8090200000000001  0.77665  0.14494  1.0000
  H   H43       1.0  0.5429899999999999  0.9585199999999999  0.0156  1.0000
  H   H44       1.0  0.9430799999999996  0.18872  0.73136  1.0000
  H   H45       1.0  0.12394000000000002  0.16169999999999998  0.63677  1.0000
  H   H46       1.0  0.09981  0.024540000000000003  0.56296  1.0000
  H   H47       1.0  0.18577999999999995  0.98163  0.41746  1.0000
  H   H48       1.0  0.13615000000000002  0.95906  0.7430699999999998  1.0000
  H   H49       1.0  0.9553799999999997  0.99434  0.8332599999999998  1.0000
  H   H50       1.0  0.33291000000000004  0.80354  0.22133  1.0000
  H   H51       1.0  0.41878000000000004  0.83479  0.30784  1.0000
  H   H52       1.0  0.313  0.05189  0.2818599999999999  1.0000
  H   H53       1.0  0.43062  0.07050999999999999  0.78145  1.0000
  H   H54       1.0  0.24285999999999988  0.0123  0.18913  1.0000
  H   H55       1.0  0.9796099999999999  0.42817999999999995  0.77704  1.0000
  H   H56       1.0  0.4032699999999999  0.6529699999999999  0.08574999999999999  1.0000
  H   H57       1.0  0.11503999999999999  0.49129  0.01875  1.0000
  H   H58       1.0  0.93927  0.55348  0.066  1.0000
  H   H59       1.0  0.90425  0.67085  0.12644  1.0000
  H   H60       1.0  0.045200000000000067  0.7231999999999998  0.14430999999999994  1.0000
  H   H61       1.0  0.44155999999999984  0.5423  0.01676  1.0000
  H   H62       1.0  0.32522999999999996  0.31134  0.73242  1.0000
  H   H63       1.0  0.2396699999999999  0.3383  0.63734  1.0000
  H   H64       1.0  0.3369999999999998  0.47607  0.56309  1.0000
  H   H65       1.0  0.39662  0.5189  0.4173399999999999  1.0000
  H   H66       1.0  0.12051000000000003  0.5409  0.74285  1.0000
  H   H67       1.0  0.21036000000000019  0.5056  0.8335299999999998  1.0000
  H   H68       1.0  0.4461399999999998  0.69646  0.22061  1.0000
  H   H69       1.0  0.27389999999999987  0.66502  0.30729999999999996  1.0000
  H   H70       1.0  0.4051599999999998  0.44797999999999993  0.28133  1.0000
  H   H71       1.0  0.7874399999999997  0.4299  0.78213  1.0000
  H   H72       1.0  0.5680799999999996  0.48778999999999995  0.18841  1.0000
  C   C1        1.0  0.68336  0.9398  0.26929  1.0000
  C   C2        1.0  0.36429999999999985  0.23669999999999997  0.8597899999999999  1.0000
  C   C3        1.0  0.41835  0.1307  0.9231799999999999  1.0000
  C   C4        1.0  0.6318499999999999  0.05368  0.69518  1.0000
  C   C5        1.0  0.3453200000000001  0.16675  0.8983899999999998  1.0000
  C   C6        1.0  0.29357  0.97386  0.026799999999999994  1.0000
  C   C7        1.0  0.30989000000000005  0.03772  0.97696  1.0000
  C   C8        1.0  0.23509999999999998  0.07154  0.9481499999999999  1.0000
  C   C9        1.0  0.14498000000000003  0.04217  0.9541  1.0000
  C   C10       1.0  0.07381  0.07756  0.9272799999999999  1.0000
  C   C11       1.0  0.08913999999999998  0.14407999999999999  0.89257  1.0000
  C   C12       1.0  0.1773399999999999  0.173  0.88333  1.0000
  C   C13       1.0  0.25253999999999993  0.13794  0.90986  1.0000
  C   C14       1.0  0.39999999999999986  0.06691  0.9627799999999999  1.0000
  C   C15       1.0  0.010990000000000088  0.8612999999999998  0.2685599999999999  1.0000
  C   C16       1.0  0.9112999999999996  0.87659  0.32067  1.0000
  C   C17       1.0  0.8556600000000001  0.9418999999999998  0.3177899999999999  1.0000
  C   C18       1.0  0.7485599999999998  0.95962  0.37277  1.0000
  C   C19       1.0  0.7363000000000001  0.97759  0.44669  1.0000
  C   C20       1.0  0.8193199999999998  0.9850299999999999  0.4716099999999999  1.0000
  C   C21       1.0  0.7756499999999997  0.00674  0.54545  1.0000
  C   C22       1.0  0.6656699999999999  0.01194  0.56634  1.0000
  C   C23       1.0  0.5923499999999999  0.03367  0.63749  1.0000
  C   C24       1.0  0.9038100000000001  0.9895199999999998  0.26173  1.0000
  C   C25       1.0  0.0038000000000000156  0.9706699999999999  0.21165  1.0000
  C   C26       1.0  0.6667900000000001  0.14212999999999998  0.7645299999999998  1.0000
  C   C27       1.0  0.62249  0.12417  0.7148599999999998  1.0000
  C   C28       1.0  0.68069  0.0033599999999999997  0.73036  1.0000
  C   C29       1.0  0.58792  0.9405399999999999  0.26679  1.0000
  C   C30       1.0  0.6689499999999999  0.95719  0.3459999999999999  1.0000
  C   C31       1.0  0.48538999999999993  0.04027  0.65822  1.0000
  C   C32       1.0  0.7202300000000001  0.025059999999999992  0.78128  1.0000
  C   C33       1.0  0.047439999999999996  0.55997  0.26911  1.0000
  C   C34       1.0  0.7760699999999996  0.26267999999999997  0.86077  1.0000
  C   C35       1.0  0.6588699999999998  0.36871999999999994  0.92308  1.0000
  C   C36       1.0  0.6726499999999999  0.4459  0.69573  1.0000
  C   C37       1.0  0.7566500000000002  0.33263  0.89899  1.0000
  C   C38       1.0  0.6791599999999999  0.52596  0.026699999999999998  1.0000
  C   C39       1.0  0.7126300000000001  0.46213  0.9768699999999999  1.0000
  C   C40       1.0  0.81626  0.42827999999999994  0.9484  1.0000
  C   C41       1.0  0.9000999999999998  0.45787999999999995  0.9544199999999999  1.0000
  C   C42       1.0  0.9982799999999998  0.4229  0.92793  1.0000
  C   C43       1.0  0.018279999999999966  0.35649  0.8932  1.0000
  C   C44       1.0  0.93967  0.32714  0.8839499999999998  1.0000
  C   C45       1.0  0.83765  0.36178  0.9104699999999999  1.0000
  C   C46       1.0  0.6372099999999999  0.43265999999999993  0.9622799999999999  1.0000
  C   C47       1.0  0.7211799999999999  0.63855  0.26799  1.0000
  C   C48       1.0  0.7684099999999998  0.62297  0.32029  1.0000
  C   C49       1.0  0.8267899999999998  0.5576  0.3175499999999999  1.0000
  C   C50       1.0  0.8788400000000001  0.53939  0.37254  1.0000
  C   C51       1.0  0.8171699999999996  0.52127  0.44652999999999987  1.0000
  C   C52       1.0  0.70888  0.51466  0.47188  1.0000
  C   C53       1.0  0.6786299999999997  0.49301  0.54584  1.0000
  C   C54       1.0  0.7680499999999999  0.48699  0.56639  1.0000
  C   C55       1.0  0.7701099999999999  0.46544  0.6376899999999999  1.0000
  C   C56       1.0  0.8348399999999998  0.5102  0.26144  1.0000
  C   C57       1.0  0.78533  0.52932  0.21116  1.0000
  C   C58       1.0  0.5675999999999998  0.35768999999999995  0.76558  1.0000
  C   C59       1.0  0.6617800000000003  0.3754699999999999  0.7157799999999997  1.0000
  C   C60       1.0  0.58901  0.49637999999999993  0.73087  1.0000
  C   C61       1.0  0.14539999999999997  0.55931  0.26653  1.0000
  C   C62       1.0  0.9853299999999996  0.54169  0.3457  1.0000
  C   C63       1.0  0.85638  0.4586799999999999  0.65837  1.0000
  C   C64       1.0  0.4983199999999999  0.47480999999999995  0.78191  1.0000
  C   C65       1.0  0.3166399999999998  0.06001999999999999  0.73061  1.0000
  C   C66       1.0  0.63568  0.7633  0.14021  1.0000
  C   C67       1.0  0.58165  0.8693099999999999  0.07681999999999997  1.0000
  C   C68       1.0  0.36816000000000004  0.9459699999999999  0.30474999999999997  1.0000
  C   C69       1.0  0.6546799999999999  0.83325  0.10159999999999997  1.0000
  C   C70       1.0  0.7064199999999999  0.02615  0.97318  1.0000
  C   C71       1.0  0.69011  0.9622999999999999  0.02302  1.0000
  C   C72       1.0  0.7649  0.92846  0.05184  1.0000
  C   C73       1.0  0.8550200000000001  0.9578399999999999  0.04589  1.0000
  C   C74       1.0  0.9261899999999997  0.92244  0.07272  1.0000
  C   C75       1.0  0.9108599999999998  0.85593  0.10742  1.0000
  C   C76       1.0  0.8226599999999996  0.82701  0.11666999999999998  1.0000
  C   C77       1.0  0.74746  0.86207  0.09013  1.0000
  C   C78       1.0  0.6  0.9330999999999999  0.03721  1.0000
  C   C79       1.0  0.98929  0.13861  0.73133  1.0000
  C   C80       1.0  0.08898  0.12314999999999998  0.67924  1.0000
  C   C81       1.0  0.14438000000000004  0.057749999999999996  0.68221  1.0000
  C   C82       1.0  0.25143  0.03953  0.62734  1.0000
  C   C83       1.0  0.26366999999999996  0.021399999999999995  0.5534799999999999  1.0000
  C   C84       1.0  0.1806500000000001  0.01482  0.5282599999999998  1.0000
  C   C85       1.0  0.22429  0.99311  0.45442999999999995  1.0000
  C   C86       1.0  0.33429  0.9870599999999999  0.43381  1.0000
  C   C87       1.0  0.4076399999999999  0.9655  0.36262  1.0000
  C   C88       1.0  0.09604000000000007  0.01029  0.7383899999999998  1.0000
  C   C89       1.0  0.9960899999999996  0.029299999999999996  0.78843  1.0000
  C   C90       1.0  0.3331399999999997  0.85773  0.23523999999999998  1.0000
  C   C91       1.0  0.3774899999999999  0.87554  0.28491999999999995  1.0000
  C   C92       1.0  0.3194000000000001  0.9964399999999999  0.26966  1.0000
  C   C93       1.0  0.4120699999999998  0.05928  0.73311  1.0000
  C   C94       1.0  0.33108999999999994  0.041749999999999995  0.65413  1.0000
  C   C95       1.0  0.5146  0.9586799999999999  0.3419  1.0000
  C   C96       1.0  0.27981000000000006  0.9748899999999999  0.21869999999999995  1.0000
  C   C97       1.0  0.9525299999999997  0.4398599999999999  0.73096  1.0000
  C   C98       1.0  0.22391999999999998  0.7373199999999999  0.13922  1.0000
  C   C99       1.0  0.34113  0.63129  0.07692  1.0000
  C   C100      1.0  0.32733000000000007  0.5538  0.30432  1.0000
  C   C101      1.0  0.2433499999999999  0.66737  0.101  1.0000
  C   C102      1.0  0.32083  0.4740499999999999  0.97332  1.0000
  C   C103      1.0  0.2873599999999999  0.53788  0.02315  1.0000
  C   C104      1.0  0.18372999999999998  0.57172  0.05161  1.0000
  C   C105      1.0  0.09989999999999999  0.54212  0.04559  1.0000
  C   C106      1.0  0.0017200000000000268  0.5771099999999999  0.07208  1.0000
  C   C107      1.0  0.9817099999999996  0.64352  0.10681  1.0000
  C   C108      1.0  0.060320000000000006  0.6728599999999999  0.11606  1.0000
  C   C109      1.0  0.16233999999999998  0.63822  0.08954  1.0000
  C   C110      1.0  0.36278999999999995  0.56734  0.03772  1.0000
  C   C111      1.0  0.27898000000000006  0.36136  0.7321199999999998  1.0000
  C   C112      1.0  0.2317799999999998  0.37681  0.67979  1.0000
  C   C113      1.0  0.17329000000000003  0.44211  0.6824499999999998  1.0000
  C   C114      1.0  0.12131000000000011  0.45985  0.6273499999999997  1.0000
  C   C115      1.0  0.1830399999999999  0.47778999999999994  0.5533  1.0000
  C   C116      1.0  0.29107000000000016  0.48518  0.5282  1.0000
  C   C117      1.0  0.32129  0.50684  0.4542399999999999  1.0000
  C   C118      1.0  0.23213999999999996  0.5120799999999999  0.4334399999999999  1.0000
  C   C119      1.0  0.23001999999999997  0.53381  0.3622  1.0000
  C   C120      1.0  0.16516000000000006  0.48963999999999996  0.7384499999999998  1.0000
  C   C121      1.0  0.21465999999999985  0.47065999999999997  0.78878  1.0000
  C   C122      1.0  0.43216  0.6422  0.23462  1.0000
  C   C123      1.0  0.3380300000000001  0.62429  0.2843999999999999  1.0000
  C   C124      1.0  0.41112  0.50346  0.26911  1.0000
  C   C125      1.0  0.8545599999999997  0.44051999999999997  0.7335399999999999  1.0000
  C   C126      1.0  0.01487000000000009  0.45732999999999996  0.6541599999999997  1.0000
  C   C127      1.0  0.14379000000000003  0.5403399999999999  0.34149  1.0000
  C   C128      1.0  0.50173  0.52515  0.2181  1.0000
  N   N1        1.0  0.71575  0.09349  0.79668  1.0000
  N   N2        1.0  0.05669000000000002  0.9076599999999999  0.2148  1.0000
  N   N3        1.0  0.6434599999999999  0.99405  0.5053  1.0000
  N   N4        1.0  0.56538  0.96915  0.38934  1.0000
  N   N5        1.0  0.48671  0.40642999999999996  0.79753  1.0000
  N   N6        1.0  0.72952  0.59239  0.21414  1.0000
  N   N7        1.0  0.8515699999999998  0.50424  0.505  1.0000
  N   N8        1.0  0.04572000000000008  0.52915  0.3888799999999999  1.0000
  N   N9        1.0  0.28422  0.9065  0.20318999999999995  1.0000
  N   N10       1.0  0.9433699999999998  0.09234999999999999  0.78515  1.0000
  N   N11       1.0  0.35649000000000003  0.00432  0.49504999999999993  1.0000
  N   N12       1.0  0.43466  0.02914  0.61093  1.0000
  N   N13       1.0  0.5131700000000001  0.5935699999999999  0.20258  1.0000
  N   N14       1.0  0.2705  0.40762  0.78591  1.0000
  N   N15       1.0  0.14883000000000002  0.49420999999999987  0.4946499999999999  1.0000
  N   N16       1.0  0.95464  0.4692299999999999  0.6108199999999998  1.0000
  O   O1        1.0  0.31501  0.28999  0.90321  1.0000
  O   O2        1.0  0.42357000000000006  0.23985  0.7920299999999998  1.0000
  O   O3        1.0  0.19881  0.9682899999999999  0.0727  1.0000
  O   O4        1.0  0.36718999999999996  0.93055  0.02729  1.0000
  O   O5        1.0  0.7854100000000004  0.20901  0.9030299999999998  1.0000
  O   O6        1.0  0.78076  0.25985  0.7938699999999997  1.0000
  O   O7        1.0  0.7287300000000001  0.5315999999999999  0.07217  1.0000
  O   O8        1.0  0.60483  0.56918  0.02743  1.0000
  O   O9        1.0  0.6849399999999998  0.71001  0.09678  1.0000
  O   O10       1.0  0.5764199999999998  0.76015  0.20796999999999993  1.0000
  O   O11       1.0  0.8011599999999999  0.03173  0.9272599999999999  1.0000
  O   O12       1.0  0.6327900000000001  0.06946  0.9726999999999999  1.0000
  O   O13       1.0  0.21456999999999998  0.7909899999999997  0.09696  1.0000
  O   O14       1.0  0.21921  0.7401299999999998  0.20612999999999995  1.0000
  O   O15       1.0  0.27123000000000014  0.46841999999999995  0.9278699999999999  1.0000
  O   O16       1.0  0.39515999999999996  0.4308199999999999  0.97258  1.0000
