data_image0
_chemical_formula_structural       Na4Cu8H108C152N24O20
_chemical_formula_sum              "Na4 Cu8 H108 C152 N24 O20"
_cell_length_a       8.68735
_cell_length_b       19.38476
_cell_length_c       21.393290000000004
_cell_angle_alpha    90.08082999999999
_cell_angle_beta     90.03661
_cell_angle_gamma    89.95495

_space_group_name_H-M_alt    "P 1"
_space_group_IT_number       1

loop_
  _space_group_symop_operation_xyz
  'x, y, z'

loop_
  _atom_site_type_symbol
  _atom_site_label
  _atom_site_symmetry_multiplicity
  _atom_site_fract_x
  _atom_site_fract_y
  _atom_site_fract_z
  _atom_site_occupancy
  Na  Na1       1.0  0.12903  5.999999999999999e-05  0.6635  1.0000
  Na  Na2       1.0  0.37109  0.9965799999999998  0.1649  1.0000
  Na  Na3       1.0  0.8784999999999998  0.50683  0.83815  1.0000
  Na  Na4       1.0  0.64395  0.5033399999999999  0.33044  1.0000
  Cu  Cu1       1.0  0.011179999999999999  0.08149999999999998  0.41168  1.0000
  Cu  Cu2       1.0  0.6991  0.17739  0.36430999999999997  1.0000
  Cu  Cu3       1.0  0.4882  0.91828  0.9115399999999999  1.0000
  Cu  Cu4       1.0  0.80131  0.82424  0.86478  1.0000
  Cu  Cu5       1.0  0.98927  0.58131  0.08758  1.0000
  Cu  Cu6       1.0  0.3021  0.67614  0.13522  1.0000
  Cu  Cu7       1.0  0.51262  0.41831  0.58834  1.0000
  Cu  Cu8       1.0  0.20029999999999995  0.3234  0.6358  1.0000
  H   H1        1.0  0.84164  0.16821  0.46473  1.0000
  H   H2        1.0  0.85175  0.9505199999999999  0.5603  1.0000
  H   H3        1.0  0.6526599999999999  0.9732999999999999  0.63999  1.0000
  H   H4        1.0  0.6010199999999998  0.09357  0.67572  1.0000
  H   H5        1.0  0.74659  0.1906  0.6280099999999998  1.0000
  H   H6        1.0  0.9470899999999999  0.16799  0.54861  1.0000
  H   H7        1.0  0.35278  0.89335  0.4851599999999999  1.0000
  H   H8        1.0  0.45669  0.8659199999999999  0.37775  1.0000
  H   H9        1.0  0.36042  0.9321799999999999  0.28511  1.0000
  H   H10       1.0  0.95199  0.08308999999999998  0.20088999999999999  1.0000
  H   H11       1.0  0.8437  0.17716999999999994  0.13593  1.0000
  H   H12       1.0  0.83819  0.29823  0.17693999999999996  1.0000
  H   H13       1.0  0.9310399999999999  0.3214  0.28494  1.0000
  H   H14       1.0  0.03443  0.22649999999999998  0.3502  1.0000
  H   H15       1.0  0.3624699999999999  0.1449  0.1786  1.0000
  H   H16       1.0  0.30068  0.27079  0.16888  1.0000
  H   H17       1.0  0.4271  0.35621999999999987  0.24024999999999996  1.0000
  H   H18       1.0  0.7842699999999998  0.9899699999999998  0.24836999999999998  1.0000
  H   H19       1.0  0.8958299999999998  0.8779699999999999  0.28096  1.0000
  H   H20       1.0  0.88599  0.8415699999999998  0.3923  1.0000
  H   H21       1.0  0.7619499999999998  0.9193499999999999  0.47074  1.0000
  H   H22       1.0  0.65779  0.0324  0.43891  1.0000
  H   H23       1.0  0.63653  0.24212999999999998  0.50286  1.0000
  H   H24       1.0  0.7594299999999998  0.29266  0.59795  1.0000
  H   H25       1.0  0.94721  0.38800999999999997  0.58842  1.0000
  H   H26       1.0  0.02115  0.43049  0.48181  1.0000
  H   H27       1.0  0.89673  0.38211  0.38818  1.0000
  H   H28       1.0  0.6602  0.8349499999999999  0.96545  1.0000
  H   H29       1.0  0.6492499999999998  0.04901  0.0603  1.0000
  H   H30       1.0  0.8477599999999997  0.026439999999999998  0.14021  1.0000
  H   H31       1.0  0.8986999999999998  0.90629  0.17618  1.0000
  H   H32       1.0  0.7530299999999998  0.80917  0.1284  1.0000
  H   H33       1.0  0.5532299999999998  0.83147  0.04866  1.0000
  H   H34       1.0  0.14779  0.10721  0.98584  1.0000
  H   H35       1.0  0.0432  0.13409  0.8784299999999999  1.0000
  H   H36       1.0  0.13883  0.0677  0.78561  1.0000
  H   H37       1.0  0.54755  0.91691  0.70106  1.0000
  H   H38       1.0  0.6559999999999998  0.8227999999999999  0.63602  1.0000
  H   H39       1.0  0.66241  0.70179  0.67681  1.0000
  H   H40       1.0  0.56943  0.67865  0.78465  1.0000
  H   H41       1.0  0.46547  0.77352  0.85003  1.0000
  H   H42       1.0  0.13873  0.8553699999999999  0.67889  1.0000
  H   H43       1.0  0.19815  0.72939  0.6689  1.0000
  H   H44       1.0  0.07214  0.64459  0.74052  1.0000
  H   H45       1.0  0.71674  0.01073  0.7483099999999999  1.0000
  H   H46       1.0  0.60377  0.12243  0.78107  1.0000
  H   H47       1.0  0.6129699999999998  0.15891  0.8924399999999999  1.0000
  H   H48       1.0  0.73666  0.08129  0.97108  1.0000
  H   H49       1.0  0.84232  0.96838  0.93893  1.0000
  H   H50       1.0  0.8634299999999998  0.7592  0.0037699999999999995  1.0000
  H   H51       1.0  0.74112  0.70737  0.09831  1.0000
  H   H52       1.0  0.5540799999999998  0.61177  0.08759  1.0000
  H   H53       1.0  0.48138999999999993  0.5699  0.98058  1.0000
  H   H54       1.0  0.60513  0.61958  0.88752  1.0000
  H   H55       1.0  0.15744  0.6680499999999998  0.035519999999999996  1.0000
  H   H56       1.0  0.1494  0.45057999999999987  0.93953  1.0000
  H   H57       1.0  0.34845999999999994  0.47328999999999993  0.85987  1.0000
  H   H58       1.0  0.39905  0.59346  0.82406  1.0000
  H   H59       1.0  0.25297  0.69059  0.8718299999999999  1.0000
  H   H60       1.0  0.052389999999999985  0.66804  0.9510899999999999  1.0000
  H   H61       1.0  0.64655  0.39314  0.01449  1.0000
  H   H62       1.0  0.54456  0.3666299999999999  0.12238999999999998  1.0000
  H   H63       1.0  0.64271  0.43266  0.21462999999999996  1.0000
  H   H64       1.0  0.05196  0.58343  0.29767  1.0000
  H   H65       1.0  0.15683  0.6773999999999998  0.36348  1.0000
  H   H66       1.0  0.16097  0.7987699999999999  0.32338999999999996  1.0000
  H   H67       1.0  0.06906  0.82223  0.21537  1.0000
  H   H68       1.0  0.9670599999999999  0.7274  0.14931  1.0000
  H   H69       1.0  0.63512  0.64539  0.32209  1.0000
  H   H70       1.0  0.69781  0.7709099999999998  0.33128  1.0000
  H   H71       1.0  0.57308  0.8560199999999999  0.25937  1.0000
  H   H72       1.0  0.21624  0.48972999999999994  0.25153  1.0000
  H   H73       1.0  0.10416  0.37801  0.21892999999999999  1.0000
  H   H74       1.0  0.11347999999999997  0.34133  0.10755  1.0000
  H   H75       1.0  0.23739999999999997  0.4187399999999999  0.02893  1.0000
  H   H76       1.0  0.34188  0.53184  0.060869999999999994  1.0000
  H   H77       1.0  0.3632599999999999  0.74131  0.99654  1.0000
  H   H78       1.0  0.24105999999999997  0.7926599999999999  0.90177  1.0000
  H   H79       1.0  0.05376  0.8882699999999998  0.9119299999999999  1.0000
  H   H80       1.0  0.9799999999999999  0.9304699999999999  0.01876  1.0000
  H   H81       1.0  0.10367  0.88127  0.11212  1.0000
  H   H82       1.0  0.3380099999999999  0.33619  0.53496  1.0000
  H   H83       1.0  0.3519099999999999  0.54908  0.4392  1.0000
  H   H84       1.0  0.15223  0.52643  0.3597  1.0000
  H   H85       1.0  0.10072  0.40616  0.32394  1.0000
  H   H86       1.0  0.24640999999999996  0.30906  0.37167  1.0000
  H   H87       1.0  0.44665  0.33156  0.4513  1.0000
  H   H88       1.0  0.8521999999999997  0.607  0.51416  1.0000
  H   H89       1.0  0.95652  0.6341599999999998  0.62156  1.0000
  H   H90       1.0  0.86107  0.56794  0.7143  1.0000
  H   H91       1.0  0.45414  0.41715999999999986  0.7991799999999999  1.0000
  H   H92       1.0  0.3446  0.3232899999999999  0.86396  1.0000
  H   H93       1.0  0.33775  0.20227  0.8228599999999999  1.0000
  H   H94       1.0  0.43084  0.17897  0.71498  1.0000
  H   H95       1.0  0.53528  0.27364  0.64987  1.0000
  H   H96       1.0  0.86131  0.3552999999999999  0.82074  1.0000
  H   H97       1.0  0.8020499999999998  0.22908  0.8307799999999999  1.0000
  H   H98       1.0  0.92766  0.14399  0.75882  1.0000
  H   H99       1.0  0.28318  0.5103499999999999  0.75176  1.0000
  H   H100      1.0  0.39567999999999987  0.62202  0.71915  1.0000
  H   H101      1.0  0.3864299999999999  0.6582799999999998  0.60781  1.0000
  H   H102      1.0  0.26278  0.58049  0.52909  1.0000
  H   H103      1.0  0.15736  0.46773  0.56117  1.0000
  H   H104      1.0  0.13691999999999993  0.25866  0.49603  1.0000
  H   H105      1.0  0.25977  0.20728  0.40136  1.0000
  H   H106      1.0  0.44671  0.11162999999999998  0.41152999999999995  1.0000
  H   H107      1.0  0.52044  0.06979  0.5183899999999999  1.0000
  H   H108      1.0  0.39615  0.11907  0.6117  1.0000
  C   C1        1.0  0.91206  0.05752999999999999  0.54782  1.0000
  C   C2        1.0  0.82757  0.00315  0.57483  1.0000
  C   C3        1.0  0.71616  0.01624  0.62008  1.0000
  C   C4        1.0  0.6867699999999999  0.08371  0.63981  1.0000
  C   C5        1.0  0.7683499999999998  0.13797999999999996  0.61279  1.0000
  C   C6        1.0  0.8795099999999999  0.12539  0.56706  1.0000
  C   C7        1.0  0.12587  0.9931399999999999  0.50942  1.0000
  C   C8        1.0  0.20605  0.9734399999999999  0.44989  1.0000
  C   C9        1.0  0.31504  0.9210899999999997  0.44376  1.0000
  C   C10       1.0  0.37142  0.9064899999999998  0.38394999999999996  1.0000
  C   C11       1.0  0.3193299999999999  0.9435999999999999  0.33199  1.0000
  C   C12       1.0  0.21284  0.9966  0.34182  1.0000
  C   C13       1.0  0.14939  0.044419999999999994  0.29277  1.0000
  C   C14       1.0  0.00407  0.14822  0.27946  1.0000
  C   C15       1.0  0.9476399999999999  0.13537  0.21874  1.0000
  C   C16       1.0  0.88781  0.18872  0.18243  1.0000
  C   C17       1.0  0.88396  0.2564099999999999  0.20528999999999997  1.0000
  C   C18       1.0  0.93797  0.26952  0.26568  1.0000
  C   C19       1.0  0.99612  0.21624  0.30268  1.0000
  C   C20       1.0  0.711  0.01915  0.34095  1.0000
  C   C21       1.0  0.78032  0.9745999999999998  0.29700999999999994  1.0000
  C   C22       1.0  0.84298  0.91166  0.31557  1.0000
  C   C23       1.0  0.83709  0.8908699999999998  0.37814999999999993  1.0000
  C   C24       1.0  0.76863  0.9346099999999998  0.42196000000000006  1.0000
  C   C25       1.0  0.7079  0.9983699999999999  0.40399  1.0000
  C   C26       1.0  0.57006  0.08941  0.26953  1.0000
  C   C27       1.0  0.51629  0.16178  0.25663  1.0000
  C   C28       1.0  0.4154799999999999  0.18266  0.2094  1.0000
  C   C29       1.0  0.38177  0.25305999999999995  0.20418  1.0000
  C   C30       1.0  0.45083  0.30126  0.24404  1.0000
  C   C31       1.0  0.54852  0.27663  0.29072  1.0000
  C   C32       1.0  0.6321  0.3192999999999999  0.33855  1.0000
  C   C33       1.0  0.7568499999999999  0.30948  0.43882  1.0000
  C   C34       1.0  0.72087  0.28352  0.49864  1.0000
  C   C35       1.0  0.7894999999999998  0.31186  0.55181  1.0000
  C   C36       1.0  0.89649  0.3654  0.54659  1.0000
  C   C37       1.0  0.93591  0.3898099999999999  0.48731  1.0000
  C   C38       1.0  0.86641  0.3624899999999999  0.43394999999999995  1.0000
  C   C39       1.0  0.58871  0.94195  0.047729999999999995  1.0000
  C   C40       1.0  0.6732099999999998  0.9964  0.07482  1.0000
  C   C41       1.0  0.78431  0.9834599999999999  0.12021  1.0000
  C   C42       1.0  0.81336  0.9160599999999999  0.14008  1.0000
  C   C43       1.0  0.7318499999999999  0.8617299999999999  0.113  1.0000
  C   C44       1.0  0.62094  0.8741399999999998  0.06707  1.0000
  C   C45       1.0  0.3749999999999999  0.00656  0.01008  1.0000
  C   C46       1.0  0.29485  0.02697  0.9505899999999999  1.0000
  C   C47       1.0  0.1857  0.07932  0.9444799999999999  1.0000
  C   C48       1.0  0.12884999999999994  0.09371  0.8846499999999999  1.0000
  C   C49       1.0  0.18049  0.056599999999999984  0.83253  1.0000
  C   C50       1.0  0.28722  0.0037099999999999993  0.84237  1.0000
  C   C51       1.0  0.35027  0.95569  0.7932500000000001  1.0000
  C   C52       1.0  0.49564  0.85184  0.77957  1.0000
  C   C53       1.0  0.55209  0.8646499999999999  0.7188799999999999  1.0000
  C   C54       1.0  0.61206  0.8112699999999999  0.68249  1.0000
  C   C55       1.0  0.6163399999999998  0.7435899999999999  0.70519  1.0000
  C   C56       1.0  0.56226  0.73052  0.7655100000000001  1.0000
  C   C57       1.0  0.50366  0.78377  0.8025499999999999  1.0000
  C   C58       1.0  0.78879  0.9816399999999998  0.84117  1.0000
  C   C59       1.0  0.72  0.02601  0.79704  1.0000
  C   C60       1.0  0.65697  0.08887  0.81565  1.0000
  C   C61       1.0  0.66235  0.10969  0.87829  1.0000
  C   C62       1.0  0.73061  0.06612  0.92222  1.0000
  C   C63       1.0  0.79157  0.0024199999999999994  0.90421  1.0000
  C   C64       1.0  0.9318  0.91143  0.77053  1.0000
  C   C65       1.0  0.98625  0.8392799999999999  0.75749  1.0000
  C   C66       1.0  0.08599  0.81801  0.71002  1.0000
  C   C67       1.0  0.11831999999999998  0.7475  0.70452  1.0000
  C   C68       1.0  0.04904  0.6996  0.74444  1.0000
  C   C69       1.0  0.9524399999999998  0.7247199999999999  0.7912899999999999  1.0000
  C   C70       1.0  0.86878  0.68288  0.8393199999999998  1.0000
  C   C71       1.0  0.74377  0.6921499999999999  0.93907  1.0000
  C   C72       1.0  0.7798299999999999  0.71752  0.99915  1.0000
  C   C73       1.0  0.71134  0.6885299999999999  0.051949999999999996  1.0000
  C   C74       1.0  0.6048  0.63486  0.04606  1.0000
  C   C75       1.0  0.56583  0.61084  0.9865199999999998  1.0000
  C   C76       1.0  0.63499  0.63887  0.9335199999999999  1.0000
  C   C77       1.0  0.08803  0.55766  0.95183  1.0000
  C   C78       1.0  0.17298  0.50319  0.9249199999999999  1.0000
  C   C79       1.0  0.28441  0.51621  0.8797  1.0000
  C   C80       1.0  0.3133  0.58365  0.85993  1.0000
  C   C81       1.0  0.23141999999999996  0.63798  0.88692  1.0000
  C   C82       1.0  0.12012999999999999  0.62544  0.9325399999999999  1.0000
  C   C83       1.0  0.8733899999999998  0.49387  0.98958  1.0000
  C   C84       1.0  0.7938199999999997  0.47356999999999994  0.04912  1.0000
  C   C85       1.0  0.68509  0.42122  0.05567  1.0000
  C   C86       1.0  0.6298999999999999  0.40697999999999995  0.11574  1.0000
  C   C87       1.0  0.68319  0.44402  0.16764  1.0000
  C   C88       1.0  0.78974  0.49677  0.15733999999999998  1.0000
  C   C89       1.0  0.85528  0.54463  0.20591999999999996  1.0000
  C   C90       1.0  0.9987799999999999  0.64869  0.21948  1.0000
  C   C91       1.0  0.05524  0.6357899999999997  0.28017  1.0000
  C   C92       1.0  0.1134  0.68916  0.31696  1.0000
  C   C93       1.0  0.11626  0.75698  0.29462  1.0000
  C   C94       1.0  0.06268  0.77019  0.23419999999999996  1.0000
  C   C95       1.0  0.00569  0.7169  0.19675000000000004  1.0000
  C   C96       1.0  0.28857999999999995  0.51873  0.1588  1.0000
  C   C97       1.0  0.21958  0.47440999999999994  0.20281999999999997  1.0000
  C   C98       1.0  0.15695  0.41149  0.18426  1.0000
  C   C99       1.0  0.16273  0.39056  0.12166999999999999  1.0000
  C   C100      1.0  0.23107999999999998  0.43407  0.07776  1.0000
  C   C101      1.0  0.29179  0.49784  0.09573  1.0000
  C   C102      1.0  0.43059  0.58911  0.2299  1.0000
  C   C103      1.0  0.48416999999999993  0.6614299999999999  0.24301  1.0000
  C   C104      1.0  0.5835899999999998  0.68271  0.29059  1.0000
  C   C105      1.0  0.61739  0.75309  0.29573  1.0000
  C   C106      1.0  0.54908  0.8010799999999998  0.25553  1.0000
  C   C107      1.0  0.45209  0.7760299999999998  0.20869  1.0000
  C   C108      1.0  0.36819  0.81797  0.16061  1.0000
  C   C109      1.0  0.24279999999999996  0.8084  0.06091  1.0000
  C   C110      1.0  0.2789799999999999  0.78278  0.00095  1.0000
  C   C111      1.0  0.21067999999999998  0.8116199999999998  0.948  1.0000
  C   C112      1.0  0.10407  0.8653299999999999  0.95363  1.0000
  C   C113      1.0  0.06477  0.88956  0.013059999999999999  1.0000
  C   C114      1.0  0.13386999999999993  0.86175  0.06624  1.0000
  C   C115      1.0  0.41164  0.44199  0.4519099999999999  1.0000
  C   C116      1.0  0.32743  0.4964599999999999  0.42478999999999995  1.0000
  C   C117      1.0  0.21587999999999993  0.48345999999999995  0.37961  1.0000
  C   C118      1.0  0.18644  0.41598999999999997  0.35989  1.0000
  C   C119      1.0  0.26789999999999997  0.36165999999999987  0.38695  1.0000
  C   C120      1.0  0.37895999999999996  0.37415  0.4328  1.0000
  C   C121      1.0  0.62535  0.50627  0.48957  1.0000
  C   C122      1.0  0.7053699999999999  0.52675  0.54926  1.0000
  C   C123      1.0  0.8142799999999998  0.5791399999999999  0.55546  1.0000
  C   C124      1.0  0.87103  0.59373  0.61531  1.0000
  C   C125      1.0  0.81947  0.55677  0.6674  1.0000
  C   C126      1.0  0.71299  0.50382  0.65764  1.0000
  C   C127      1.0  0.6505  0.45602999999999994  0.7070699999999999  1.0000
  C   C128      1.0  0.50554  0.3520599999999999  0.72053  1.0000
  C   C129      1.0  0.4490999999999999  0.36491999999999997  0.7812499999999999  1.0000
  C   C130      1.0  0.38868  0.31167999999999996  0.81748  1.0000
  C   C131      1.0  0.38415  0.244  0.79462  1.0000
  C   C132      1.0  0.4382399999999999  0.23083999999999996  0.73425  1.0000
  C   C133      1.0  0.49710999999999994  0.28399  0.69736  1.0000
  C   C134      1.0  0.21114  0.48106999999999994  0.65904  1.0000
  C   C135      1.0  0.27979  0.52561  0.70308  1.0000
  C   C136      1.0  0.34242  0.58847  0.68453  1.0000
  C   C137      1.0  0.33686  0.60916  0.62192  1.0000
  C   C138      1.0  0.26871  0.56546  0.57797  1.0000
  C   C139      1.0  0.20809  0.50174  0.59597  1.0000
  C   C140      1.0  0.0676  0.41103  0.72988  1.0000
  C   C141      1.0  0.014519999999999998  0.33858  0.74264  1.0000
  C   C142      1.0  0.9143099999999998  0.31753999999999993  0.7899199999999998  1.0000
  C   C143      1.0  0.8819999999999999  0.24704  0.7952199999999999  1.0000
  C   C144      1.0  0.9512799999999999  0.19897  0.7552399999999999  1.0000
  C   C145      1.0  0.04881999999999999  0.22381  0.70866  1.0000
  C   C146      1.0  0.13238999999999998  0.18154  0.6605699999999999  1.0000
  C   C147      1.0  0.25618  0.19132999999999994  0.56047  1.0000
  C   C148      1.0  0.22034  0.21689999999999998  0.50051  1.0000
  C   C149      1.0  0.2893  0.18818999999999997  0.4476  1.0000
  C   C150      1.0  0.39612  0.13458  0.45321  1.0000
  C   C151      1.0  0.43528  0.11051  0.51265  1.0000
  C   C152      1.0  0.36563  0.13824  0.56577  1.0000
  N   N1        1.0  0.02108  0.04384  0.50074  1.0000
  N   N2        1.0  0.16064  0.00902  0.39962  1.0000
  N   N3        1.0  0.06468  0.09624999999999999  0.31819  1.0000
  N   N4        1.0  0.64915  0.08380999999999998  0.32397  1.0000
  N   N5        1.0  0.5742899999999999  0.20884999999999998  0.2958  1.0000
  N   N6        1.0  0.6831099999999998  0.28002  0.38663  1.0000
  N   N7        1.0  0.47948  0.95572  0.0007499999999999999  1.0000
  N   N8        1.0  0.33985  0.9914299999999999  0.90013  1.0000
  N   N9        1.0  0.435  0.9037699999999999  0.8185099999999998  1.0000
  N   N10       1.0  0.85134  0.91698  0.8246  1.0000
  N   N11       1.0  0.9277800000000002  0.7924899999999999  0.7965599999999999  1.0000
  N   N12       1.0  0.81739  0.72213  0.8871999999999999  1.0000
  N   N13       1.0  0.9787599999999999  0.5441899999999998  0.9988  1.0000
  N   N14       1.0  0.84015  0.50906  0.09936999999999999  1.0000
  N   N15       1.0  0.93844  0.59665  0.18052  1.0000
  N   N16       1.0  0.35064  0.58338  0.17576  1.0000
  N   N17       1.0  0.42677  0.70826  0.20362999999999998  1.0000
  N   N18       1.0  0.31672  0.77849  0.11282999999999999  1.0000
  N   N19       1.0  0.5205900000000001  0.45572999999999997  0.49899  1.0000
  N   N20       1.0  0.66052  0.49138  0.59982  1.0000
  N   N21       1.0  0.5662799999999998  0.4038899999999999  0.68177  1.0000
  N   N22       1.0  0.14919  0.4165199999999999  0.67602  1.0000
  N   N23       1.0  0.07369  0.29161999999999993  0.70368  1.0000
  N   N24       1.0  0.18244999999999997  0.22098999999999994  0.61255  1.0000
  O   O1        1.0  0.85247  0.1494  0.4228799999999999  1.0000
  O   O2        1.0  0.15922  0.9616699999999999  0.55913  1.0000
  O   O3        1.0  0.18146  0.03433999999999999  0.23614  1.0000
  O   O4        1.0  0.53871  0.04229  0.23136999999999996  1.0000
  O   O5        1.0  0.64422  0.38316  0.33008  1.0000
  O   O6        1.0  0.6403299999999997  0.8475099999999998  0.92228  1.0000
  O   O7        1.0  0.34181  0.03728  0.06029  1.0000
  O   O8        1.0  0.31806  0.96562  0.73666  1.0000
  O   O9        1.0  0.96247  0.9586  0.73262  1.0000
  O   O10       1.0  0.85655  0.61896  0.83145  1.0000
  O   O11       1.0  0.15148  0.6467099999999998  0.07636  1.0000
  O   O12       1.0  0.8397799999999997  0.46342999999999995  0.93935  1.0000
  O   O13       1.0  0.82618  0.5343699999999999  0.26274  1.0000
  O   O14       1.0  0.46246  0.54192  0.26774  1.0000
  O   O15       1.0  0.35578  0.88192  0.16844  1.0000
  O   O16       1.0  0.36064  0.3474699999999999  0.57821  1.0000
  O   O17       1.0  0.65864  0.5365999999999997  0.43923  1.0000
  O   O18       1.0  0.68256  0.4662799999999999  0.76363  1.0000
  O   O19       1.0  0.034069999999999996  0.4581299999999999  0.7677099999999999  1.0000
  O   O20       1.0  0.1451  0.11763  0.66878  1.0000
