data_image0
_chemical_formula_structural       Cu16H128C160Se32Br16N32
_chemical_formula_sum              "Cu16 H128 C160 Se32 Br16 N32"
_cell_length_a       19.64995
_cell_length_b       19.71013
_cell_length_c       19.707680000000003
_cell_angle_alpha    100.71159000000002
_cell_angle_beta     114.15592
_cell_angle_gamma    114.15973

_symmetry_space_group_name_H-M    'P 1'
_symmetry_Int_Tables_number       1

loop_
  _symmetry_equiv_pos_as_xyz
  'x,y,z'

loop_
  _atom_site_type_symbol
  _atom_site_label
  _atom_site_symmetry_multiplicity
  _atom_site_fract_x
  _atom_site_fract_y
  _atom_site_fract_z
  _atom_site_occupancy
  Cu  Cu1       1.0  0.9654699999999999  0.5499100000000001  0.46377  1.0000
  Cu  Cu2       1.0  0.5351799999999999  0.49844000000000005  0.08487  1.0000
  Cu  Cu3       1.0  0.96506  0.91532  0.50166  1.0000
  Cu  Cu4       1.0  0.53485  0.5364000000000002  0.45024  1.0000
  Cu  Cu5       1.0  0.034539999999999994  0.45010000000000006  0.53623  1.0000
  Cu  Cu6       1.0  0.4648299999999999  0.50157  0.91513  1.0000
  Cu  Cu7       1.0  0.03495999999999993  0.08469  0.49834  1.0000
  Cu  Cu8       1.0  0.4651699999999999  0.4636100000000001  0.54976  1.0000
  Cu  Cu9       1.0  0.08597000000000013  0.5848000000000001  0.04924  1.0000
  Cu  Cu10      1.0  0.41362  0.9635300000000001  0.99876  1.0000
  Cu  Cu11      1.0  0.41379  0.95051  0.41502  1.0000
  Cu  Cu12      1.0  0.08614  0.0011200000000000006  0.03643  1.0000
  Cu  Cu13      1.0  0.91404  0.41521  0.95076  1.0000
  Cu  Cu14      1.0  0.5863899999999999  0.03647  0.00124  1.0000
  Cu  Cu15      1.0  0.5862199999999995  0.0494899999999999  0.5849899999999998  1.0000
  Cu  Cu16      1.0  0.9138699999999997  0.99888  0.9635699999999998  1.0000
  H   H1        1.0  0.79978  0.49984  0.17018  1.0000
  H   H2        1.0  0.91125  0.4969100000000001  0.13895  1.0000
  H   H3        1.0  0.0523799999999999  0.52406  0.2520399999999999  1.0000
  H   H4        1.0  0.07717000000000004  0.5508100000000001  0.39333  1.0000
  H   H5        1.0  0.03776000000000002  0.81281  0.65373  1.0000
  H   H6        1.0  0.9170399999999999  0.7483000000000001  0.67944  1.0000
  H   H7        1.0  0.8151399999999999  0.59451  0.6121  1.0000
  H   H8        1.0  0.8423799999999999  0.51175  0.52372  1.0000
  H   H9        1.0  0.7004  0.37019  0.19982  1.0000
  H   H10       1.0  0.58835  0.22725000000000004  0.08516999999999997  1.0000
  H   H11       1.0  0.44710999999999973  0.19913999999999987  0.9712399999999998  1.0000
  H   H12       1.0  0.42266999999999993  0.31588  0.97352  1.0000
  H   H13       1.0  0.46207  0.61585  0.27438  1.0000
  H   H14       1.0  0.5827199999999998  0.7625899999999998  0.3309999999999999  1.0000
  H   H15       1.0  0.6851499999999998  0.79754  0.2798899999999999  1.0000
  H   H16       1.0  0.6585399999999999  0.682  0.17029  1.0000
  H   H17       1.0  0.7997099999999997  0.80022  0.62973  1.0000
  H   H18       1.0  0.9116599999999998  0.91482  0.7727099999999998  1.0000
  H   H19       1.0  0.05292999999999995  0.028830000000000012  0.80095  1.0000
  H   H20       1.0  0.07753999999999989  0.026649999999999924  0.6842999999999998  1.0000
  H   H21       1.0  0.037910000000000006  0.72558  0.38408  1.0000
  H   H22       1.0  0.9172399999999998  0.66899  0.23736  1.0000
  H   H23       1.0  0.8148700000000001  0.7201400000000002  0.20252  1.0000
  H   H24       1.0  0.84159  0.82979  0.31812  1.0000
  H   H25       1.0  0.7002999999999999  0.8299900000000001  0.5001799999999997  1.0000
  H   H26       1.0  0.58868  0.8610100000000003  0.50304  1.0000
  H   H27       1.0  0.44762  0.7478  0.47588999999999987  1.0000
  H   H28       1.0  0.42309  0.60663  0.44929  1.0000
  H   H29       1.0  0.46219  0.34623  0.18723  1.0000
  H   H30       1.0  0.5828599999999999  0.32042  0.2516099999999999  1.0000
  H   H31       1.0  0.6848799999999999  0.3877600000000001  0.40541  1.0000
  H   H32       1.0  0.6578499999999999  0.47626  0.48829  1.0000
  H   H33       1.0  0.20022999999999988  0.50017  0.82982  1.0000
  H   H34       1.0  0.08876000000000014  0.5031000000000002  0.86105  1.0000
  H   H35       1.0  0.9476300000000001  0.47594000000000003  0.74797  1.0000
  H   H36       1.0  0.92284  0.44920000000000004  0.60667  1.0000
  H   H37       1.0  0.9622499999999998  0.18719  0.34627999999999987  1.0000
  H   H38       1.0  0.08297  0.25171  0.3205599999999999  1.0000
  H   H39       1.0  0.18487000000000006  0.40549000000000013  0.38791  1.0000
  H   H40       1.0  0.15763000000000002  0.4882500000000001  0.47628  1.0000
  H   H41       1.0  0.2996099999999998  0.62982  0.80018  1.0000
  H   H42       1.0  0.4116599999999999  0.77275  0.91483  1.0000
  H   H43       1.0  0.5529  0.80086  0.02876  1.0000
  H   H44       1.0  0.57735  0.68412  0.02648  1.0000
  H   H45       1.0  0.5379399999999999  0.38414999999999994  0.7256299999999999  1.0000
  H   H46       1.0  0.41729  0.23742000000000002  0.669  1.0000
  H   H47       1.0  0.31487  0.20247000000000007  0.72011  1.0000
  H   H48       1.0  0.3414699999999999  0.31801  0.82971  1.0000
  H   H49       1.0  0.2003  0.19978  0.37028  1.0000
  H   H50       1.0  0.08834999999999996  0.08517999999999998  0.22728999999999994  1.0000
  H   H51       1.0  0.9470799999999998  0.9711700000000002  0.19904999999999995  1.0000
  H   H52       1.0  0.9224700000000001  0.9733600000000001  0.3157  1.0000
  H   H53       1.0  0.96211  0.27442000000000005  0.61593  1.0000
  H   H54       1.0  0.08277  0.33101  0.76264  1.0000
  H   H55       1.0  0.18514999999999995  0.2798600000000001  0.79748  1.0000
  H   H56       1.0  0.15842  0.17022  0.68188  1.0000
  H   H57       1.0  0.29970999999999987  0.17001  0.49982  1.0000
  H   H58       1.0  0.4113299999999999  0.13900000000000004  0.49695999999999996  1.0000
  H   H59       1.0  0.5523899999999999  0.2522  0.52411  1.0000
  H   H60       1.0  0.57693  0.39338  0.55071  1.0000
  H   H61       1.0  0.53782  0.65378  0.81277  1.0000
  H   H62       1.0  0.41715  0.67958  0.74839  1.0000
  H   H63       1.0  0.31512999999999997  0.6122400000000001  0.59459  1.0000
  H   H64       1.0  0.34215999999999996  0.5237400000000001  0.5117099999999998  1.0000
  H   H65       1.0  0.33017000000000013  0.6993300000000002  0.99907  1.0000
  H   H66       1.0  0.35846999999999996  0.58533  0.9967899999999998  1.0000
  H   H67       1.0  0.2724  0.47242  0.024299999999999992  1.0000
  H   H68       1.0  0.15805999999999998  0.47531000000000007  0.05126  1.0000
  H   H69       1.0  0.15834999999999988  0.77427  0.3124499999999999  1.0000
  H   H70       1.0  0.06868000000000007  0.8308600000000002  0.24845999999999996  1.0000
  H   H71       1.0  0.98288  0.77967  0.09481  1.0000
  H   H72       1.0  0.9884100000000001  0.6699400000000002  0.01167  1.0000
  H   H73       1.0  0.16958  0.6686800000000002  0.869  1.0000
  H   H74       1.0  0.14073000000000008  0.6375400000000002  0.72632  1.0000
  H   H75       1.0  0.22703999999999996  0.75107  0.69947  1.0000
  H   H76       1.0  0.34168  0.8928  0.81671  1.0000
  H   H77       1.0  0.3418199999999999  0.15408000000000002  0.11657  1.0000
  H   H78       1.0  0.4314  0.17971  0.26295  1.0000
  H   H79       1.0  0.51762  0.11245000000000001  0.29761  1.0000
  H   H80       1.0  0.51259  0.02440999999999999  0.18227  1.0000
  H   H81       1.0  0.16984999999999997  0.0009399999999999998  0.30066  1.0000
  H   H82       1.0  0.14153999999999986  0.003189999999999966  0.41466999999999987  1.0000
  H   H83       1.0  0.22764000000000012  0.9757200000000001  0.52761  1.0000
  H   H84       1.0  0.34196999999999994  0.9487700000000001  0.52469  1.0000
  H   H85       1.0  0.34174  0.68754  0.22574  1.0000
  H   H86       1.0  0.43143  0.75154  0.16913  1.0000
  H   H87       1.0  0.5171599999999998  0.9051700000000001  0.22028  1.0000
  H   H88       1.0  0.5115600000000001  0.9882900000000001  0.32999  1.0000
  H   H89       1.0  0.33045  0.13101  0.33132  1.0000
  H   H90       1.0  0.35925  0.27366  0.36244  1.0000
  H   H91       1.0  0.27292  0.30049  0.24889999999999998  1.0000
  H   H92       1.0  0.1583  0.18326  0.10717  1.0000
  H   H93       1.0  0.15818000000000007  0.8834100000000003  0.8459  1.0000
  H   H94       1.0  0.06860000000000002  0.7370600000000002  0.82026  1.0000
  H   H95       1.0  0.9823799999999998  0.70239  0.88753  1.0000
  H   H96       1.0  0.9873999999999999  0.8177100000000002  0.97558  1.0000
  H   H97       1.0  0.6698499999999997  0.30068000000000006  0.00093  1.0000
  H   H98       1.0  0.6415399999999998  0.41467  0.00322  1.0000
  H   H99       1.0  0.72761  0.5275899999999999  0.9756999999999998  1.0000
  H   H100      1.0  0.8419499999999999  0.5247  0.94875  1.0000
  H   H101      1.0  0.84166  0.22573999999999994  0.68755  1.0000
  H   H102      1.0  0.93134  0.1691400000000001  0.75154  1.0000
  H   H103      1.0  0.017140000000000013  0.22033000000000008  0.90519  1.0000
  H   H104      1.0  0.011599999999999987  0.33007  0.9883299999999999  1.0000
  H   H105      1.0  0.8304299999999999  0.3313200000000001  0.13099999999999995  1.0000
  H   H106      1.0  0.8592799999999999  0.36246  0.27367999999999987  1.0000
  H   H107      1.0  0.77297  0.24893000000000004  0.30053  1.0000
  H   H108      1.0  0.6583299999999999  0.10720999999999997  0.18329999999999994  1.0000
  H   H109      1.0  0.6582  0.84592  0.88344  1.0000
  H   H110      1.0  0.5686099999999998  0.8202999999999999  0.73705  1.0000
  H   H111      1.0  0.48239999999999994  0.88756  0.70239  1.0000
  H   H112      1.0  0.48742  0.97559  0.81773  1.0000
  H   H113      1.0  0.8301599999999999  0.9990600000000002  0.69934  1.0000
  H   H114      1.0  0.8584699999999998  0.99681  0.58534  1.0000
  H   H115      1.0  0.7723699999999998  0.02428000000000001  0.47239  1.0000
  H   H116      1.0  0.6580399999999998  0.05123  0.47532  1.0000
  H   H117      1.0  0.65827  0.31247  0.77426  1.0000
  H   H118      1.0  0.5685799999999999  0.24847000000000002  0.83087  1.0000
  H   H119      1.0  0.48284999999999995  0.09482999999999998  0.77972  1.0000
  H   H120      1.0  0.48845  0.01171999999999999  0.67001  1.0000
  H   H121      1.0  0.6695599999999999  0.8689900000000003  0.66868  1.0000
  H   H122      1.0  0.64077  0.72634  0.63757  1.0000
  H   H123      1.0  0.72709  0.6995100000000002  0.75111  1.0000
  H   H124      1.0  0.8417199999999998  0.8167499999999999  0.8928399999999997  1.0000
  H   H125      1.0  0.8418399999999998  0.11659000000000001  0.15410999999999994  1.0000
  H   H126      1.0  0.93141  0.26295000000000013  0.17973999999999996  1.0000
  H   H127      1.0  0.01762999999999998  0.29761999999999994  0.11247  1.0000
  H   H128      1.0  0.012620000000000011  0.18230000000000002  0.02442  1.0000
  C   C1        1.0  0.88136  0.5262500000000002  0.29734  1.0000
  C   C2        1.0  0.8617699999999998  0.5104000000000002  0.2173  1.0000
  C   C3        1.0  0.92382  0.5094  0.20051  1.0000
  C   C4        1.0  0.0027800000000000012  0.52384  0.26362  1.0000
  C   C5        1.0  0.01717000000000003  0.53878  0.34145  1.0000
  C   C6        1.0  0.0030799999999999708  0.69589  0.57643  1.0000
  C   C7        1.0  0.9939700000000002  0.7464800000000001  0.62737  1.0000
  C   C8        1.0  0.9262099999999998  0.7101900000000002  0.64095  1.0000
  C   C9        1.0  0.8698299999999999  0.6245100000000001  0.60395  1.0000
  C   C10       1.0  0.88399  0.57851  0.55511  1.0000
  C   C11       1.0  0.6189699999999999  0.4159100000000001  0.14483  1.0000
  C   C12       1.0  0.6383600000000001  0.35534000000000004  0.14842  1.0000
  C   C13       1.0  0.57598  0.27636  0.08521  1.0000
  C   C14       1.0  0.49692  0.26046000000000014  0.02071  1.0000
  C   C15       1.0  0.4827399999999999  0.3240100000000001  0.02142  1.0000
  C   C16       1.0  0.49726999999999993  0.5734300000000002  0.19271  1.0000
  C   C17       1.0  0.50608  0.63348  0.25217  1.0000
  C   C18       1.0  0.57382  0.7149800000000002  0.28387  1.0000
  C   C19       1.0  0.6304899999999998  0.7345400000000001  0.25501  1.0000
  C   C20       1.0  0.6166499999999999  0.6715300000000002  0.19506  1.0000
  C   C21       1.0  0.8812300000000001  0.8553000000000003  0.58412  1.0000
  C   C22       1.0  0.86178  0.85165  0.64465  1.0000
  C   C23       1.0  0.9241099999999999  0.9148400000000001  0.72364  1.0000
  C   C24       1.0  0.0031800000000000513  0.97938  0.73961  1.0000
  C   C25       1.0  0.017440000000000084  0.9787200000000001  0.6761  1.0000
  C   C26       1.0  0.002839999999999968  0.80734  0.4266  1.0000
  C   C27       1.0  0.9939299999999999  0.74783  0.36651  1.0000
  C   C28       1.0  0.9261799999999998  0.71613  0.28501  1.0000
  C   C29       1.0  0.86954  0.74502  0.26551  1.0000
  C   C30       1.0  0.8834699999999999  0.80502  0.3285399999999999  1.0000
  C   C31       1.0  0.6188799999999999  0.7028099999999999  0.4738399999999999  1.0000
  C   C32       1.0  0.63836  0.7828100000000002  0.48964  1.0000
  C   C33       1.0  0.57623  0.79949  0.4906  1.0000
  C   C34       1.0  0.49729999999999996  0.73633  0.47618  1.0000
  C   C35       1.0  0.48303000000000007  0.6585600000000001  0.46131  1.0000
  C   C36       1.0  0.4970899999999999  0.42362000000000005  0.3042  1.0000
  C   C37       1.0  0.50607  0.3726  0.25356  1.0000
  C   C38       1.0  0.57379  0.35896  0.28978  1.0000
  C   C39       1.0  0.63024  0.39598  0.37546  1.0000
  C   C40       1.0  0.6162  0.44491  0.42153  1.0000
  C   C41       1.0  0.11865000000000002  0.47375  0.70266  1.0000
  C   C42       1.0  0.13823999999999992  0.48961  0.78271  1.0000
  C   C43       1.0  0.0762  0.4906  0.79949  1.0000
  C   C44       1.0  0.99723  0.47617000000000004  0.73638  1.0000
  C   C45       1.0  0.9828399999999999  0.46123  0.65856  1.0000
  C   C46       1.0  0.9969299999999999  0.30411  0.42357  1.0000
  C   C47       1.0  0.00604999999999998  0.25353  0.37263  1.0000
  C   C48       1.0  0.07381  0.28982  0.35906  1.0000
  C   C49       1.0  0.13018  0.3755  0.39605  1.0000
  C   C50       1.0  0.11601999999999998  0.42150000000000004  0.4448999999999999  1.0000
  C   C51       1.0  0.38103999999999993  0.5841000000000001  0.85517  1.0000
  C   C52       1.0  0.36165999999999987  0.64467  0.85159  1.0000
  C   C53       1.0  0.42403  0.72364  0.9148  1.0000
  C   C54       1.0  0.5030900000000001  0.7395500000000002  0.97929  1.0000
  C   C55       1.0  0.51728  0.6760000000000003  0.97859  1.0000
  C   C56       1.0  0.50274  0.42658  0.8072999999999998  1.0000
  C   C57       1.0  0.49392999999999987  0.36653  0.74784  1.0000
  C   C58       1.0  0.42619999999999997  0.2850300000000001  0.71614  1.0000
  C   C59       1.0  0.36951999999999996  0.26546999999999993  0.7449899999999999  1.0000
  C   C60       1.0  0.3833599999999999  0.3284700000000001  0.80495  1.0000
  C   C61       1.0  0.11877999999999997  0.14470999999999998  0.41588  1.0000
  C   C62       1.0  0.1382299999999999  0.14835  0.3553499999999999  1.0000
  C   C63       1.0  0.07590999999999999  0.08516  0.27636  1.0000
  C   C64       1.0  0.99683  0.020619999999999993  0.26039  1.0000
  C   C65       1.0  0.9825799999999998  0.021279999999999997  0.3239  1.0000
  C   C66       1.0  0.9971700000000001  0.19266  0.57341  1.0000
  C   C67       1.0  0.006079999999999918  0.25218  0.6334899999999998  1.0000
  C   C68       1.0  0.07383000000000003  0.2838700000000001  0.71499  1.0000
  C   C69       1.0  0.13047  0.25498  0.73449  1.0000
  C   C70       1.0  0.11653999999999999  0.19499000000000005  0.67146  1.0000
  C   C71       1.0  0.38112999999999986  0.29719  0.52616  1.0000
  C   C72       1.0  0.36166  0.21719  0.51036  1.0000
  C   C73       1.0  0.4237899999999999  0.20052  0.5094  1.0000
  C   C74       1.0  0.50271  0.26368  0.52382  1.0000
  C   C75       1.0  0.51698  0.3414500000000001  0.5387  1.0000
  C   C76       1.0  0.50293  0.57638  0.6957999999999998  1.0000
  C   C77       1.0  0.49393999999999993  0.62741  0.74644  1.0000
  C   C78       1.0  0.42622  0.64104  0.71022  1.0000
  C   C79       1.0  0.36977000000000004  0.6040300000000001  0.62454  1.0000
  C   C80       1.0  0.3838099999999999  0.5551000000000003  0.5784799999999998  1.0000
  C   C81       1.0  0.22915000000000005  0.6450000000000001  0.02548  1.0000
  C   C82       1.0  0.29347000000000006  0.6483800000000002  0.00979  1.0000
  C   C83       1.0  0.30932999999999994  0.58557  0.00916  1.0000
  C   C84       1.0  0.2606599999999999  0.52167  0.02389  1.0000
  C   C85       1.0  0.1978  0.52265  0.03884  1.0000
  C   C86       1.0  0.1188800000000001  0.6923700000000003  0.19541  1.0000
  C   C87       1.0  0.11851000000000003  0.75193  0.24616000000000002  1.0000
  C   C88       1.0  0.06899999999999999  0.78366  0.21018  1.0000
  C   C89       1.0  0.02068000000000001  0.75475  0.12458  1.0000
  C   C90       1.0  0.023510000000000007  0.69473  0.07837  1.0000
  C   C91       1.0  0.27077  0.79624  0.91565  1.0000
  C   C92       1.0  0.20625000000000004  0.7160200000000001  0.85465  1.0000
  C   C93       1.0  0.19012999999999994  0.69923  0.7758  1.0000
  C   C94       1.0  0.23889999999999997  0.76262  0.76057  1.0000
  C   C95       1.0  0.3019399999999999  0.8406600000000001  0.82442  1.0000
  C   C96       1.0  0.38132  0.07675000000000001  0.07407  1.0000
  C   C97       1.0  0.38172  0.12778000000000006  0.13409  1.0000
  C   C98       1.0  0.4312399999999999  0.14131000000000005  0.2154  1.0000
  C   C99       1.0  0.47978  0.10435000000000003  0.23481  1.0000
  C   C100      1.0  0.47714  0.0556  0.17188  1.0000
  C   C101      1.0  0.27083999999999997  0.9744900000000001  0.35494  1.0000
  C   C102      1.0  0.20654000000000003  0.9902200000000002  0.3515999999999999  1.0000
  C   C103      1.0  0.19068999999999992  0.99084  0.41443  1.0000
  C   C104      1.0  0.23937  0.97613  0.47833  1.0000
  C   C105      1.0  0.30219999999999986  0.96116  0.47733  1.0000
  C   C106      1.0  0.38114  0.8045600000000003  0.30759  1.0000
  C   C107      1.0  0.38154999999999994  0.7538200000000003  0.24805  1.0000
  C   C108      1.0  0.43105999999999994  0.78981  0.21632  1.0000
  C   C109      1.0  0.4793500000000001  0.8754000000000002  0.2452  1.0000
  C   C110      1.0  0.47649  0.9216  0.30521  1.0000
  C   C111      1.0  0.22922000000000003  0.08434000000000001  0.20373  1.0000
  C   C112      1.0  0.29375999999999997  0.14534  0.28396  1.0000
  C   C113      1.0  0.30985  0.22418  0.30075  1.0000
  C   C114      1.0  0.26108  0.23940999999999998  0.23734999999999995  1.0000
  C   C115      1.0  0.19804  0.17555  0.15931  1.0000
  C   C116      1.0  0.11867000000000005  0.9259100000000001  0.92324  1.0000
  C   C117      1.0  0.11826999999999996  0.8659  0.8722  1.0000
  C   C118      1.0  0.06875000000000014  0.7846000000000002  0.85866  1.0000
  C   C119      1.0  0.020230000000000057  0.7651900000000003  0.89565  1.0000
  C   C120      1.0  0.022850000000000054  0.8281  0.94439  1.0000
  C   C121      1.0  0.7708699999999999  0.3550000000000001  0.97452  1.0000
  C   C122      1.0  0.70655  0.35162000000000004  0.9902099999999999  1.0000
  C   C123      1.0  0.69069  0.41444  0.99085  1.0000
  C   C124      1.0  0.73935  0.47833  0.97611  1.0000
  C   C125      1.0  0.8022100000000001  0.47735000000000005  0.96117  1.0000
  C   C126      1.0  0.8811300000000001  0.30764  0.80459  1.0000
  C   C127      1.0  0.8814999999999998  0.24808  0.75384  1.0000
  C   C128      1.0  0.93101  0.21635000000000001  0.78983  1.0000
  C   C129      1.0  0.97933  0.24525000000000002  0.87542  1.0000
  C   C130      1.0  0.9765  0.30527  0.92164  1.0000
  C   C131      1.0  0.72924  0.20376000000000005  0.08435  1.0000
  C   C132      1.0  0.7937599999999999  0.28398  0.14535  1.0000
  C   C133      1.0  0.80988  0.30077000000000004  0.22421  1.0000
  C   C134      1.0  0.76112  0.23739000000000002  0.23943999999999993  1.0000
  C   C135      1.0  0.69808  0.15934000000000006  0.17558  1.0000
  C   C136      1.0  0.61869  0.9232500000000001  0.92593  1.0000
  C   C137      1.0  0.61829  0.8722200000000001  0.86592  1.0000
  C   C138      1.0  0.5687699999999999  0.8586900000000003  0.78461  1.0000
  C   C139      1.0  0.52024  0.89566  0.7652  1.0000
  C   C140      1.0  0.52287  0.9444000000000001  0.82812  1.0000
  C   C141      1.0  0.72918  0.02551000000000001  0.64506  1.0000
  C   C142      1.0  0.79347  0.009790000000000017  0.6484  1.0000
  C   C143      1.0  0.8093199999999997  0.009159999999999996  0.58558  1.0000
  C   C144      1.0  0.7606499999999998  0.02388  0.52167  1.0000
  C   C145      1.0  0.6978099999999997  0.03884  0.52267  1.0000
  C   C146      1.0  0.6188699999999999  0.1954500000000001  0.69242  1.0000
  C   C147      1.0  0.6184599999999998  0.24618000000000004  0.75196  1.0000
  C   C148      1.0  0.56895  0.21019  0.78369  1.0000
  C   C149      1.0  0.52066  0.12461000000000001  0.7548  1.0000
  C   C150      1.0  0.52352  0.07840000000000001  0.69479  1.0000
  C   C151      1.0  0.77079  0.91566  0.79627  1.0000
  C   C152      1.0  0.70626  0.85466  0.71604  1.0000
  C   C153      1.0  0.6901600000000001  0.7758200000000001  0.69926  1.0000
  C   C154      1.0  0.73893  0.7606000000000003  0.76265  1.0000
  C   C155      1.0  0.80197  0.82445  0.84069  1.0000
  C   C156      1.0  0.8813399999999999  0.07409  0.07676999999999998  1.0000
  C   C157      1.0  0.8817399999999999  0.13410000000000005  0.1278  1.0000
  C   C158      1.0  0.93126  0.21541  0.14134  1.0000
  C   C159      1.0  0.9797799999999999  0.23482  0.10436  1.0000
  C   C160      1.0  0.97716  0.1719  0.05561  1.0000
  Se  Se1       1.0  0.80592  0.52788  0.33567  1.0000
  Se  Se2       1.0  0.09295000000000012  0.7367200000000003  0.55001  1.0000
  Se  Se3       1.0  0.6946799999999999  0.52997  0.222  1.0000
  Se  Se4       1.0  0.40723  0.45695  0.14337  1.0000
  Se  Se5       1.0  0.8055499999999997  0.77815  0.4700399999999999  1.0000
  Se  Se6       1.0  0.09294000000000001  0.8566900000000001  0.54306  1.0000
  Se  Se7       1.0  0.6943399999999997  0.66452  0.47222  1.0000
  Se  Se8       1.0  0.4072200000000001  0.45004000000000005  0.26338  1.0000
  Se  Se9       1.0  0.19408999999999998  0.47212000000000004  0.66433  1.0000
  Se  Se10      1.0  0.9070599999999999  0.26329  0.44999  1.0000
  Se  Se11      1.0  0.3053399999999999  0.47003000000000006  0.778  1.0000
  Se  Se12      1.0  0.5927799999999999  0.5430499999999999  0.8566299999999998  1.0000
  Se  Se13      1.0  0.19445999999999994  0.22185000000000005  0.52996  1.0000
  Se  Se14      1.0  0.90707  0.14331999999999998  0.45693999999999996  1.0000
  Se  Se15      1.0  0.30566999999999983  0.33549  0.52779  1.0000
  Se  Se16      1.0  0.59279  0.54997  0.73663  1.0000
  Se  Se17      1.0  0.19192  0.72151  0.02639  1.0000
  Se  Se18      1.0  0.18604  0.64337  0.23613  1.0000
  Se  Se19      1.0  0.30845000000000006  0.8348100000000003  0.0297  1.0000
  Se  Se20      1.0  0.31383999999999995  0.04983999999999999  0.95772  1.0000
  Se  Se21      1.0  0.30806999999999995  0.9735800000000001  0.27844  1.0000
  Se  Se22      1.0  0.31402  0.76388  0.35663  1.0000
  Se  Se23      1.0  0.19154000000000002  0.9703100000000001  0.16515  1.0000
  Se  Se24      1.0  0.18615999999999994  0.04224999999999999  0.95012  1.0000
  Se  Se25      1.0  0.8080899999999998  0.27849  0.97361  1.0000
  Se  Se26      1.0  0.8139699999999997  0.35663  0.76387  1.0000
  Se  Se27      1.0  0.69156  0.16518999999999998  0.9703  1.0000
  Se  Se28      1.0  0.6861699999999998  0.95016  0.04228  1.0000
  Se  Se29      1.0  0.6919399999999998  0.026419999999999888  0.7215699999999998  1.0000
  Se  Se30      1.0  0.686  0.23612000000000002  0.64337  1.0000
  Se  Se31      1.0  0.8084700000000001  0.029699999999999987  0.83485  1.0000
  Se  Se32      1.0  0.8138499999999999  0.9577600000000001  0.04988  1.0000
  Br  Br1       1.0  0.8653899999999998  0.40425  0.43936  1.0000
  Br  Br2       1.0  0.6344499999999998  0.57403  0.03875  1.0000
  Br  Br3       1.0  0.86544  0.9612100000000001  0.42597  1.0000
  Br  Br4       1.0  0.63453  0.56049  0.59577  1.0000
  Br  Br5       1.0  0.13461999999999985  0.5957499999999999  0.5606399999999998  1.0000
  Br  Br6       1.0  0.36556  0.4259700000000001  0.96125  1.0000
  Br  Br7       1.0  0.13457999999999998  0.038800000000000015  0.57404  1.0000
  Br  Br8       1.0  0.3654799999999999  0.4395199999999999  0.40422999999999987  1.0000
  Br  Br9       1.0  0.9642199999999995  0.5384399999999998  0.9039399999999997  1.0000
  Br  Br10      1.0  0.5356899999999999  0.94017  0.07418  1.0000
  Br  Br11      1.0  0.53565  0.09590000000000004  0.46153  1.0000
  Br  Br12      1.0  0.9642099999999999  0.92575  0.05983  1.0000
  Br  Br13      1.0  0.03579  0.46156  0.09605999999999999  1.0000
  Br  Br14      1.0  0.4643199999999999  0.05983  0.92582  1.0000
  Br  Br15      1.0  0.46435999999999994  0.9041000000000001  0.5384699999999999  1.0000
  Br  Br16      1.0  0.035799999999999964  0.07424999999999998  0.94017  1.0000
  N   N1        1.0  0.9572900000000002  0.5397600000000001  0.35844  1.0000
  N   N2        1.0  0.9494299999999999  0.61326  0.54105  1.0000
  N   N3        1.0  0.5429400000000001  0.4010200000000001  0.08244  1.0000
  N   N4        1.0  0.55122  0.59186  0.16416  1.0000
  N   N5        1.0  0.95728  0.9177200000000001  0.59907  1.0000
  N   N6        1.0  0.94895  0.83595  0.40822  1.0000
  N   N7        1.0  0.5429799999999999  0.6416700000000001  0.46035  1.0000
  N   N8        1.0  0.55082  0.45904  0.38684  1.0000
  N   N9        1.0  0.04271999999999995  0.46024  0.64156  1.0000
  N   N10       1.0  0.05059000000000001  0.38675  0.45896  1.0000
  N   N11       1.0  0.4570699999999999  0.59899  0.91757  1.0000
  N   N12       1.0  0.44878999999999997  0.4081500000000001  0.83585  1.0000
  N   N13       1.0  0.04273999999999999  0.08229  0.40093  1.0000
  N   N14       1.0  0.05106000000000002  0.16406000000000004  0.59179  1.0000
  N   N15       1.0  0.4570299999999999  0.35834000000000005  0.53965  1.0000
  N   N16       1.0  0.44919999999999993  0.54096  0.61316  1.0000
  N   N17       1.0  0.18167000000000005  0.5832500000000003  0.03944  1.0000
  N   N18       1.0  0.07195999999999998  0.66377  0.11284  1.0000
  N   N19       1.0  0.31814999999999993  0.85764  0.9012599999999998  1.0000
  N   N20       1.0  0.4284299999999999  0.04138000000000001  0.09235  1.0000
  N   N21       1.0  0.31828  0.96051  0.41669  1.0000
  N   N22       1.0  0.42802  0.88711  0.33616  1.0000
  N   N23       1.0  0.18180999999999994  0.09871  0.14233  1.0000
  N   N24       1.0  0.07153999999999994  0.90763  0.9586  1.0000
  N   N25       1.0  0.8183399999999997  0.41676  0.96057  1.0000
  N   N26       1.0  0.9280499999999996  0.33624  0.88716  1.0000
  N   N27       1.0  0.68186  0.14236  0.09875  1.0000
  N   N28       1.0  0.57158  0.95862  0.90766  1.0000
  N   N29       1.0  0.68174  0.039500000000000014  0.58331  1.0000
  N   N30       1.0  0.57199  0.11289000000000002  0.66384  1.0000
  N   N31       1.0  0.8181999999999999  0.90129  0.85767  1.0000
  N   N32       1.0  0.9284699999999999  0.09237  0.041409999999999995  1.0000
