data_image0
_chemical_formula_structural       Zn8Ni8H80C176O64
_chemical_formula_sum              "Zn8 Ni8 H80 C176 O64"
_cell_length_a       24.70738
_cell_length_b       24.81814
_cell_length_c       24.694829999999996
_cell_angle_alpha    63.188309999999994
_cell_angle_beta     84.61504
_cell_angle_gamma    116.87214999999999

_symmetry_space_group_name_H-M    'P 1'
_symmetry_Int_Tables_number       1

loop_
  _symmetry_equiv_pos_as_xyz
  'x,y,z'

loop_
  _atom_site_type_symbol
  _atom_site_label
  _atom_site_symmetry_multiplicity
  _atom_site_fract_x
  _atom_site_fract_y
  _atom_site_fract_z
  _atom_site_occupancy
  Zn  Zn1       1.0  0.7014699999999999  0.46819  0.30673  1.0000
  Zn  Zn2       1.0  0.76715  0.99203  0.7016400000000002  1.0000
  Zn  Zn3       1.0  0.22508  0.53163  0.76693  1.0000
  Zn  Zn4       1.0  0.96423  0.97727  0.55238  1.0000
  Zn  Zn5       1.0  0.01315999999999996  0.48373  0.9640000000000001  1.0000
  Zn  Zn6       1.0  0.46985  0.022809999999999997  0.01292  1.0000
  Zn  Zn7       1.0  0.5522099999999999  0.5169499999999998  0.47002000000000005  1.0000
  Zn  Zn8       1.0  0.30654  0.008019999999999998  0.22498  1.0000
  Ni  Ni1       1.0  0.81406  0.92139  0.5797  1.0000
  Ni  Ni2       1.0  0.4989  0.07892  0.10716  1.0000
  Ni  Ni3       1.0  0.24429  0.09171  0.1983  1.0000
  Ni  Ni4       1.0  0.19878999999999997  0.4440699999999999  0.70857  1.0000
  Ni  Ni5       1.0  0.5804100000000001  0.39529  0.49843  1.0000
  Ni  Ni6       1.0  0.84802  0.55626  0.24521  1.0000
  Ni  Ni7       1.0  0.71003  0.9080900000000001  0.84789  1.0000
  Ni  Ni8       1.0  0.10661999999999998  0.60568  0.8138500000000001  1.0000
  H   H1        1.0  0.29262000000000005  0.08698000000000003  0.51399  1.0000
  H   H2        1.0  0.7538  0.76804  0.90978  1.0000
  H   H3        1.0  0.32319  0.43658000000000013  0.87974  1.0000
  H   H4        1.0  0.92927  0.13878  0.35437  1.0000
  H   H5        1.0  0.83149  0.2822700000000001  0.17117  1.0000
  H   H6        1.0  0.39922  0.91287  0.79421  1.0000
  H   H7        1.0  0.44988  0.99603  0.83141  1.0000
  H   H8        1.0  0.78655  0.24783999999999995  0.8145600000000001  1.0000
  H   H9        1.0  0.7842699999999998  0.8287299999999999  0.47111000000000003  1.0000
  H   H10       1.0  0.8767599999999999  0.5435899999999999  0.95066  1.0000
  H   H11       1.0  0.8929599999999999  0.68692  0.05956  1.0000
  H   H12       1.0  0.47153  0.25708  0.69894  1.0000
  H   H13       1.0  0.50877  0.28907  0.35875  1.0000
  H   H14       1.0  0.3329600000000001  0.8172700000000002  0.03093  1.0000
  H   H15       1.0  0.44406  0.15462  0.3955600000000001  1.0000
  H   H16       1.0  0.9101  0.6634400000000001  0.32271  1.0000
  H   H17       1.0  0.2534199999999999  0.31334999999999996  0.7942900000000002  1.0000
  H   H18       1.0  0.73728  0.6400200000000001  0.46708  1.0000
  H   H19       1.0  0.68413  0.56338  0.11347  1.0000
  H   H20       1.0  0.11434  0.79877  0.32234  1.0000
  H   H21       1.0  0.4229399999999999  0.1968999999999999  0.8190600000000001  1.0000
  H   H22       1.0  0.04386999999999995  0.7434  0.78454  1.0000
  H   H23       1.0  0.68815  0.25821999999999995  0.4026  1.0000
  H   H24       1.0  0.81453  0.6016399999999998  0.93752  1.0000
  H   H25       1.0  0.40967  0.76711  0.91415  1.0000
  H   H26       1.0  0.89149  0.41881999999999997  0.27833  1.0000
  H   H27       1.0  0.3576399999999999  0.6769399999999999  0.40877  1.0000
  H   H28       1.0  0.6660899999999998  0.17204999999999995  0.87674  1.0000
  H   H29       1.0  0.3519999999999999  0.7109799999999998  0.7802600000000001  1.0000
  H   H30       1.0  0.31868  0.23267000000000002  0.35742  1.0000
  H   H31       1.0  0.56997  0.9092799999999999  0.6883  1.0000
  H   H32       1.0  0.51434  0.80582  0.3996  1.0000
  H   H33       1.0  0.03121999999999999  0.36424  0.15227  1.0000
  H   H34       1.0  0.995  0.27514  0.27199  1.0000
  H   H35       1.0  0.84165  0.15054000000000003  0.90834  1.0000
  H   H36       1.0  0.15169000000000002  0.18262  0.48431  1.0000
  H   H37       1.0  0.17206  0.003760000000000027  0.5467  1.0000
  H   H38       1.0  0.91409  0.32317  0.3192  1.0000
  H   H39       1.0  0.98416  0.80345  0.77342  1.0000
  H   H40       1.0  0.8929099999999999  0.3604899999999999  0.9021  1.0000
  H   H41       1.0  0.8198199999999997  0.24257999999999988  0.9845100000000001  1.0000
  H   H42       1.0  0.30865  0.2512199999999999  0.8408  1.0000
  H   H43       1.0  0.32247  0.23223  0.0144  1.0000
  H   H44       1.0  0.92812  0.3038199999999999  0.69948  1.0000
  H   H45       1.0  0.4610199999999999  0.39863999999999994  0.7870100000000001  1.0000
  H   H46       1.0  0.058359999999999954  0.9512299999999999  0.25369  1.0000
  H   H47       1.0  0.78029  0.13220000000000004  0.50862  1.0000
  H   H48       1.0  0.35885  0.86724  0.3522  1.0000
  H   H49       1.0  0.94104  0.8493199999999999  0.30906  1.0000
  H   H50       1.0  0.79518  0.048839999999999974  0.89309  1.0000
  H   H51       1.0  0.9024600000000002  0.7954000000000001  0.73719  1.0000
  H   H52       1.0  0.50686  0.86193  0.20884  1.0000
  H   H53       1.0  0.39530999999999994  0.83863  0.45045  1.0000
  H   H54       1.0  0.20919  0.71606  0.9291  1.0000
  H   H55       1.0  0.46751  0.20489  0.89284  1.0000
  H   H56       1.0  0.45018  0.84543  0.7104700000000002  1.0000
  H   H57       1.0  0.99639  0.69608  0.37601000000000007  1.0000
  H   H58       1.0  0.79447  0.19446999999999998  0.2912600000000001  1.0000
  H   H59       1.0  0.77284  0.75742  0.42263  1.0000
  H   H60       1.0  0.5281999999999999  0.8309499999999999  0.89169  1.0000
  H   H61       1.0  0.48352000000000006  0.6362500000000001  0.33237  1.0000
  H   H62       1.0  0.95109  0.82812  0.50588  1.0000
  H   H63       1.0  0.7108200000000001  0.16137  0.44338000000000005  1.0000
  H   H64       1.0  0.45288999999999996  0.72532  0.27951  1.0000
  H   H65       1.0  0.9082599999999998  0.7493  0.94202  1.0000
  H   H66       1.0  0.2774  0.16866  0.3029  1.0000
  H   H67       1.0  0.54658  0.71798  0.45026  1.0000
  H   H68       1.0  0.93767  0.75251  0.4613300000000001  1.0000
  H   H69       1.0  0.6998099999999999  0.1711  0.04439  1.0000
  H   H70       1.0  0.37665  0.37190999999999996  0.9288100000000001  1.0000
  H   H71       1.0  0.35484  0.28409  0.50642  1.0000
  H   H72       1.0  0.87902  0.20132999999999995  0.6843  1.0000
  H   H73       1.0  0.014079999999999987  0.33665999999999996  0.75329  1.0000
  H   H74       1.0  0.33946  0.74152  0.57016  1.0000
  H   H75       1.0  0.40246000000000004  0.09052000000000003  0.3398  1.0000
  H   H76       1.0  0.69968  0.62835  0.9951900000000001  1.0000
  H   H77       1.0  0.27189  0.26637  0.45317  1.0000
  H   H78       1.0  0.50556  0.45675  0.66653  1.0000
  H   H79       1.0  0.28037999999999996  0.73362  0.99454  1.0000
  H   H80       1.0  0.30312  0.58132  0.52714  1.0000
  C   C1        1.0  0.86674  0.28020999999999996  0.19396  1.0000
  C   C2        1.0  0.8951200000000001  0.13712  0.38729  1.0000
  C   C3        1.0  0.8152399999999999  0.7341199999999998  0.8907500000000002  1.0000
  C   C4        1.0  0.35570999999999997  0.22798999999999994  0.98702  1.0000
  C   C5        1.0  0.017180000000000112  0.4572700000000002  0.8570299999999998  1.0000
  C   C6        1.0  0.43517  0.2111099999999999  0.9189500000000002  1.0000
  C   C7        1.0  0.42154999999999987  0.80229  0.8138200000000001  1.0000
  C   C8        1.0  0.7776  0.4038  0.31219  1.0000
  C   C9        1.0  0.46876  0.28746  0.71865  1.0000
  C   C10       1.0  0.022010000000000033  0.39591000000000004  0.79738  1.0000
  C   C11       1.0  0.8649599999999998  0.6331799999999999  0.9044800000000001  1.0000
  C   C12       1.0  0.9869000000000001  0.34287999999999996  0.7847  1.0000
  C   C13       1.0  0.89888  0.24787999999999996  0.7418  1.0000
  C   C14       1.0  0.9045199999999999  0.7698299999999999  0.46253  1.0000
  C   C15       1.0  0.41477999999999987  0.17247999999999997  0.98688  1.0000
  C   C16       1.0  0.28481999999999996  0.37890999999999997  0.8340700000000001  1.0000
  C   C17       1.0  0.3499299999999999  0.7624599999999998  0.8303400000000001  1.0000
  C   C18       1.0  0.31155000000000005  0.2914699999999999  0.8495500000000001  1.0000
  C   C19       1.0  0.8407000000000001  0.8276000000000002  0.75747  1.0000
  C   C20       1.0  0.73291  0.6046200000000002  0.07571  1.0000
  C   C21       1.0  0.70052  0.18852  0.89935  1.0000
  C   C22       1.0  0.7921  0.5638999999999998  0.34185  1.0000
  C   C23       1.0  0.16313  0.94316  0.25277  1.0000
  C   C24       1.0  0.83043  0.18059  0.40679  1.0000
  C   C25       1.0  0.99903  0.6030499999999999  0.87476  1.0000
  C   C26       1.0  0.84131  0.7005899999999998  0.4158800000000001  1.0000
  C   C27       1.0  0.07609000000000007  0.80918  0.31915  1.0000
  C   C28       1.0  0.31133  0.08893  0.28446  1.0000
  C   C29       1.0  0.19476999999999997  0.06144999999999998  0.52585  1.0000
  C   C30       1.0  0.8716699999999998  0.19084  0.73304  1.0000
  C   C31       1.0  0.37355  0.18008  0.022010000000000002  1.0000
  C   C32       1.0  0.41441000000000006  0.9138100000000001  0.2529  1.0000
  C   C33       1.0  0.22979  0.62204  0.80515  1.0000
  C   C34       1.0  0.98697  0.40209000000000006  0.8401799999999999  1.0000
  C   C35       1.0  0.8111699999999998  0.77156  0.44197000000000003  1.0000
  C   C36       1.0  0.74177  0.64091  0.0097  1.0000
  C   C37       1.0  0.85002  0.16166  0.85937  1.0000
  C   C38       1.0  0.91202  0.81167  0.48790000000000006  1.0000
  C   C39       1.0  0.51637  0.67144  0.39480999999999994  1.0000
  C   C40       1.0  0.53268  0.6165300000000001  0.42804  1.0000
  C   C41       1.0  0.40783  0.15794999999999998  0.37485  1.0000
  C   C42       1.0  0.34154  0.13352  0.09428  1.0000
  C   C43       1.0  0.7503099999999999  0.21789  0.40756000000000003  1.0000
  C   C44       1.0  0.48085  0.77124  0.3363900000000001  1.0000
  C   C45       1.0  0.41259  0.81948  0.34989  1.0000
  C   C46       1.0  0.49962  0.33298999999999995  0.41405000000000003  1.0000
  C   C47       1.0  0.42777000000000004  0.9607900000000001  0.95537  1.0000
  C   C48       1.0  0.84634  0.23121999999999998  0.2609  1.0000
  C   C49       1.0  0.26178000000000007  0.10794000000000001  0.50786  1.0000
  C   C50       1.0  0.37471  0.78214  0.46742  1.0000
  C   C51       1.0  0.31362  0.16558  0.32348  1.0000
  C   C52       1.0  0.97898  0.8383499999999999  0.31161000000000005  1.0000
  C   C53       1.0  0.52593  0.72025  0.41286  1.0000
  C   C54       1.0  0.010230000000000003  0.75209  0.34907  1.0000
  C   C55       1.0  0.9191  0.35438  0.8697  1.0000
  C   C56       1.0  0.29055  0.18242999999999995  0.48097  1.0000
  C   C57       1.0  0.09369999999999998  0.8813499999999999  0.28443  1.0000
  C   C58       1.0  0.3947800000000001  0.91143  0.9333800000000001  1.0000
  C   C59       1.0  0.21242  0.66678  0.87831  1.0000
  C   C60       1.0  0.33653000000000005  0.81743  0.8919000000000001  1.0000
  C   C61       1.0  0.45500999999999997  0.33353  0.4538400000000001  1.0000
  C   C62       1.0  0.36246  0.23367  0.45689  1.0000
  C   C63       1.0  0.80666  0.60449  0.37361  1.0000
  C   C64       1.0  0.44227  0.25424  0.78582  1.0000
  C   C65       1.0  0.78751  0.62124  0.094  1.0000
  C   C66       1.0  0.24167000000000008  0.7171700000000001  0.8950499999999999  1.0000
  C   C67       1.0  0.96361  0.6396200000000001  0.86799  1.0000
  C   C68       1.0  0.85936  0.70891  0.9796700000000002  1.0000
  C   C69       1.0  0.7576699999999997  0.5986099999999999  0.41452000000000006  1.0000
  C   C70       1.0  0.85083  0.674  0.04529  1.0000
  C   C71       1.0  0.35405  0.69133  0.44387  1.0000
  C   C72       1.0  0.47553  0.8632800000000002  0.24156  1.0000
  C   C73       1.0  0.7192100000000001  0.1878199999999999  0.9942300000000001  1.0000
  C   C74       1.0  0.8178  0.81218  0.46843  1.0000
  C   C75       1.0  0.4159000000000001  0.25736000000000003  0.88355  1.0000
  C   C76       1.0  0.5564699999999999  0.87474  0.7884800000000001  1.0000
  C   C77       1.0  0.50799  0.7692  0.38435  1.0000
  C   C78       1.0  0.31975999999999993  0.39546  0.8720700000000001  1.0000
  C   C79       1.0  0.80501  0.6930899999999999  0.96093  1.0000
  C   C80       1.0  0.87808  0.09073999999999997  0.45449000000000006  1.0000
  C   C81       1.0  0.77584  0.6460599999999999  0.43492000000000003  1.0000
  C   C82       1.0  0.25275000000000003  0.6671700000000002  0.83328  1.0000
  C   C83       1.0  0.46244999999999997  0.3671699999999999  0.76804  1.0000
  C   C84       1.0  0.33695  0.20146  0.35393  1.0000
  C   C85       1.0  0.88366  0.29951  0.8591400000000001  1.0000
  C   C86       1.0  0.76778  0.23035999999999993  0.86507  1.0000
  C   C87       1.0  0.34956999999999994  0.35926999999999987  0.8993000000000001  1.0000
  C   C88       1.0  0.47391999999999995  0.7242699999999997  0.3165  1.0000
  C   C89       1.0  0.34623  0.83753  0.97926  1.0000
  C   C90       1.0  0.8880899999999999  0.2341199999999999  0.8049900000000001  1.0000
  C   C91       1.0  0.99385  0.71295  0.81792  1.0000
  C   C92       1.0  0.45680000000000004  0.8190400000000001  0.3092  1.0000
  C   C93       1.0  0.3845100000000001  0.12170000000000002  0.3441  1.0000
  C   C94       1.0  0.96001  0.74615  0.81151  1.0000
  C   C95       1.0  0.34619999999999995  0.30721999999999994  0.8880800000000001  1.0000
  C   C96       1.0  0.3368999999999999  0.12507000000000001  0.31847  1.0000
  C   C97       1.0  0.53433  0.87812  0.73741  1.0000
  C   C98       1.0  0.8139300000000002  0.23551999999999995  0.38375000000000004  1.0000
  C   C99       1.0  0.8947000000000002  0.70657  0.8538699999999999  1.0000
  C   C100      1.0  0.18316999999999994  0.16248999999999997  0.49108  1.0000
  C   C101      1.0  0.44450999999999996  0.79837  0.8646800000000001  1.0000
  C   C102      1.0  0.28475000000000006  0.5962000000000001  0.62615  1.0000
  C   C103      1.0  0.08363000000000002  0.03927  0.53278  1.0000
  C   C104      1.0  0.38418999999999986  0.8919099999999999  0.8460500000000001  1.0000
  C   C105      1.0  0.37517  0.26599  0.91888  1.0000
  C   C106      1.0  0.49209  0.36082000000000003  0.67559  1.0000
  C   C107      1.0  0.89924  0.60025  0.91176  1.0000
  C   C108      1.0  0.38387000000000004  0.19757999999999998  0.38083  1.0000
  C   C109      1.0  0.1401199999999999  0.6115699999999998  0.9161200000000002  1.0000
  C   C110      1.0  0.49082000000000003  0.67442  0.34588  1.0000
  C   C111      1.0  0.044469999999999975  0.8953299999999998  0.28071  1.0000
  C   C112      1.0  0.67573  0.1678099999999999  0.9638700000000001  1.0000
  C   C113      1.0  0.31849  0.65554  0.55607  1.0000
  C   C114      1.0  0.81114  0.13218  0.4741600000000001  1.0000
  C   C115      1.0  0.47456  0.28569  0.39326  1.0000
  C   C116      1.0  0.28072  0.32624999999999993  0.82344  1.0000
  C   C117      1.0  0.81184  0.25138999999999995  0.8948800000000001  1.0000
  C   C118      1.0  0.43966999999999995  0.29377  0.8116600000000002  1.0000
  C   C119      1.0  0.51082  0.83412  0.8522900000000001  1.0000
  C   C120      1.0  0.25321999999999995  0.4168199999999999  0.8037000000000001  1.0000
  C   C121      1.0  0.8747900000000001  0.87437  0.52179  1.0000
  C   C122      1.0  0.62661  0.91086  0.77801  1.0000
  C   C123      1.0  0.09435999999999997  0.4363699999999999  0.77151  1.0000
  C   C124      1.0  0.87239  0.6573  0.35597  1.0000
  C   C125      1.0  0.39221  0.9648  0.23006  1.0000
  C   C126      1.0  0.85916  0.74281  0.8413200000000001  1.0000
  C   C127      1.0  0.8050999999999999  0.03520000000000002  0.57251  1.0000
  C   C128      1.0  0.87163  0.18124000000000004  0.36198  1.0000
  C   C129      1.0  0.9160699999999999  0.05632999999999997  0.47179  1.0000
  C   C130      1.0  0.83409  0.11867000000000003  0.78769  1.0000
  C   C131      1.0  0.46733  0.84197  0.75019  1.0000
  C   C132      1.0  0.7978499999999998  0.8198099999999998  0.8064300000000001  1.0000
  C   C133      1.0  0.68561  0.5435599999999999  0.43955000000000005  1.0000
  C   C134      1.0  0.25005  0.20877  0.47411000000000003  1.0000
  C   C135      1.0  0.34392  0.7282  0.53432  1.0000
  C   C136      1.0  0.8922  0.22908000000000003  0.29009  1.0000
  C   C137      1.0  0.4878199999999999  0.40010999999999997  0.70071  1.0000
  C   C138      1.0  0.38783000000000006  0.28298  0.47514  1.0000
  C   C139      1.0  0.95563  0.38408  0.08329  1.0000
  C   C140      1.0  0.8040100000000001  0.05682000000000001  0.78023  1.0000
  C   C141      1.0  0.93364  0.32902  0.15461  1.0000
  C   C142      1.0  0.15502999999999997  0.08857  0.5165  1.0000
  C   C143      1.0  0.77999  0.58316  0.16354  1.0000
  C   C144      1.0  0.8536900000000001  0.7487099999999999  0.43951  1.0000
  C   C145      1.0  0.7851  0.77204  0.87223  1.0000
  C   C146      1.0  0.91883  0.29404  0.8151200000000001  1.0000
  C   C147      1.0  0.3093  0.76614  0.8713600000000001  1.0000
  C   C148      1.0  0.4127  0.93844  0.86648  1.0000
  C   C149      1.0  0.52202  0.39748  0.60351  1.0000
  C   C150      1.0  0.60363  0.12569  0.99915  1.0000
  C   C151      1.0  0.77216  0.8663199999999999  0.7920400000000001  1.0000
  C   C152      1.0  0.3934  0.86764  0.32101  1.0000
  C   C153      1.0  0.96088  0.76592  0.34603  1.0000
  C   C154      1.0  0.86464  0.30879  0.3372800000000001  1.0000
  C   C155      1.0  0.47239  0.38889000000000007  0.47073  1.0000
  C   C156      1.0  0.85771  0.8749499999999998  0.6854  1.0000
  C   C157      1.0  0.32356999999999997  0.6376499999999999  0.5101  1.0000
  C   C158      1.0  0.45446  0.90936  0.21242  1.0000
  C   C159      1.0  0.3169599999999999  0.7912199999999999  0.9587300000000001  1.0000
  C   C160      1.0  0.78635  0.22844000000000003  0.9603  1.0000
  C   C161      1.0  0.47156  0.94414  0.13996  1.0000
  C   C162      1.0  0.40718000000000004  0.23735999999999993  0.4126000000000001  1.0000
  C   C163      1.0  0.78829  0.34449  0.33748  1.0000
  C   C164      1.0  0.8681199999999999  0.8322399999999999  0.49192  1.0000
  C   C165      1.0  0.3208899999999999  0.7143399999999999  0.8111200000000001  1.0000
  C   C166      1.0  0.85215  0.36245  0.31426  1.0000
  C   C167      1.0  0.8331  0.08608000000000003  0.49918  1.0000
  C   C168      1.0  0.95904  0.2761699999999999  0.24999  1.0000
  C   C169      1.0  0.38081  0.76455  0.42138000000000003  1.0000
  C   C170      1.0  0.57289  0.3781499999999999  0.39188000000000006  1.0000
  C   C171      1.0  0.8699299999999999  0.7889799999999998  0.77576  1.0000
  C   C172      1.0  0.43957  0.12531  0.01726  1.0000
  C   C173      1.0  0.97954  0.32607  0.1832  1.0000
  C   C174      1.0  0.82393  0.10469000000000003  0.85092  1.0000
  C   C175      1.0  0.73736  0.27175999999999995  0.38464000000000004  1.0000
  C   C176      1.0  0.89079  0.70605  0.37524  1.0000
  O   O1        1.0  0.42996  0.38977  0.49996  1.0000
  O   O2        1.0  0.72457  0.8439100000000002  0.84118  1.0000
  O   O3        1.0  0.26342  0.09184  0.26866  1.0000
  O   O4        1.0  0.50096  0.93145  0.10935000000000002  1.0000
  O   O5        1.0  0.95936  0.06945000000000003  0.42939  1.0000
  O   O6        1.0  0.4717700000000001  0.13851  0.05229  1.0000
  O   O7        1.0  0.1733  0.006989999999999996  0.21529  1.0000
  O   O8        1.0  0.11156  0.56235  0.90149  1.0000
  O   O9        1.0  0.91808  0.9198299999999999  0.65088  1.0000
  O   O10       1.0  0.05205999999999994  0.5239299999999999  0.8088400000000001  1.0000
  O   O11       1.0  0.6507200000000001  0.5689999999999998  0.42928000000000005  1.0000
  O   O12       1.0  0.72494  0.52837  0.20812000000000003  1.0000
  O   O13       1.0  0.8338299999999998  0.60991  0.17413  1.0000
  O   O14       1.0  0.80628  0.06304999999999995  0.60558  1.0000
  O   O15       1.0  0.79825  0.92535  0.73659  1.0000
  O   O16       1.0  0.11971999999999994  0.43617999999999985  0.7229800000000001  1.0000
  O   O17       1.0  0.9273000000000001  0.90201  0.53131  1.0000
  O   O18       1.0  0.5577  0.61499  0.47051  1.0000
  O   O19       1.0  0.0019099999999999157  0.43186999999999987  0.9174100000000001  1.0000
  O   O20       1.0  0.33551  0.05849999999999998  0.27171  1.0000
  O   O21       1.0  0.60558  0.4118000000000001  0.331  1.0000
  O   O22       1.0  0.8255800000000001  0.87818  0.53626  1.0000
  O   O23       1.0  0.2689200000000001  0.5329800000000001  0.63856  1.0000
  O   O24       1.0  0.80409  0.06688999999999998  0.72513  1.0000
  O   O25       1.0  0.8094600000000001  0.8621900000000002  0.66646  1.0000
  O   O26       1.0  0.26347999999999994  0.47157  0.8039500000000002  1.0000
  O   O27       1.0  0.1902199999999999  0.6231199999999999  0.77542  1.0000
  O   O28       1.0  0.58539  0.12205  0.05211  1.0000
  O   O29       1.0  0.97435  0.5414899999999998  0.92718  1.0000
  O   O30       1.0  0.6015599999999999  0.37751  0.43249000000000004  1.0000
  O   O31       1.0  0.05027000000000002  0.06845000000000002  0.51971  1.0000
  O   O32       1.0  0.4329  0.03362  0.19099  1.0000
  O   O33       1.0  0.05723000000000002  0.97222  0.55776  1.0000
  O   O34       1.0  0.7230400000000001  0.3927  0.33630000000000004  1.0000
  O   O35       1.0  0.6699399999999999  0.9419599999999999  0.7232  1.0000
  O   O36       1.0  0.45075  0.98718  0.1115  1.0000
  O   O37       1.0  0.73654  0.53483  0.33788  1.0000
  O   O38       1.0  0.42893999999999993  0.08026  0.00197  1.0000
  O   O39       1.0  0.84086  0.56407  0.31643  1.0000
  O   O40       1.0  0.25680999999999987  0.5881799999999998  0.8064000000000001  1.0000
  O   O41       1.0  0.2720099999999999  0.6072799999999999  0.66971  1.0000
  O   O42       1.0  0.12730000000000005  0.46517  0.79823  1.0000
  O   O43       1.0  0.53622  0.43836  0.45002000000000003  1.0000
  O   O44       1.0  0.66698  0.4769  0.47152000000000005  1.0000
  O   O45       1.0  0.82835  0.46702  0.26456  1.0000
  O   O46       1.0  0.77565  0.96643  0.6008  1.0000
  O   O47       1.0  0.33125999999999994  0.93691  0.25664  1.0000
  O   O48       1.0  0.20811  0.9331  0.26293  1.0000
  O   O49       1.0  0.0518299999999999  0.6372999999999998  0.8256  1.0000
  O   O50       1.0  0.31534  0.15617  0.11958  1.0000
  O   O51       1.0  0.47047999999999995  0.027649999999999956  0.9145400000000001  1.0000
  O   O52       1.0  0.018239999999999975  0.43011  0.05036  1.0000
  O   O53       1.0  0.33781  0.07443  0.12718  1.0000
  O   O54       1.0  0.5365  0.3629699999999999  0.58506  1.0000
  O   O55       1.0  0.10978999999999993  0.6105399999999999  0.95945  1.0000
  O   O56       1.0  0.4109  0.93184  0.01801  1.0000
  O   O57       1.0  0.6393299999999998  0.9072099999999998  0.82912  1.0000
  O   O58       1.0  0.53161  0.45922  0.56649  1.0000
  O   O59       1.0  0.5196  0.57047  0.41151  1.0000
  O   O60       1.0  0.21585  0.39011  0.7766  1.0000
  O   O61       1.0  0.91486  0.38583  0.056530000000000004  1.0000
  O   O62       1.0  0.90168  0.013180000000000004  0.53566  1.0000
  O   O63       1.0  0.7774500000000001  0.9930500000000002  0.83409  1.0000
  O   O64       1.0  0.56645  0.09798000000000001  0.97431  1.0000
