data_image0
_chemical_formula_structural       Cd12H96C168O48
_chemical_formula_sum              "Cd12 H96 C168 O48"
_cell_length_a       8.88377
_cell_length_b       24.76122
_cell_length_c       46.6068
_cell_angle_alpha    90.01573
_cell_angle_beta     89.9716
_cell_angle_gamma    89.90604

_space_group_name_H-M_alt    "P 1"
_space_group_IT_number       1

loop_
  _space_group_symop_operation_xyz
  'x, y, z'

loop_
  _atom_site_type_symbol
  _atom_site_label
  _atom_site_symmetry_multiplicity
  _atom_site_fract_x
  _atom_site_fract_y
  _atom_site_fract_z
  _atom_site_occupancy
  Cd  Cd1       1.0  0.9130000000000001  0.53732  0.8490799999999997  1.0000
  Cd  Cd2       1.0  0.41369  0.96293  0.65099  1.0000
  Cd  Cd3       1.0  0.58712  0.4628  0.84886  1.0000
  Cd  Cd4       1.0  0.08773000000000002  0.03676  0.6514099999999999  1.0000
  Cd  Cd5       1.0  0.08703  0.46267999999999987  0.15091  1.0000
  Cd  Cd6       1.0  0.58634  0.03706  0.34901  1.0000
  Cd  Cd7       1.0  0.41291  0.53719  0.15114  1.0000
  Cd  Cd8       1.0  0.9123000000000001  0.96323  0.34858999999999996  1.0000
  Cd  Cd9       1.0  0.25008  0.50008  0.8176699999999999  1.0000
  Cd  Cd10      1.0  0.75049  0.00013  0.68279  1.0000
  Cd  Cd11      1.0  0.74995  0.4999199999999999  0.18232  1.0000
  Cd  Cd12      1.0  0.24952999999999997  0.9998599999999999  0.31721  1.0000
  H   H1        1.0  0.9969500000000001  0.45107  0.75256  1.0000
  H   H2        1.0  0.97165  0.37591  0.7175299999999999  1.0000
  H   H3        1.0  0.76958  0.2777  0.78333  1.0000
  H   H4        1.0  0.7861700000000001  0.35427  0.8174599999999997  1.0000
  H   H5        1.0  0.05861000000000001  0.29485  0.70377  1.0000
  H   H6        1.0  0.062369999999999995  0.20941999999999994  0.67568  1.0000
  H   H7        1.0  0.66595  0.15571  0.7195599999999999  1.0000
  H   H8        1.0  0.6563  0.24142999999999995  0.74685  1.0000
  H   H9        1.0  0.45685  0.5447  0.91315  1.0000
  H   H10       1.0  0.45814  0.54452  0.9664199999999998  1.0000
  H   H11       1.0  0.16182  0.41899999999999993  0.00566  1.0000
  H   H12       1.0  0.15954  0.4194699999999999  0.0592  1.0000
  H   H13       1.0  0.49769  0.04911999999999998  0.74809  1.0000
  H   H14       1.0  0.4722  0.12485  0.7828099999999998  1.0000
  H   H15       1.0  0.27082000000000006  0.2225  0.71665  1.0000
  H   H16       1.0  0.28747  0.14533  0.6828  1.0000
  H   H17       1.0  0.55791  0.20564  0.7962599999999997  1.0000
  H   H18       1.0  0.56038  0.2913  0.82422  1.0000
  H   H19       1.0  0.16295  0.34442999999999996  0.7803599999999998  1.0000
  H   H20       1.0  0.155  0.25855  0.75315  1.0000
  H   H21       1.0  0.9582  0.95548  0.5872499999999999  1.0000
  H   H22       1.0  0.95968  0.9553  0.53399  1.0000
  H   H23       1.0  0.66211  0.08100999999999998  0.4947399999999999  1.0000
  H   H24       1.0  0.65691  0.08068  0.44130999999999987  1.0000
  H   H25       1.0  0.5028  0.54905  0.7525199999999999  1.0000
  H   H26       1.0  0.52804  0.62435  0.71757  1.0000
  H   H27       1.0  0.73004  0.72236  0.7834499999999999  1.0000
  H   H28       1.0  0.71354  0.6456  0.8174999999999999  1.0000
  H   H29       1.0  0.44239  0.7054999999999999  0.7038399999999998  1.0000
  H   H30       1.0  0.43957  0.7910499999999999  0.6758799999999999  1.0000
  H   H31       1.0  0.83701  0.844  0.71968  1.0000
  H   H32       1.0  0.84477  0.7582499999999998  0.747  1.0000
  H   H33       1.0  0.04233  0.45558  0.9131199999999998  1.0000
  H   H34       1.0  0.04073  0.4556899999999999  0.96638  1.0000
  H   H35       1.0  0.33724  0.58094  0.00594  1.0000
  H   H36       1.0  0.34243  0.57951  0.05941999999999999  1.0000
  H   H37       1.0  0.0031300000000000004  0.951  0.74769  1.0000
  H   H38       1.0  0.02747  0.87562  0.78267  1.0000
  H   H39       1.0  0.22956  0.77723  0.71675  1.0000
  H   H40       1.0  0.21469  0.8542399999999999  0.6827799999999999  1.0000
  H   H41       1.0  0.9415200000000001  0.7945  0.7963299999999999  1.0000
  H   H42       1.0  0.9390700000000001  0.70876  0.82422  1.0000
  H   H43       1.0  0.3366  0.6557  0.7803  1.0000
  H   H44       1.0  0.34436  0.7415399999999999  0.7531199999999998  1.0000
  H   H45       1.0  0.54322  0.04472  0.58719  1.0000
  H   H46       1.0  0.54168  0.04433  0.5339599999999999  1.0000
  H   H47       1.0  0.83826  0.91887  0.4939899999999999  1.0000
  H   H48       1.0  0.84045  0.9205299999999998  0.44051  1.0000
  H   H49       1.0  0.00308  0.54892  0.24744  1.0000
  H   H50       1.0  0.02838  0.62408  0.28246999999999994  1.0000
  H   H51       1.0  0.23044  0.7222899999999998  0.21665999999999994  1.0000
  H   H52       1.0  0.21386000000000002  0.64572  0.18253999999999995  1.0000
  H   H53       1.0  0.94141  0.7051399999999999  0.29623  1.0000
  H   H54       1.0  0.93766  0.79057  0.32431999999999994  1.0000
  H   H55       1.0  0.33408  0.84428  0.28044  1.0000
  H   H56       1.0  0.34372  0.7585599999999999  0.25314999999999993  1.0000
  H   H57       1.0  0.54317  0.45529  0.08684  1.0000
  H   H58       1.0  0.54189  0.4554699999999999  0.03357999999999999  1.0000
  H   H59       1.0  0.83821  0.58099  0.9943399999999999  1.0000
  H   H60       1.0  0.84049  0.58052  0.9407999999999997  1.0000
  H   H61       1.0  0.50233  0.95087  0.25191  1.0000
  H   H62       1.0  0.52783  0.87514  0.21719  1.0000
  H   H63       1.0  0.7292  0.7774899999999999  0.28335  1.0000
  H   H64       1.0  0.71256  0.8546599999999999  0.3171999999999999  1.0000
  H   H65       1.0  0.44212  0.79436  0.20374  1.0000
  H   H66       1.0  0.43964000000000003  0.70869  0.17578  1.0000
  H   H67       1.0  0.83708  0.6555599999999998  0.21963  1.0000
  H   H68       1.0  0.84503  0.74144  0.24685  1.0000
  H   H69       1.0  0.04182  0.04450999999999999  0.41274999999999995  1.0000
  H   H70       1.0  0.040350000000000004  0.04469  0.466  1.0000
  H   H71       1.0  0.33792  0.91898  0.50526  1.0000
  H   H72       1.0  0.34312  0.91931  0.55869  1.0000
  H   H73       1.0  0.49723000000000006  0.45094  0.24746999999999997  1.0000
  H   H74       1.0  0.4719900000000001  0.37563999999999986  0.28243  1.0000
  H   H75       1.0  0.26999  0.27763  0.21654999999999996  1.0000
  H   H76       1.0  0.28649  0.35439  0.18249999999999994  1.0000
  H   H77       1.0  0.55763  0.2944899999999999  0.2961599999999999  1.0000
  H   H78       1.0  0.56045  0.20894  0.32410999999999995  1.0000
  H   H79       1.0  0.16302  0.156  0.28031999999999996  1.0000
  H   H80       1.0  0.15525  0.24173999999999995  0.253  1.0000
  H   H81       1.0  0.9577  0.54441  0.08688  1.0000
  H   H82       1.0  0.9593  0.5443  0.03361999999999999  1.0000
  H   H83       1.0  0.66279  0.4190599999999999  0.99406  1.0000
  H   H84       1.0  0.6576  0.42048  0.94058  1.0000
  H   H85       1.0  0.9969000000000001  0.04899  0.2523099999999999  1.0000
  H   H86       1.0  0.97256  0.12437  0.21732999999999994  1.0000
  H   H87       1.0  0.77046  0.22275999999999999  0.28325  1.0000
  H   H88       1.0  0.78534  0.14575  0.31721999999999995  1.0000
  H   H89       1.0  0.05850000000000001  0.20549  0.20366999999999993  1.0000
  H   H90       1.0  0.060950000000000004  0.29123  0.17578  1.0000
  H   H91       1.0  0.66343  0.34429  0.21969999999999998  1.0000
  H   H92       1.0  0.6556700000000001  0.25845  0.24688  1.0000
  H   H93       1.0  0.45680000000000004  0.95527  0.4127999999999999  1.0000
  H   H94       1.0  0.45835  0.9556599999999997  0.4660299999999999  1.0000
  H   H95       1.0  0.16177  0.08111999999999998  0.50601  1.0000
  H   H96       1.0  0.15957  0.07946  0.55949  1.0000
  C   C1        1.0  0.9098400000000001  0.45204  0.80823  1.0000
  C   C2        1.0  0.89347  0.40739999999999993  0.78723  1.0000
  C   C3        1.0  0.9463000000000001  0.41298  0.75896  1.0000
  C   C4        1.0  0.93275  0.3705399999999999  0.7394899999999999  1.0000
  C   C5        1.0  0.86845  0.32093  0.7478199999999998  1.0000
  C   C6        1.0  0.8163  0.31594999999999995  0.7762599999999997  1.0000
  C   C7        1.0  0.82706  0.35852  0.79559  1.0000
  C   C8        1.0  0.86084  0.2738  0.72834  1.0000
  C   C9        1.0  0.97097  0.26485  0.70709  1.0000
  C   C10       1.0  0.9745700000000002  0.2168  0.69145  1.0000
  C   C11       1.0  0.86777  0.17631  0.69663  1.0000
  C   C12       1.0  0.75146  0.18644  0.71631  1.0000
  C   C13       1.0  0.74772  0.23445  0.73178  1.0000
  C   C14       1.0  0.88085  0.12152999999999999  0.68311  1.0000
  C   C15       1.0  0.36635  0.5255  0.9250499999999999  1.0000
  C   C16       1.0  0.36546  0.5258199999999998  0.9548999999999999  1.0000
  C   C17       1.0  0.19937000000000002  0.4545199999999999  0.017359999999999997  1.0000
  C   C18       1.0  0.19903  0.4543399999999999  0.04722  1.0000
  C   C19       1.0  0.4106  0.04784  0.6923099999999999  1.0000
  C   C20       1.0  0.39399  0.09252999999999997  0.7132599999999998  1.0000
  C   C21       1.0  0.44683  0.08714999999999999  0.74155  1.0000
  C   C22       1.0  0.43308  0.12985  0.7608499999999998  1.0000
  C   C23       1.0  0.36841000000000007  0.17935999999999996  0.7523399999999999  1.0000
  C   C24       1.0  0.31684000000000007  0.1842  0.72387  1.0000
  C   C25       1.0  0.32775000000000004  0.14136  0.70471  1.0000
  C   C26       1.0  0.35991  0.22657  0.7716999999999998  1.0000
  C   C27       1.0  0.46992999999999996  0.23558999999999997  0.79291  1.0000
  C   C28       1.0  0.47283000000000003  0.28366  0.80847  1.0000
  C   C29       1.0  0.36536  0.32402  0.80329  1.0000
  C   C30       1.0  0.24912  0.31386  0.7836399999999998  1.0000
  C   C31       1.0  0.24616  0.26578  0.76822  1.0000
  C   C32       1.0  0.37879  0.3786399999999999  0.8169  1.0000
  C   C33       1.0  0.86749  0.9746  0.57534  1.0000
  C   C34       1.0  0.8668  0.97415  0.5454699999999999  1.0000
  C   C35       1.0  0.6991800000000001  0.04543  0.4829699999999999  1.0000
  C   C36       1.0  0.69752  0.0457  0.45309  1.0000
  C   C37       1.0  0.59016  0.548  0.8081799999999999  1.0000
  C   C38       1.0  0.60639  0.59264  0.7872  1.0000
  C   C39       1.0  0.55359  0.58711  0.7589299999999998  1.0000
  C   C40       1.0  0.56728  0.6296  0.73951  1.0000
  C   C41       1.0  0.63191  0.6791499999999999  0.7478799999999999  1.0000
  C   C42       1.0  0.68372  0.6840799999999998  0.7763299999999997  1.0000
  C   C43       1.0  0.67285  0.64146  0.79562  1.0000
  C   C44       1.0  0.64014  0.72631  0.7284599999999999  1.0000
  C   C45       1.0  0.53024  0.7353999999999998  0.7072199999999997  1.0000
  C   C46       1.0  0.52723  0.78346  0.6916399999999999  1.0000
  C   C47       1.0  0.63456  0.82379  0.69679  1.0000
  C   C48       1.0  0.75082  0.8135099999999998  0.71642  1.0000
  C   C49       1.0  0.75369  0.76548  0.73191  1.0000
  C   C50       1.0  0.62071  0.8784499999999997  0.6831599999999999  1.0000
  C   C51       1.0  0.13275000000000003  0.47478  0.92504  1.0000
  C   C52       1.0  0.13338  0.4744899999999999  0.95488  1.0000
  C   C53       1.0  0.30053  0.54517  0.01753  1.0000
  C   C54       1.0  0.30223  0.5448  0.04738999999999999  1.0000
  C   C55       1.0  0.09162  0.9520099999999999  0.69236  1.0000
  C   C56       1.0  0.10739000000000001  0.90718  0.71314  1.0000
  C   C57       1.0  0.05378  0.9128  0.7413499999999998  1.0000
  C   C58       1.0  0.06691999999999998  0.8703  0.76074  1.0000
  C   C59       1.0  0.13145  0.82069  0.7523299999999999  1.0000
  C   C60       1.0  0.1836  0.81561  0.72389  1.0000
  C   C61       1.0  0.17353  0.85829  0.70464  1.0000
  C   C62       1.0  0.13961  0.7735699999999999  0.77173  1.0000
  C   C63       1.0  0.02957  0.76457  0.7929599999999999  1.0000
  C   C64       1.0  0.02672  0.7164499999999999  0.80848  1.0000
  C   C65       1.0  0.13417  0.67608  0.80329  1.0000
  C   C66       1.0  0.2504  0.6862499999999999  0.7836199999999999  1.0000
  C   C67       1.0  0.25328  0.73434  0.76822  1.0000
  C   C68       1.0  0.12084  0.62144  0.8169099999999999  1.0000
  C   C69       1.0  0.63376  0.025379999999999996  0.57532  1.0000
  C   C70       1.0  0.6345  0.02554  0.54546  1.0000
  C   C71       1.0  0.80072  0.95476  0.48256  1.0000
  C   C72       1.0  0.80108  0.95527  0.45267  1.0000
  C   C73       1.0  0.09018000000000001  0.54795  0.19176999999999994  1.0000
  C   C74       1.0  0.10656  0.5926  0.21276999999999996  1.0000
  C   C75       1.0  0.05373  0.58701  0.24103999999999995  1.0000
  C   C76       1.0  0.06728  0.62945  0.26051  1.0000
  C   C77       1.0  0.13158  0.67906  0.25218  1.0000
  C   C78       1.0  0.18373  0.6840399999999999  0.22373999999999997  1.0000
  C   C79       1.0  0.17296000000000003  0.64147  0.20441  1.0000
  C   C80       1.0  0.13919  0.7261899999999999  0.27165999999999996  1.0000
  C   C81       1.0  0.02906  0.73514  0.29291  1.0000
  C   C82       1.0  0.025460000000000003  0.7831899999999998  0.3085399999999999  1.0000
  C   C83       1.0  0.13226  0.82368  0.30335999999999996  1.0000
  C   C84       1.0  0.24857  0.81355  0.28368999999999994  1.0000
  C   C85       1.0  0.25231  0.76554  0.26822  1.0000
  C   C86       1.0  0.11918000000000001  0.8784699999999998  0.31689  1.0000
  C   C87       1.0  0.6336800000000001  0.4744899999999999  0.07494  1.0000
  C   C88       1.0  0.63457  0.47417  0.0451  1.0000
  C   C89       1.0  0.80066  0.54547  0.98264  1.0000
  C   C90       1.0  0.801  0.54565  0.95278  1.0000
  C   C91       1.0  0.58943  0.95215  0.30768999999999996  1.0000
  C   C92       1.0  0.60604  0.90746  0.28673999999999994  1.0000
  C   C93       1.0  0.5532  0.91284  0.25845  1.0000
  C   C94       1.0  0.56694  0.87014  0.23914999999999995  1.0000
  C   C95       1.0  0.63161  0.82063  0.24765999999999996  1.0000
  C   C96       1.0  0.68319  0.81579  0.27613  1.0000
  C   C97       1.0  0.67227  0.8586299999999999  0.29528  1.0000
  C   C98       1.0  0.64012  0.77342  0.22829999999999998  1.0000
  C   C99       1.0  0.53009  0.7643999999999997  0.20708999999999997  1.0000
  C   C100      1.0  0.5272  0.71633  0.19152999999999998  1.0000
  C   C101      1.0  0.63466  0.67597  0.19670999999999994  1.0000
  C   C102      1.0  0.7509  0.68613  0.21635  1.0000
  C   C103      1.0  0.75387  0.73421  0.23178  1.0000
  C   C104      1.0  0.62124  0.62135  0.18309999999999998  1.0000
  C   C105      1.0  0.13254  0.02539  0.4246499999999999  1.0000
  C   C106      1.0  0.13323  0.02585  0.45452  1.0000
  C   C107      1.0  0.30085  0.95456  0.51703  1.0000
  C   C108      1.0  0.3025  0.9542899999999999  0.5469  1.0000
  C   C109      1.0  0.40986  0.45199  0.19182  1.0000
  C   C110      1.0  0.39364  0.40735  0.2128  1.0000
  C   C111      1.0  0.44644  0.4128799999999999  0.24107  1.0000
  C   C112      1.0  0.43275  0.37039  0.26049  1.0000
  C   C113      1.0  0.36812  0.32084  0.25212  1.0000
  C   C114      1.0  0.31631  0.31591  0.22366999999999998  1.0000
  C   C115      1.0  0.32718  0.35853  0.20437999999999995  1.0000
  C   C116      1.0  0.35988  0.27368  0.27153999999999995  1.0000
  C   C117      1.0  0.46979000000000004  0.26459  0.29278  1.0000
  C   C118      1.0  0.47280000000000005  0.21652999999999994  0.30835999999999997  1.0000
  C   C119      1.0  0.36546  0.1762  0.30321  1.0000
  C   C120      1.0  0.24921  0.18647999999999995  0.28357  1.0000
  C   C121      1.0  0.24633  0.23450999999999997  0.26808999999999994  1.0000
  C   C122      1.0  0.37932  0.12153999999999997  0.31683999999999996  1.0000
  C   C123      1.0  0.86727  0.52521  0.07496  1.0000
  C   C124      1.0  0.86665  0.5255  0.045119999999999987  1.0000
  C   C125      1.0  0.69949  0.45482  0.98247  1.0000
  C   C126      1.0  0.6978000000000001  0.45518999999999993  0.95261  1.0000
  C   C127      1.0  0.9083999999999999  0.04798  0.30764  1.0000
  C   C128      1.0  0.89263  0.09281  0.28685  1.0000
  C   C129      1.0  0.9462500000000001  0.08719  0.25865  1.0000
  C   C130      1.0  0.93311  0.12968999999999997  0.23926  1.0000
  C   C131      1.0  0.86858  0.1793  0.24767  1.0000
  C   C132      1.0  0.81643  0.18438  0.27611  1.0000
  C   C133      1.0  0.8265  0.1417  0.29536  1.0000
  C   C134      1.0  0.86042  0.22642  0.22827  1.0000
  C   C135      1.0  0.97045  0.23543  0.20704  1.0000
  C   C136      1.0  0.97331  0.28354  0.19151999999999994  1.0000
  C   C137      1.0  0.86586  0.32391  0.19670999999999994  1.0000
  C   C138      1.0  0.7496300000000001  0.31374  0.21637999999999996  1.0000
  C   C139      1.0  0.74675  0.26566  0.23178  1.0000
  C   C140      1.0  0.87919  0.37855  0.18309  1.0000
  C   C141      1.0  0.36627  0.97461  0.42468  1.0000
  C   C142      1.0  0.36553  0.9744499999999998  0.45453999999999994  1.0000
  C   C143      1.0  0.19931  0.04523  0.51743  1.0000
  C   C144      1.0  0.19894  0.04472  0.5473299999999999  1.0000
  C   C145      1.0  0.24992  0.50004  0.87817  1.0000
  C   C146      1.0  0.24966  0.50011  0.9099099999999999  1.0000
  C   C147      1.0  0.24938000000000002  0.50015  0.9702999999999998  1.0000
  C   C148      1.0  0.24964  0.4999899999999999  0.0019799999999999996  1.0000
  C   C149      1.0  0.25086  0.49941  0.06248999999999998  1.0000
  C   C150      1.0  0.25052  0.49908999999999987  0.09458999999999998  1.0000
  C   C151      1.0  0.75035  4.9999999999999955e-05  0.6223  1.0000
  C   C152      1.0  0.75056  1.9999999999999988e-05  0.59053  1.0000
  C   C153      1.0  0.75062  0.9997699999999999  0.53002  1.0000
  C   C154      1.0  0.75034  0.9999199999999999  0.49828  1.0000
  C   C155      1.0  0.74904  0.00067  0.43762999999999996  1.0000
  C   C156      1.0  0.74736  0.0010799999999999998  0.40547  1.0000
  C   C157      1.0  0.75011  0.4999499999999999  0.12183  1.0000
  C   C158      1.0  0.75037  0.49988  0.09008999999999999  1.0000
  C   C159      1.0  0.75065  0.49984  0.0297  1.0000
  C   C160      1.0  0.75039  0.50001  0.99802  1.0000
  C   C161      1.0  0.74917  0.50058  0.9375099999999998  1.0000
  C   C162      1.0  0.74951  0.50091  0.90541  1.0000
  C   C163      1.0  0.24967000000000003  0.99994  0.37769999999999987  1.0000
  C   C164      1.0  0.24946000000000002  0.9999799999999999  0.40946999999999995  1.0000
  C   C165      1.0  0.24940000000000004  0.00021999999999999993  0.4699799999999999  1.0000
  C   C166      1.0  0.24969  7.999999999999995e-05  0.5017099999999999  1.0000
  C   C167      1.0  0.25099  0.99932  0.5623699999999999  1.0000
  C   C168      1.0  0.25266  0.99891  0.5945299999999999  1.0000
  O   O1        1.0  0.99304  0.49275  0.8022099999999999  1.0000
  O   O2        1.0  0.84029  0.44957  0.83243  1.0000
  O   O3        1.0  0.9894  0.11406999999999999  0.66541  1.0000
  O   O4        1.0  0.78267  0.08708999999999999  0.69109  1.0000
  O   O5        1.0  0.12842  0.4894199999999999  0.86438  1.0000
  O   O6        1.0  0.18172  0.46006999999999987  0.10683  1.0000
  O   O7        1.0  0.49396  0.00718  0.6983799999999998  1.0000
  O   O8        1.0  0.34091  0.050349999999999985  0.6681099999999999  1.0000
  O   O9        1.0  0.48939  0.38602  0.8340699999999999  1.0000
  O   O10       1.0  0.27938  0.4130899999999999  0.8095  1.0000
  O   O11       1.0  0.62871  0.01069  0.63612  1.0000
  O   O12       1.0  0.67495  0.03973  0.3936  1.0000
  O   O13       1.0  0.50703  0.50724  0.80218  1.0000
  O   O14       1.0  0.6598  0.55045  0.83235  1.0000
  O   O15       1.0  0.50794  0.88603  0.66655  1.0000
  O   O16       1.0  0.72165  0.9126999999999997  0.68991  1.0000
  O   O17       1.0  0.37151  0.51059  0.8644  1.0000
  O   O18       1.0  0.31874  0.53799  0.10699  1.0000
  O   O19       1.0  0.00765  0.99258  0.69842  1.0000
  O   O20       1.0  0.16186  0.94978  0.66821  1.0000
  O   O21       1.0  0.010299999999999998  0.61406  0.83412  1.0000
  O   O22       1.0  0.22025000000000003  0.5869999999999999  0.80948  1.0000
  O   O23       1.0  0.87173  0.98943  0.63617  1.0000
  O   O24       1.0  0.8174900000000002  0.96288  0.39271  1.0000
  O   O25       1.0  0.006979999999999999  0.50724  0.19777999999999996  1.0000
  O   O26       1.0  0.15974  0.55042  0.16757  1.0000
  O   O27       1.0  0.01063  0.88592  0.33459  1.0000
  O   O28       1.0  0.21735  0.91291  0.30890999999999996  1.0000
  O   O29       1.0  0.87161  0.51057  0.13562  1.0000
  O   O30       1.0  0.81831  0.53992  0.8931699999999999  1.0000
  O   O31       1.0  0.50607  0.9928099999999999  0.30161  1.0000
  O   O32       1.0  0.65912  0.94964  0.33188999999999996  1.0000
  O   O33       1.0  0.51064  0.61397  0.16593  1.0000
  O   O34       1.0  0.72065  0.5869  0.1905  1.0000
  O   O35       1.0  0.37132  0.9892999999999998  0.36388  1.0000
  O   O36       1.0  0.32507  0.96026  0.6064  1.0000
  O   O37       1.0  0.493  0.49275  0.19781999999999997  1.0000
  O   O38       1.0  0.34023  0.4495399999999999  0.16764999999999997  1.0000
  O   O39       1.0  0.49209  0.11395999999999999  0.33345  1.0000
  O   O40       1.0  0.27837  0.08729  0.31009  1.0000
  O   O41       1.0  0.62851  0.48939999999999995  0.1356  1.0000
  O   O42       1.0  0.68129  0.4619999999999999  0.89301  1.0000
  O   O43       1.0  0.9923700000000001  0.007409999999999999  0.30158  1.0000
  O   O44       1.0  0.83817  0.05020999999999999  0.33177999999999996  1.0000
  O   O45       1.0  0.98972  0.3859299999999999  0.16588  1.0000
  O   O46       1.0  0.77978  0.41299  0.19052  1.0000
  O   O47       1.0  0.1283  0.01056  0.36383  1.0000
  O   O48       1.0  0.18253  0.03712  0.60729  1.0000
