data_image0
_chemical_formula_structural       Cu10H80Rh4C120N20Cl8O44
_chemical_formula_sum              "Cu10 H80 Rh4 C120 N20 Cl8 O44"
_cell_length_a       15.54049
_cell_length_b       16.46208
_cell_length_c       16.5109
_cell_angle_alpha    113.46121
_cell_angle_beta     90.42296
_cell_angle_gamma    90.18751

_space_group_name_H-M_alt    "P 1"
_space_group_IT_number       1

loop_
  _space_group_symop_operation_xyz
  'x, y, z'

loop_
  _atom_site_type_symbol
  _atom_site_label
  _atom_site_symmetry_multiplicity
  _atom_site_fract_x
  _atom_site_fract_y
  _atom_site_fract_z
  _atom_site_occupancy
  Cu  Cu1       1.0  0.05662  0.20228000000000004  0.7148800000000002  1.0000
  Cu  Cu2       1.0  0.42871  0.81656  0.3308700000000001  1.0000
  Cu  Cu3       1.0  0.44481  0.2855400000000001  0.7982900000000003  1.0000
  Cu  Cu4       1.0  0.07226  0.662  0.19538000000000005  1.0000
  Cu  Cu5       1.0  0.9378599999999998  0.7892400000000002  0.2871100000000001  1.0000
  Cu  Cu6       1.0  0.5755  0.19179000000000002  0.6668  1.0000
  Cu  Cu7       1.0  0.56112  0.7218699999999999  0.20024000000000006  1.0000
  Cu  Cu8       1.0  0.92526  0.33347000000000004  0.8063800000000002  1.0000
  Cu  Cu9       1.0  0.25048  0.77028  0.23042000000000004  1.0000
  Cu  Cu10      1.0  0.75103  0.22746  0.7705  1.0000
  H   H1        1.0  0.16548  0.15176  0.08445000000000003  1.0000
  H   H2        1.0  0.11218999999999996  0.15094999999999995  0.93904  1.0000
  H   H3        1.0  0.04938  0.42733  0.0785  1.0000
  H   H4        1.0  0.11431  0.41964999999999997  0.21439000000000005  1.0000
  H   H5        1.0  0.76074  0.89439  0.7060600000000002  1.0000
  H   H6        1.0  0.84941  0.023320000000000105  0.7093900000000002  1.0000
  H   H7        1.0  0.07218  0.8932800000000001  0.7573600000000003  1.0000
  H   H8        1.0  0.9761099999999998  0.76878  0.7509300000000002  1.0000
  H   H9        1.0  0.77771  0.41369  0.45639000000000013  1.0000
  H   H10       1.0  0.849  0.4158600000000001  0.5934500000000003  1.0000
  H   H11       1.0  0.88165  0.13333000000000006  0.4593700000000001  1.0000
  H   H12       1.0  0.80701  0.14133000000000007  0.32879000000000014  1.0000
  H   H13       1.0  0.33732  0.5314200000000001  0.7134200000000003  1.0000
  H   H14       1.0  0.26474  0.40319  0.73185  1.0000
  H   H15       1.0  0.02163  0.52872  0.72939  1.0000
  H   H16       1.0  0.10381  0.65061  0.70915  1.0000
  H   H17       1.0  0.02735  0.08302000000000007  0.5318900000000002  1.0000
  H   H18       1.0  0.10147  0.9536999999999998  0.4148000000000001  1.0000
  H   H19       1.0  0.33276  0.03224  0.57289  1.0000
  H   H20       1.0  0.24811  0.15371  0.68714  1.0000
  H   H21       1.0  0.33083  0.9184099999999998  0.85002  1.0000
  H   H22       1.0  0.38557  0.06374000000000013  0.8501000000000002  1.0000
  H   H23       1.0  0.45395999999999986  0.9209600000000001  0.5766800000000002  1.0000
  H   H24       1.0  0.38935  0.7844100000000002  0.5855500000000002  1.0000
  H   H25       1.0  0.74024  0.28906  0.10622000000000002  1.0000
  H   H26       1.0  0.65209  0.28798  0.97779  1.0000
  H   H27       1.0  0.4279  0.24474000000000004  0.10752000000000003  1.0000
  H   H28       1.0  0.52316  0.25359  0.23396000000000006  1.0000
  H   H29       1.0  0.7214299999999998  0.54453  0.5890900000000002  1.0000
  H   H30       1.0  0.65068  0.40663000000000005  0.5859800000000002  1.0000
  H   H31       1.0  0.62047  0.5391800000000001  0.8681900000000002  1.0000
  H   H32       1.0  0.69734  0.6691  0.8617100000000002  1.0000
  H   H33       1.0  0.16288  0.28442  0.46924000000000005  1.0000
  H   H34       1.0  0.23667  0.26504  0.59592  1.0000
  H   H35       1.0  0.4788  0.27105  0.4712300000000001  1.0000
  H   H36       1.0  0.3955  0.2943200000000001  0.35204000000000013  1.0000
  H   H37       1.0  0.4718999999999999  0.4694000000000001  0.9143900000000003  1.0000
  H   H38       1.0  0.39864  0.5880599999999998  0.04289000000000001  1.0000
  H   H39       1.0  0.16842999999999994  0.42808000000000007  0.9704600000000002  1.0000
  H   H40       1.0  0.25173  0.3130900000000001  0.8485000000000003  1.0000
  H   H41       1.0  0.8326299999999998  0.8496900000000001  0.9235300000000002  1.0000
  H   H42       1.0  0.88307  0.84583  0.06811000000000003  1.0000
  H   H43       1.0  0.95382  0.5727700000000001  0.9215500000000002  1.0000
  H   H44       1.0  0.89152  0.5848299999999997  0.78645  1.0000
  H   H45       1.0  0.23253999999999994  0.09543  0.29024  1.0000
  H   H46       1.0  0.14474  0.9653900000000001  0.2869500000000001  1.0000
  H   H47       1.0  0.92107  0.09296000000000001  0.23700000000000004  1.0000
  H   H48       1.0  0.01636  0.21912999999999996  0.24497000000000005  1.0000
  H   H49       1.0  0.22735  0.58715  0.5442000000000001  1.0000
  H   H50       1.0  0.15433999999999995  0.58282  0.4067800000000001  1.0000
  H   H51       1.0  0.11635  0.8646599999999999  0.53975  1.0000
  H   H52       1.0  0.19473  0.85957  0.66983  1.0000
  H   H53       1.0  0.65911  0.4547900000000001  0.2820900000000001  1.0000
  H   H54       1.0  0.73107  0.58415  0.26619  1.0000
  H   H55       1.0  0.97457  0.45898999999999995  0.2669400000000001  1.0000
  H   H56       1.0  0.8936599999999998  0.33588  0.2847500000000001  1.0000
  H   H57       1.0  0.9677699999999998  0.90786  0.4682  1.0000
  H   H58       1.0  0.89711  0.04022000000000008  0.5852200000000002  1.0000
  H   H59       1.0  0.66469  0.9686900000000002  0.4284500000000001  1.0000
  H   H60       1.0  0.74612  0.8441500000000001  0.3140700000000001  1.0000
  H   H61       1.0  0.6757799999999998  0.0917  0.1488  1.0000
  H   H62       1.0  0.61866  0.94771  0.14757000000000006  1.0000
  H   H63       1.0  0.55438  0.08881000000000006  0.4224100000000001  1.0000
  H   H64       1.0  0.62043  0.22406000000000006  0.4147900000000001  1.0000
  H   H65       1.0  0.2618  0.7100599999999999  0.8946400000000002  1.0000
  H   H66       1.0  0.35199  0.71425  0.02321000000000001  1.0000
  H   H67       1.0  0.57362  0.75671  0.8896100000000002  1.0000
  H   H68       1.0  0.47645  0.7477800000000001  0.7647700000000002  1.0000
  H   H69       1.0  0.29357999999999995  0.46215  0.4129000000000001  1.0000
  H   H70       1.0  0.36063  0.60178  0.4153900000000001  1.0000
  H   H71       1.0  0.38408  0.47148000000000007  0.13218000000000002  1.0000
  H   H72       1.0  0.30978  0.33986000000000005  0.13978000000000004  1.0000
  H   H73       1.0  0.83569  0.7084199999999999  0.52889  1.0000
  H   H74       1.0  0.76665  0.7307  0.40139  1.0000
  H   H75       1.0  0.5214  0.7382500000000001  0.5253900000000002  1.0000
  H   H76       1.0  0.59974  0.7100200000000001  0.6448000000000003  1.0000
  H   H77       1.0  0.53065  0.53804  0.08515  1.0000
  H   H78       1.0  0.60244  0.41532000000000013  0.9587500000000002  1.0000
  H   H79       1.0  0.83625  0.56939  0.029930000000000005  1.0000
  H   H80       1.0  0.75486  0.68835  0.14968000000000006  1.0000
  Rh  Rh1       1.0  0.20877  0.28394999999999987  0.27853  1.0000
  Rh  Rh2       1.0  0.28996  0.72347  0.71764  1.0000
  Rh  Rh3       1.0  0.78912  0.71808  0.72405  1.0000
  Rh  Rh4       1.0  0.71122  0.27706  0.28245  1.0000
  C   C1        1.0  0.13964  0.2109  0.07940000000000003  1.0000
  C   C2        1.0  0.10953  0.21046000000000004  0.99983  1.0000
  C   C3        1.0  0.07613  0.28889  0.99884  1.0000
  C   C4        1.0  0.07494  0.36528999999999995  0.07698  1.0000
  C   C5        1.0  0.10991999999999999  0.3611299999999999  0.15288000000000004  1.0000
  C   C6        1.0  0.04387  0.29047000000000006  0.9136300000000003  1.0000
  C   C7        1.0  0.83006  0.8961800000000002  0.7156700000000003  1.0000
  C   C8        1.0  0.87979  0.96749  0.71763  1.0000
  C   C9        1.0  0.96891  0.9665300000000001  0.7304400000000002  1.0000
  C   C10       1.0  0.0037400000000000016  0.89481  0.7440900000000003  1.0000
  C   C11       1.0  0.95083  0.8258  0.74147  1.0000
  C   C12       1.0  0.029300000000000003  0.0389000000000001  0.7293100000000002  1.0000
  C   C13       1.0  0.8013  0.35333  0.4603000000000001  1.0000
  C   C14       1.0  0.84082  0.35375  0.53617  1.0000
  C   C15       1.0  0.8684999999999998  0.27378  0.53843  1.0000
  C   C16       1.0  0.85888  0.19663  0.46172000000000013  1.0000
  C   C17       1.0  0.81746  0.20055000000000006  0.3884700000000001  1.0000
  C   C18       1.0  0.90666  0.27155  0.62191  1.0000
  C   C19       1.0  0.26762999999999987  0.52778  0.7175200000000003  1.0000
  C   C20       1.0  0.22701  0.45712000000000014  0.7279100000000002  1.0000
  C   C21       1.0  0.13729  0.45800999999999986  0.73416  1.0000
  C   C22       1.0  0.09141  0.52747  0.7262400000000002  1.0000
  C   C23       1.0  0.13652  0.59473  0.71466  1.0000
  C   C24       1.0  0.08786  0.38689  0.7490900000000003  1.0000
  C   C25       1.0  0.09445  0.06805999999999995  0.53839  1.0000
  C   C26       1.0  0.13581999999999997  0.99759  0.4738500000000001  1.0000
  C   C27       1.0  0.22281999999999993  0.98368  0.48637  1.0000
  C   C28       1.0  0.26487  0.041220000000000104  0.5629500000000002  1.0000
  C   C29       1.0  0.21822999999999995  0.10900999999999994  0.6256  1.0000
  C   C30       1.0  0.2699999999999999  0.9081500000000001  0.41721000000000014  1.0000
  C   C31       1.0  0.35861  0.9227099999999998  0.7915600000000002  1.0000
  C   C32       1.0  0.3892  0.0020599999999999685  0.7916  1.0000
  C   C33       1.0  0.42458  0.0016900000000000573  0.7138000000000002  1.0000
  C   C34       1.0  0.42721  0.9228699999999999  0.6381900000000003  1.0000
  C   C35       1.0  0.39222000000000007  0.84714  0.6428000000000003  1.0000
  C   C36       1.0  0.4576699999999999  0.0865000000000001  0.7120400000000002  1.0000
  C   C37       1.0  0.67069  0.28171  0.10474000000000003  1.0000
  C   C38       1.0  0.62131  0.2804  0.03351  1.0000
  C   C39       1.0  0.53204  0.26885  0.034220000000000014  1.0000
  C   C40       1.0  0.49657  0.25697  0.10637000000000003  1.0000
  C   C41       1.0  0.54901  0.26023  0.17597000000000004  1.0000
  C   C42       1.0  0.47224  0.2694600000000001  0.9611100000000002  1.0000
  C   C43       1.0  0.6988999999999997  0.5398  0.64915  1.0000
  C   C44       1.0  0.65921  0.46373  0.64812  1.0000
  C   C45       1.0  0.63157  0.46115000000000006  0.7275700000000003  1.0000
  C   C46       1.0  0.64276  0.5371399999999997  0.80514  1.0000
  C   C47       1.0  0.68523  0.6102900000000001  0.8019900000000002  1.0000
  C   C48       1.0  0.59227  0.37757  0.72863  1.0000
  C   C49       1.0  0.23267  0.28091000000000005  0.4725600000000001  1.0000
  C   C50       1.0  0.27399  0.2697200000000001  0.5424100000000002  1.0000
  C   C51       1.0  0.36379  0.26395  0.54151  1.0000
  C   C52       1.0  0.40897  0.27347  0.4728  1.0000
  C   C53       1.0  0.36314  0.28642  0.40663  1.0000
  C   C54       1.0  0.41364999999999996  0.24905000000000002  0.6125400000000001  1.0000
  C   C55       1.0  0.40515  0.4629600000000001  0.9301600000000002  1.0000
  C   C56       1.0  0.36428999999999995  0.52833  0.0002900000000000001  1.0000
  C   C57       1.0  0.27812  0.51537  0.016430000000000004  1.0000
  C   C58       1.0  0.23584  0.4382900000000001  0.9600700000000002  1.0000
  C   C59       1.0  0.28182  0.37509  0.8920600000000002  1.0000
  C   C60       1.0  0.23304999999999995  0.58358  0.09449  1.0000
  C   C61       1.0  0.85966  0.7901200000000002  0.9266600000000003  1.0000
  C   C62       1.0  0.88809  0.78816  0.0058800000000000015  1.0000
  C   C63       1.0  0.9230299999999998  0.70945  0.00465  1.0000
  C   C64       1.0  0.92737  0.63515  0.9248500000000002  1.0000
  C   C65       1.0  0.89393  0.6417199999999997  0.8494300000000002  1.0000
  C   C66       1.0  0.9538599999999998  0.70553  0.08923000000000003  1.0000
  C   C67       1.0  0.16308999999999996  0.09287999999999998  0.28056  1.0000
  C   C68       1.0  0.11426  0.021040000000000045  0.2785200000000001  1.0000
  C   C69       1.0  0.02517  0.02166000000000004  0.2653600000000001  1.0000
  C   C70       1.0  0.98948  0.09267000000000003  0.25101000000000007  1.0000
  C   C71       1.0  0.04221  0.16216  0.25443  1.0000
  C   C72       1.0  0.96546  0.94957  0.26749  1.0000
  C   C73       1.0  0.20217  0.64672  0.53985  1.0000
  C   C74       1.0  0.16136  0.64497  0.4642000000000001  1.0000
  C   C75       1.0  0.13077  0.7240199999999998  0.46216  1.0000
  C   C76       1.0  0.14046  0.8020100000000001  0.53792  1.0000
  C   C77       1.0  0.18391999999999994  0.7996799999999998  0.61084  1.0000
  C   C78       1.0  0.09001  0.72377  0.37900000000000006  1.0000
  C   C79       1.0  0.72867  0.45856  0.2780000000000001  1.0000
  C   C80       1.0  0.76931  0.5300299999999999  0.26915000000000006  1.0000
  C   C81       1.0  0.8591  0.5302899999999998  0.26304  1.0000
  C   C82       1.0  0.90477  0.46020000000000005  0.26984000000000014  1.0000
  C   C83       1.0  0.8604799999999998  0.39179  0.28016  1.0000
  C   C84       1.0  0.90846  0.6033599999999998  0.25063  1.0000
  C   C85       1.0  0.90132  0.92505  0.4619600000000001  1.0000
  C   C86       1.0  0.8619599999999997  0.99719  0.52634  1.0000
  C   C87       1.0  0.7756899999999998  0.014040000000000014  0.51418  1.0000
  C   C88       1.0  0.73223  0.9577000000000001  0.4379800000000001  1.0000
  C   C89       1.0  0.77699  0.8880800000000002  0.3753200000000001  1.0000
  C   C90       1.0  0.7311999999999997  0.09175000000000007  0.5833300000000002  1.0000
  C   C91       1.0  0.64819  0.08755000000000003  0.20726000000000006  1.0000
  C   C92       1.0  0.61614  0.008610000000000027  0.20699000000000006  1.0000
  C   C93       1.0  0.58128  0.007650000000000033  0.2844900000000001  1.0000
  C   C94       1.0  0.58054  0.08633999999999997  0.36045  1.0000
  C   C95       1.0  0.6167699999999998  0.16212  0.35693  1.0000
  C   C96       1.0  0.5471099999999998  0.9221899999999997  0.2850100000000001  1.0000
  C   C97       1.0  0.3312299999999999  0.71835  0.89557  1.0000
  C   C98       1.0  0.38167  0.72101  0.9666100000000001  1.0000
  C   C99       1.0  0.47076  0.73293  0.9644900000000002  1.0000
  C   C100      1.0  0.50514  0.74435  0.8918  1.0000
  C   C101      1.0  0.4517  0.74062  0.82288  1.0000
  C   C102      1.0  0.5317099999999998  0.7332199999999998  0.0368  1.0000
  C   C103      1.0  0.3133  0.46784000000000003  0.3522500000000001  1.0000
  C   C104      1.0  0.35096  0.54485  0.3533100000000001  1.0000
  C   C105      1.0  0.37559  0.54782  0.27313  1.0000
  C   C106      1.0  0.36358  0.47231  0.19531000000000007  1.0000
  C   C107      1.0  0.32281  0.39877  0.19938000000000006  1.0000
  C   C108      1.0  0.41325  0.6312600000000002  0.27112000000000014  1.0000
  C   C109      1.0  0.76629  0.71542  0.52512  1.0000
  C   C110      1.0  0.72762  0.72845  0.4549300000000001  1.0000
  C   C111      1.0  0.63832  0.73914  0.45562  1.0000
  C   C112      1.0  0.59097  0.7319900000000003  0.5242500000000002  1.0000
  C   C113      1.0  0.63419  0.71663  0.5906000000000002  1.0000
  C   C114      1.0  0.5912999999999998  0.75705  0.3846700000000001  1.0000
  C   C115      1.0  0.5978199999999998  0.54234  0.06943000000000003  1.0000
  C   C116      1.0  0.63779  0.47476  0.0004400000000000001  1.0000
  C   C117      1.0  0.72458  0.4849800000000001  0.9844700000000002  1.0000
  C   C118      1.0  0.7683099999999999  0.56146  0.04005  1.0000
  C   C119      1.0  0.72327  0.6269  0.10698000000000002  1.0000
  C   C120      1.0  0.7691599999999997  0.41501999999999994  0.90742  1.0000
  N   N1        1.0  0.14084  0.28522  0.15448  1.0000
  N   N2        1.0  0.86503  0.82571  0.72646  1.0000
  N   N3        1.0  0.7873  0.27757  0.38803  1.0000
  N   N4        1.0  0.22319  0.5955400000000001  0.7117100000000002  1.0000
  N   N5        1.0  0.13442  0.12224000000000006  0.6133600000000002  1.0000
  N   N6        1.0  0.35947  0.8469  0.71815  1.0000
  N   N7        1.0  0.6352  0.27297000000000005  0.17577000000000007  1.0000
  N   N8        1.0  0.71394  0.61137  0.72515  1.0000
  N   N9        1.0  0.2763799999999999  0.28847000000000006  0.4055400000000001  1.0000
  N   N10       1.0  0.3653  0.38706  0.87764  1.0000
  N   N11       1.0  0.86159  0.71786  0.84989  1.0000
  N   N12       1.0  0.12769  0.16301  0.27009  1.0000
  N   N13       1.0  0.21515  0.72319  0.6115100000000002  1.0000
  N   N14       1.0  0.77342  0.3897699999999999  0.28241  1.0000
  N   N15       1.0  0.86007  0.8718199999999998  0.3873800000000001  1.0000
  N   N16       1.0  0.64983  0.16322  0.28154000000000007  1.0000
  N   N17       1.0  0.36581  0.72707  0.8242300000000002  1.0000
  N   N18       1.0  0.29734  0.39671999999999996  0.27656000000000003  1.0000
  N   N19       1.0  0.72062  0.71028  0.5921200000000002  1.0000
  N   N20       1.0  0.63908  0.6177300000000001  0.12104000000000002  1.0000
  Cl  Cl1       1.0  0.31493  0.18066000000000002  0.19059000000000006  1.0000
  Cl  Cl2       1.0  0.10502  0.38879  0.3705  1.0000
  Cl  Cl3       1.0  0.18423  0.8105599999999998  0.8185100000000002  1.0000
  Cl  Cl4       1.0  0.39476  0.63078  0.61403  1.0000
  Cl  Cl5       1.0  0.6855799999999997  0.8185700000000002  0.8091800000000002  1.0000
  Cl  Cl6       1.0  0.89223  0.61539  0.6335500000000002  1.0000
  Cl  Cl7       1.0  0.81493  0.18803  0.18163  1.0000
  Cl  Cl8       1.0  0.6084699999999997  0.36881  0.38466  1.0000
  O   O1        1.0  0.98327  0.34407  0.9197800000000003  1.0000
  O   O2        1.0  0.0819  0.23824000000000012  0.8449200000000002  1.0000
  O   O3        1.0  0.99079  0.09887000000000003  0.7097400000000003  1.0000
  O   O4        1.0  0.10725999999999997  0.03458000000000012  0.7447200000000003  1.0000
  O   O5        1.0  0.87427  0.32824  0.6929  1.0000
  O   O6        1.0  0.96539  0.21665  0.61475  1.0000
  O   O7        1.0  0.12061  0.3096600000000001  0.7181900000000002  1.0000
  O   O8        1.0  0.01765  0.41206  0.78999  1.0000
  O   O9        1.0  0.34563  0.89301  0.43547  1.0000
  O   O10       1.0  0.22525  0.8683299999999999  0.3467500000000001  1.0000
  O   O11       1.0  0.36326  0.81197  0.23379000000000005  1.0000
  O   O12       1.0  0.5183499999999998  0.07936999999999998  0.65868  1.0000
  O   O13       1.0  0.4201499999999999  0.15588000000000002  0.7638600000000002  1.0000
  O   O14       1.0  0.5107  0.29075  0.90242  1.0000
  O   O15       1.0  0.3947  0.2520300000000001  0.9639900000000002  1.0000
  O   O16       1.0  0.6239099999999997  0.30629000000000006  0.6716000000000002  1.0000
  O   O17       1.0  0.53336  0.38511  0.78314  1.0000
  O   O18       1.0  0.38136  0.28107000000000004  0.6896700000000002  1.0000
  O   O19       1.0  0.48353  0.20721000000000006  0.5874800000000001  1.0000
  O   O20       1.0  0.16063999999999995  0.56316  0.11491000000000003  1.0000
  O   O21       1.0  0.27691  0.65537  0.13141000000000003  1.0000
  O   O22       1.0  0.13422  0.76125  0.19809000000000002  1.0000
  O   O23       1.0  0.01663  0.65435  0.08310000000000002  1.0000
  O   O24       1.0  0.91308  0.7535800000000001  0.15782000000000004  1.0000
  O   O25       1.0  0.00414  0.89188  0.2905600000000001  1.0000
  O   O26       1.0  0.88781  0.9521200000000001  0.25002000000000013  1.0000
  O   O27       1.0  0.12167999999999997  0.6662199999999998  0.30825  1.0000
  O   O28       1.0  0.0302  0.77757  0.38603  1.0000
  O   O29       1.0  0.8750199999999998  0.68025  0.28345  1.0000
  O   O30       1.0  0.9790399999999998  0.5801999999999998  0.21001000000000006  1.0000
  O   O31       1.0  0.65869  0.11336  0.56368  1.0000
  O   O32       1.0  0.77477  0.12693000000000002  0.65534  1.0000
  O   O33       1.0  0.63612  0.19396000000000005  0.76563  1.0000
  O   O34       1.0  0.48534  0.92893  0.3371200000000001  1.0000
  O   O35       1.0  0.58466  0.8527399999999998  0.23342000000000004  1.0000
  O   O36       1.0  0.49366  0.71449  0.09724000000000002  1.0000
  O   O37       1.0  0.60942  0.74882  0.03191  1.0000
  O   O38       1.0  0.3811  0.7023599999999998  0.3281500000000001  1.0000
  O   O39       1.0  0.47133  0.6237  0.21581  1.0000
  O   O40       1.0  0.62383  0.72453  0.30771000000000004  1.0000
  O   O41       1.0  0.52308  0.8019  0.4091900000000001  1.0000
  O   O42       1.0  0.84026  0.4360000000000001  0.8845900000000002  1.0000
  O   O43       1.0  0.72715  0.34180000000000005  0.8735400000000002  1.0000
  O   O44       1.0  0.86603  0.23420000000000002  0.8051200000000002  1.0000
