data_image0
_chemical_formula_structural       Tb8H56C120O48
_chemical_formula_sum              "Tb8 H56 C120 O48"
_cell_length_a       12.97001
_cell_length_b       14.34218
_cell_length_c       26.87511
_cell_angle_alpha    103.67472000000001
_cell_angle_beta     100.29991
_cell_angle_gamma    93.76532

_symmetry_space_group_name_H-M    'P 1'
_symmetry_Int_Tables_number       1

loop_
  _symmetry_equiv_pos_as_xyz
  'x,y,z'

loop_
  _atom_site_type_symbol
  _atom_site_label
  _atom_site_symmetry_multiplicity
  _atom_site_fract_x
  _atom_site_fract_y
  _atom_site_fract_z
  _atom_site_occupancy
  Tb  Tb1       1.0  0.8869  0.44096  0.4459600000000001  1.0000
  Tb  Tb2       1.0  0.49698  0.03998  0.57448  1.0000
  Tb  Tb3       1.0  0.015350000000000027  0.04900999999999999  0.93979  1.0000
  Tb  Tb4       1.0  0.52362  0.57153  0.08332  1.0000
  Tb  Tb5       1.0  0.10973000000000002  0.55824  0.55344  1.0000
  Tb  Tb6       1.0  0.49993  0.95664  0.42421  1.0000
  Tb  Tb7       1.0  0.98574  0.95213  0.05976  1.0000
  Tb  Tb8       1.0  0.4764  0.42863  0.91668  1.0000
  H   H1        1.0  0.72348  0.73049  0.4646000000000001  1.0000
  H   H2        1.0  0.7402700000000001  0.9652599999999999  0.60099  1.0000
  H   H3        1.0  0.91753  0.72315  0.61068  1.0000
  H   H4        1.0  0.01908000000000001  0.82809  0.6732400000000001  1.0000
  H   H5        1.0  0.08245  0.8970000000000001  0.76847  1.0000
  H   H6        1.0  0.8051  0.043200000000000086  0.7760800000000002  1.0000
  H   H7        1.0  0.7365  0.97021  0.68173  1.0000
  H   H8        1.0  0.7334  0.2857400000000001  0.55154  1.0000
  H   H9        1.0  0.04023999999999998  0.37955000000000005  0.64995  1.0000
  H   H10       1.0  0.81447  0.19580000000000006  0.69402  1.0000
  H   H11       1.0  0.96664  0.13934  0.72434  1.0000
  H   H12       1.0  0.10789  0.13267  0.79886  1.0000
  H   H13       1.0  0.23357  0.42256  0.80981  1.0000
  H   H14       1.0  0.09087000000000005  0.43296  0.73755  1.0000
  H   H15       1.0  0.7430400000000003  0.69748  0.9498  1.0000
  H   H16       1.0  0.53209  0.6236200000000002  0.7999  1.0000
  H   H17       1.0  0.7489800000000001  0.8845  0.84653  1.0000
  H   H18       1.0  0.6118300000000001  0.9373  0.80331  1.0000
  H   H19       1.0  0.5398700000000001  0.9829000000000001  0.7214600000000001  1.0000
  H   H20       1.0  0.48213  0.68421  0.6378  1.0000
  H   H21       1.0  0.55822  0.6369400000000002  0.71903  1.0000
  H   H22       1.0  0.73892  0.24561  0.96884  1.0000
  H   H23       1.0  0.8754  0.18312000000000006  0.11357000000000002  1.0000
  H   H24       1.0  0.66641  0.40507  0.11321000000000003  1.0000
  H   H25       1.0  0.63212  0.36011  0.18111  1.0000
  H   H26       1.0  0.65509  0.38529  0.27767  1.0000
  H   H27       1.0  0.9701000000000001  0.30659  0.28513  1.0000
  H   H28       1.0  0.94977  0.28356  0.18925  1.0000
  H   H29       1.0  0.27484  0.26936  0.53487  1.0000
  H   H30       1.0  0.25877  0.03521000000000002  0.39839  1.0000
  H   H31       1.0  0.07947000000000005  0.2760700000000001  0.3889100000000001  1.0000
  H   H32       1.0  0.9792000000000001  0.17143000000000005  0.3261000000000001  1.0000
  H   H33       1.0  0.9165500000000001  0.10255000000000002  0.23082  1.0000
  H   H34       1.0  0.1946200000000001  0.9571500000000001  0.22368000000000005  1.0000
  H   H35       1.0  0.2626800000000001  0.03044999999999999  0.31805  1.0000
  H   H36       1.0  0.2652  0.70861  0.44663  1.0000
  H   H37       1.0  0.9571599999999999  0.61865  0.34899  1.0000
  H   H38       1.0  0.18424000000000001  0.8011300000000001  0.30488  1.0000
  H   H39       1.0  0.032959999999999996  0.85944  0.27538  1.0000
  H   H40       1.0  0.89126  0.86876  0.20175  1.0000
  H   H41       1.0  0.76255  0.57906  0.18953  1.0000
  H   H42       1.0  0.90586  0.56617  0.26088  1.0000
  H   H43       1.0  0.25648  0.30631  0.05095000000000001  1.0000
  H   H44       1.0  0.46836000000000005  0.37706  0.20064  1.0000
  H   H45       1.0  0.25238  0.11548000000000003  0.15225  1.0000
  H   H46       1.0  0.38824  0.06321  0.19749  1.0000
  H   H47       1.0  0.45845  0.019429999999999996  0.28011  1.0000
  H   H48       1.0  0.51679  0.31917  0.36197  1.0000
  H   H49       1.0  0.44151  0.3643  0.28002  1.0000
  H   H50       1.0  0.26170000000000004  0.75448  0.031060000000000008  1.0000
  H   H51       1.0  0.12541999999999995  0.81725  0.88638  1.0000
  H   H52       1.0  0.3340499999999999  0.59504  0.88664  1.0000
  H   H53       1.0  0.36797000000000013  0.64028  0.81852  1.0000
  H   H54       1.0  0.3438300000000001  0.61442  0.72178  1.0000
  H   H55       1.0  0.02885999999999998  0.69268  0.71509  1.0000
  H   H56       1.0  0.05057000000000001  0.7168800000000002  0.81116  1.0000
  C   C1        1.0  0.8230199999999999  0.71765  0.53566  1.0000
  C   C2        1.0  0.7543099999999999  0.76396  0.50579  1.0000
  C   C3        1.0  0.72528  0.85344  0.52966  1.0000
  C   C4        1.0  0.7627399999999999  0.89516  0.5832  1.0000
  C   C5        1.0  0.83267  0.8496200000000002  0.61355  1.0000
  C   C6        1.0  0.86336  0.76077  0.58871  1.0000
  C   C7        1.0  0.87273  0.89359  0.67011  1.0000
  C   C8        1.0  0.9707500000000003  0.8739800000000002  0.6954800000000001  1.0000
  C   C9        1.0  0.007270000000000009  0.9130199999999999  0.7489  1.0000
  C   C10       1.0  0.94761  0.9742  0.77818  1.0000
  C   C11       1.0  0.8507900000000002  0.9956400000000001  0.7530900000000003  1.0000
  C   C12       1.0  0.81338  0.9551200000000001  0.69989  1.0000
  C   C13       1.0  0.85033  0.6214  0.50965  1.0000
  C   C14       1.0  0.65495  0.9017300000000004  0.4967900000000001  1.0000
  C   C15       1.0  0.9850000000000002  0.014650000000000002  0.83536  1.0000
  C   C16       1.0  0.7642400000000001  0.23688  0.62242  1.0000
  C   C17       1.0  0.7901500000000001  0.28767  0.58697  1.0000
  C   C18       1.0  0.89023  0.33913  0.59761  1.0000
  C   C19       1.0  0.96248  0.34017  0.64335  1.0000
  C   C20       1.0  0.9380399999999999  0.28862  0.67888  1.0000
  C   C21       1.0  0.83741  0.23667000000000005  0.66765  1.0000
  C   C22       1.0  0.01846000000000002  0.28643  0.72511  1.0000
  C   C23       1.0  0.02338999999999998  0.20245  0.74356  1.0000
  C   C24       1.0  0.10253999999999999  0.19784  0.785  1.0000
  C   C25       1.0  0.17972000000000007  0.2765200000000001  0.8089000000000002  1.0000
  C   C26       1.0  0.1744200000000001  0.36105000000000004  0.79126  1.0000
  C   C27       1.0  0.09444000000000001  0.3662400000000001  0.75014  1.0000
  C   C28       1.0  0.65998  0.17909000000000003  0.6100500000000001  1.0000
  C   C29       1.0  0.92339  0.39139  0.56032  1.0000
  C   C30       1.0  0.2654  0.26639  0.85207  1.0000
  C   C31       1.0  0.7537900000000001  0.7983200000000003  0.9019900000000002  1.0000
  C   C32       1.0  0.7135200000000003  0.7141000000000001  0.9127600000000001  1.0000
  C   C33       1.0  0.63384  0.65182  0.87524  1.0000
  C   C34       1.0  0.59472  0.67345  0.82766  1.0000
  C   C35       1.0  0.63407  0.75799  0.8164  1.0000
  C   C36       1.0  0.7148200000000002  0.81922  0.8541  1.0000
  C   C37       1.0  0.5906  0.78382  0.76726  1.0000
  C   C38       1.0  0.58521  0.88144  0.76709  1.0000
  C   C39       1.0  0.5440400000000001  0.9073800000000002  0.7214100000000001  1.0000
  C   C40       1.0  0.5066700000000001  0.8363000000000003  0.67458  1.0000
  C   C41       1.0  0.51122  0.73864  0.6743900000000003  1.0000
  C   C42       1.0  0.5528600000000002  0.71281  0.7201  1.0000
  C   C43       1.0  0.83829  0.86746  0.9408900000000002  1.0000
  C   C44       1.0  0.58733  0.56437  0.88693  1.0000
  C   C45       1.0  0.46484  0.86283  0.62468  1.0000
  C   C46       1.0  0.69271  0.32862  0.03801  1.0000
  C   C47       1.0  0.74796  0.25984  0.011000000000000003  1.0000
  C   C48       1.0  0.8154900000000002  0.20979000000000006  0.03891  1.0000
  C   C49       1.0  0.82639  0.22670000000000004  0.0931  1.0000
  C   C50       1.0  0.7743200000000002  0.29843  0.12081  1.0000
  C   C51       1.0  0.7077800000000002  0.34951999999999994  0.09259  1.0000
  C   C52       1.0  0.78854  0.31793  0.17821000000000004  1.0000
  C   C53       1.0  0.7064400000000001  0.34887000000000007  0.20377000000000003  1.0000
  C   C54       1.0  0.7184000000000003  0.36262000000000005  0.25756  1.0000
  C   C55       1.0  0.8126700000000002  0.3449  0.2867  1.0000
  C   C56       1.0  0.8962000000000002  0.3171  0.26187  1.0000
  C   C57       1.0  0.8843000000000001  0.30409  0.20817  1.0000
  C   C58       1.0  0.61801  0.3774  0.00762  1.0000
  C   C59       1.0  0.87831  0.14136  0.01009  1.0000
  C   C60       1.0  0.8256900000000004  0.35783  0.34374  1.0000
  C   C61       1.0  0.17441000000000006  0.28203  0.46397  1.0000
  C   C62       1.0  0.24396000000000007  0.23604  0.49367  1.0000
  C   C63       1.0  0.27375  0.1468  0.46976  1.0000
  C   C64       1.0  0.23609  0.10519000000000003  0.41625  1.0000
  C   C65       1.0  0.16574000000000003  0.15052  0.38598  1.0000
  C   C66       1.0  0.13428000000000004  0.23897  0.41088  1.0000
  C   C67       1.0  0.12594  0.10646  0.32942  1.0000
  C   C68       1.0  0.02787000000000002  0.12578000000000003  0.30395000000000005  1.0000
  C   C69       1.0  0.9917  0.08669  0.25052  1.0000
  C   C70       1.0  0.05163999999999999  0.02565  0.22137  1.0000
  C   C71       1.0  0.14854000000000006  0.004490000000000032  0.24656000000000006  1.0000
  C   C72       1.0  0.18566000000000005  0.04514  0.29976  1.0000
  C   C73       1.0  0.14603000000000005  0.37785000000000013  0.49016  1.0000
  C   C74       1.0  0.34372  0.09824999999999998  0.50274  1.0000
  C   C75       1.0  0.014800000000000013  0.98542  0.16419  1.0000
  C   C76       1.0  0.23463000000000006  0.7586900000000001  0.37607  1.0000
  C   C77       1.0  0.20847  0.7076  0.41134  1.0000
  C   C78       1.0  0.10779000000000007  0.6573000000000002  0.4009000000000001  1.0000
  C   C79       1.0  0.03531000000000001  0.65721  0.3554  1.0000
  C   C80       1.0  0.06014000000000005  0.70877  0.31992000000000004  1.0000
  C   C81       1.0  0.16119000000000003  0.75991  0.33109  1.0000
  C   C82       1.0  0.97961  0.7123500000000001  0.274  1.0000
  C   C83       1.0  0.9753600000000002  0.79697  0.25612  1.0000
  C   C84       1.0  0.8958600000000001  0.80309  0.21517  1.0000
  C   C85       1.0  0.81762  0.7253400000000002  0.19111000000000006  1.0000
  C   C86       1.0  0.82229  0.6401  0.20816  1.0000
  C   C87       1.0  0.9026500000000001  0.63341  0.24878  1.0000
  C   C88       1.0  0.3392800000000001  0.81587  0.38817  1.0000
  C   C89       1.0  0.07427000000000002  0.60598  0.43849  1.0000
  C   C90       1.0  0.73186  0.73689  0.14825  1.0000
  C   C91       1.0  0.24720000000000006  0.20329000000000003  0.09757  1.0000
  C   C92       1.0  0.28655  0.2886900000000001  0.08765000000000002  1.0000
  C   C93       1.0  0.36608  0.35071  0.12546  1.0000
  C   C94       1.0  0.40549  0.32785  0.17267  1.0000
  C   C95       1.0  0.36619  0.24272000000000002  0.18342000000000003  1.0000
  C   C96       1.0  0.28617  0.18147  0.14524  1.0000
  C   C97       1.0  0.40904  0.21697000000000002  0.23268  1.0000
  C   C98       1.0  0.41424  0.11963000000000004  0.23352000000000006  1.0000
  C   C99       1.0  0.45450000000000007  0.09475  0.27965  1.0000
  C   C100      1.0  0.4913800000000001  0.1666  0.32621000000000006  1.0000
  C   C101      1.0  0.4876000000000001  0.264  0.32568  1.0000
  C   C102      1.0  0.44655000000000006  0.28866  0.27957  1.0000
  C   C103      1.0  0.16349  0.13393  0.05809  1.0000
  C   C104      1.0  0.41244  0.43876000000000004  0.11427000000000002  1.0000
  C   C105      1.0  0.53273  0.14155000000000004  0.37656000000000006  1.0000
  C   C106      1.0  0.30796  0.6716  0.96187  1.0000
  C   C107      1.0  0.25267  0.74036  0.98889  1.0000
  C   C108      1.0  0.18512  0.7903400000000003  0.96097  1.0000
  C   C109      1.0  0.1743800000000001  0.77361  0.9068  1.0000
  C   C110      1.0  0.22637000000000018  0.70185  0.8790700000000002  1.0000
  C   C111      1.0  0.29277  0.65063  0.90727  1.0000
  C   C112      1.0  0.21170000000000003  0.68228  0.8217000000000001  1.0000
  C   C113      1.0  0.29347  0.6512700000000002  0.79594  1.0000
  C   C114      1.0  0.28078  0.637  0.74209  1.0000
  C   C115      1.0  0.18592  0.65408  0.71317  1.0000
  C   C116      1.0  0.10289000000000001  0.6823  0.7382700000000001  1.0000
  C   C117      1.0  0.11561  0.69603  0.792  1.0000
  C   C118      1.0  0.38226  0.62264  0.99235  1.0000
  C   C119      1.0  0.12277000000000003  0.8593700000000002  0.98975  1.0000
  C   C120      1.0  0.17156  0.6403600000000002  0.65603  1.0000
  O   O1        1.0  0.93808  0.5919700000000001  0.52756  1.0000
  O   O2        1.0  0.78677  0.56949  0.46962  1.0000
  O   O3        1.0  0.59407  0.96292  0.51738  1.0000
  O   O4        1.0  0.6508300000000001  0.8839600000000001  0.44779  1.0000
  O   O5        1.0  0.062430000000000034  0.9808499999999999  0.86035  1.0000
  O   O6        1.0  0.9378300000000003  0.08067000000000005  0.86052  1.0000
  O   O7        1.0  0.64076  0.11897000000000009  0.6374000000000001  1.0000
  O   O8        1.0  0.59006  0.18436  0.57084  1.0000
  O   O9        1.0  0.86421  0.37977  0.51525  1.0000
  O   O10       1.0  0.011530000000000009  0.445  0.57591  1.0000
  O   O11       1.0  0.2635500000000001  0.19717000000000012  0.8715600000000002  1.0000
  O   O12       1.0  0.34436000000000005  0.33838  0.86744  1.0000
  O   O13       1.0  0.8791500000000003  0.9351600000000001  0.9245000000000001  1.0000
  O   O14       1.0  0.8647600000000001  0.85664  0.98718  1.0000
  O   O15       1.0  0.49979  0.5178000000000003  0.8576  1.0000
  O   O16       1.0  0.6303800000000002  0.53639  0.92676  1.0000
  O   O17       1.0  0.4682000000000001  0.9577  0.62888  1.0000
  O   O18       1.0  0.43238000000000004  0.8013600000000001  0.58302  1.0000
  O   O19       1.0  0.58819  0.45822  0.03016  1.0000
  O   O20       1.0  0.58349  0.33842  0.95917  1.0000
  O   O21       1.0  0.91451  0.07385  0.02968  1.0000
  O   O22       1.0  0.89591  0.15340000000000004  0.96692  1.0000
  O   O23       1.0  0.7602400000000002  0.4026400000000001  0.3687700000000001  1.0000
  O   O24       1.0  0.9063000000000002  0.32891  0.36897  1.0000
  O   O25       1.0  0.05816000000000001  0.40732  0.47232  1.0000
  O   O26       1.0  0.20900000000000005  0.42973  0.53042  1.0000
  O   O27       1.0  0.40118  0.03304999999999999  0.48226  1.0000
  O   O28       1.0  0.34996000000000005  0.11940000000000003  0.55192  1.0000
  O   O29       1.0  0.9376100000000002  0.01932  0.13907  1.0000
  O   O30       1.0  0.06232999999999999  0.91959  0.13919  1.0000
  O   O31       1.0  0.35818000000000005  0.87629  0.36088  1.0000
  O   O32       1.0  0.4099300000000001  0.81023  0.427  1.0000
  O   O33       1.0  0.13505000000000006  0.6159500000000001  0.4829800000000001  1.0000
  O   O34       1.0  0.98441  0.5550000000000003  0.42385  1.0000
  O   O35       1.0  0.7349500000000001  0.8057600000000003  0.12851  1.0000
  O   O36       1.0  0.6514300000000001  0.66629  0.13345  1.0000
  O   O37       1.0  0.12459999999999999  0.06424  0.07365  1.0000
  O   O38       1.0  0.13592  0.14662  0.01226  1.0000
  O   O39       1.0  0.49988  0.48536  0.14374  1.0000
  O   O40       1.0  0.36934  0.46731  0.07455  1.0000
  O   O41       1.0  0.5264000000000002  0.04685999999999998  0.37363  1.0000
  O   O42       1.0  0.56794  0.2039  0.41748  1.0000
  O   O43       1.0  0.4118  0.54156  0.96991  1.0000
  O   O44       1.0  0.41667000000000004  0.66176  0.04079000000000001  1.0000
  O   O45       1.0  0.08799000000000004  0.9273600000000002  0.9702  1.0000
  O   O46       1.0  0.10417000000000003  0.84702  0.03276  1.0000
  O   O47       1.0  0.23789000000000005  0.5975900000000002  0.63085  1.0000
  O   O48       1.0  0.08899999999999998  0.66696  0.63097  1.0000
