data_image0
_chemical_formula_structural       Co12H120C216O52
_chemical_formula_sum              "Co12 H120 C216 O52"
_cell_length_a       17.37029
_cell_length_b       21.44678
_cell_length_c       24.90381
_cell_angle_alpha    90.02023999999999
_cell_angle_beta     89.98481
_cell_angle_gamma    89.98441000000001

_symmetry_space_group_name_H-M    'P 1'
_symmetry_Int_Tables_number       1

loop_
  _symmetry_equiv_pos_as_xyz
  'x,y,z'

loop_
  _atom_site_type_symbol
  _atom_site_label
  _atom_site_symmetry_multiplicity
  _atom_site_fract_x
  _atom_site_fract_y
  _atom_site_fract_z
  _atom_site_occupancy
  Co  Co1       1.0  0.0009500000000000001  0.9324199999999999  0.68047  1.0000
  Co  Co2       1.0  0.49851999999999996  0.4316599999999999  0.31857  1.0000
  Co  Co3       1.0  0.0008100000000000001  0.93298  0.8197199999999998  1.0000
  Co  Co4       1.0  0.49851999999999996  0.43245999999999996  0.17927  1.0000
  Co  Co5       1.0  0.40168  0.34763  0.25022  1.0000
  Co  Co6       1.0  0.09743  0.84732  0.7500799999999999  1.0000
  Co  Co7       1.0  0.9984999999999999  0.06719  0.1804  1.0000
  Co  Co8       1.0  0.50147  0.5678299999999998  0.8188999999999997  1.0000
  Co  Co9       1.0  0.99874  0.06659  0.32004999999999995  1.0000
  Co  Co10      1.0  0.50146  0.56744  0.67958  1.0000
  Co  Co11      1.0  0.59842  0.6514599999999999  0.74963  1.0000
  Co  Co12      1.0  0.90266  0.15199  0.25009  1.0000
  H   H1        1.0  0.39542  0.19105  0.35209  1.0000
  H   H2        1.0  0.62559  0.10986  0.51201  1.0000
  H   H3        1.0  0.29846  0.08545  0.5748799999999998  1.0000
  H   H4        1.0  0.51684  0.98077  0.62036  1.0000
  H   H5        1.0  0.58409  0.21218  0.50091  1.0000
  H   H6        1.0  0.57157  0.29608  0.43214999999999987  1.0000
  H   H7        1.0  0.17985  0.041359999999999994  0.6152199999999999  1.0000
  H   H8        1.0  0.40502  0.10796999999999998  0.42174999999999996  1.0000
  H   H9        1.0  0.42159  0.9174  0.6161999999999999  1.0000
  H   H10       1.0  0.30413  0.8764699999999997  0.6603899999999999  1.0000
  H   H11       1.0  0.74298  0.96286  0.70113  1.0000
  H   H12       1.0  0.3798299999999999  0.08986999999999999  0.51177  1.0000
  H   H13       1.0  0.6156  0.99867  0.6678999999999998  1.0000
  H   H14       1.0  0.7172799999999998  0.04008  0.51385  1.0000
  H   H15       1.0  0.84557  0.010499999999999999  0.5495499999999999  1.0000
  H   H16       1.0  0.1043  0.6916099999999998  0.6476  1.0000
  H   H17       1.0  0.87347  0.60959  0.48793999999999993  1.0000
  H   H18       1.0  0.20131  0.58571  0.42533  1.0000
  H   H19       1.0  0.9831499999999999  0.48074  0.37971  1.0000
  H   H20       1.0  0.91529  0.71226  0.4989  1.0000
  H   H21       1.0  0.9284299999999999  0.7967  0.56725  1.0000
  H   H22       1.0  0.31978  0.5417499999999998  0.3846599999999999  1.0000
  H   H23       1.0  0.094  0.6080399999999999  0.57842  1.0000
  H   H24       1.0  0.07824  0.41766  0.38411999999999996  1.0000
  H   H25       1.0  0.19544  0.3766699999999999  0.3397999999999999  1.0000
  H   H26       1.0  0.75804  0.46250999999999987  0.29789  1.0000
  H   H27       1.0  0.11931999999999998  0.59018  0.4885799999999999  1.0000
  H   H28       1.0  0.88491  0.49824  0.33191  1.0000
  H   H29       1.0  0.78145  0.5402599999999999  0.4852  1.0000
  H   H30       1.0  0.65357  0.51084  0.4487699999999999  1.0000
  H   H31       1.0  0.39508  0.19221  0.14760999999999996  1.0000
  H   H32       1.0  0.62562  0.10946  0.98815  1.0000
  H   H33       1.0  0.29833  0.08542  0.92527  1.0000
  H   H34       1.0  0.51665  0.98053  0.8797799999999998  1.0000
  H   H35       1.0  0.58415  0.21215999999999993  0.9987999999999999  1.0000
  H   H36       1.0  0.57149  0.29653  0.06710999999999999  1.0000
  H   H37       1.0  0.17978  0.04139999999999999  0.88483  1.0000
  H   H38       1.0  0.40481  0.10855  0.07843  1.0000
  H   H39       1.0  0.42142  0.91728  0.8839299999999998  1.0000
  H   H40       1.0  0.30401  0.87643  0.8396399999999999  1.0000
  H   H41       1.0  0.7435399999999998  0.9644399999999997  0.7985899999999999  1.0000
  H   H42       1.0  0.3797899999999999  0.08994999999999999  0.9883499999999998  1.0000
  H   H43       1.0  0.6156799999999998  0.99911  0.8320099999999999  1.0000
  H   H44       1.0  0.71685  0.0401  0.9863399999999999  1.0000
  H   H45       1.0  0.84551  0.01155  0.9504799999999999  1.0000
  H   H46       1.0  0.10402  0.6924399999999998  0.8524699999999997  1.0000
  H   H47       1.0  0.87335  0.61007  0.011949999999999997  1.0000
  H   H48       1.0  0.2006  0.5864599999999999  0.0744  1.0000
  H   H49       1.0  0.9828999999999999  0.48088999999999993  0.11978999999999998  1.0000
  H   H50       1.0  0.91513  0.71276  0.0013199999999999996  1.0000
  H   H51       1.0  0.92812  0.7972799999999999  0.9330399999999999  1.0000
  H   H52       1.0  0.31944  0.54278  0.11463  1.0000
  H   H53       1.0  0.09397  0.6087499999999999  0.9215299999999997  1.0000
  H   H54       1.0  0.07828  0.41818  0.11585999999999998  1.0000
  H   H55       1.0  0.19578  0.3776399999999999  0.16015  1.0000
  H   H56       1.0  0.75735  0.46313  0.20137  1.0000
  H   H57       1.0  0.11917  0.5905  0.01115  1.0000
  H   H58       1.0  0.88464  0.49908999999999987  0.16777999999999998  1.0000
  H   H59       1.0  0.7821599999999997  0.54012  0.013869999999999997  1.0000
  H   H60       1.0  0.65404  0.51019  0.049969999999999994  1.0000
  H   H61       1.0  0.60482  0.8083899999999999  0.8518699999999998  1.0000
  H   H62       1.0  0.37393999999999994  0.8901299999999998  0.01174  1.0000
  H   H63       1.0  0.70129  0.9143499999999998  0.0747  1.0000
  H   H64       1.0  0.4829  0.019049999999999997  0.12014999999999998  1.0000
  H   H65       1.0  0.41564  0.7874899999999999  0.0004999999999999999  1.0000
  H   H66       1.0  0.42866  0.7034099999999999  0.9319499999999998  1.0000
  H   H67       1.0  0.8198  0.9586  0.11508  1.0000
  H   H68       1.0  0.59469  0.89174  0.9212399999999997  1.0000
  H   H69       1.0  0.5779799999999998  0.08242999999999999  0.11602  1.0000
  H   H70       1.0  0.69532  0.12345999999999999  0.16022999999999998  1.0000
  H   H71       1.0  0.25749  0.03723  0.20142999999999994  1.0000
  H   H72       1.0  0.6198  0.90978  0.011519999999999997  1.0000
  H   H73       1.0  0.3845999999999999  0.00117  0.16785999999999995  1.0000
  H   H74       1.0  0.28225  0.9599299999999997  0.014  1.0000
  H   H75       1.0  0.15414999999999998  0.98992  0.0501  1.0000
  H   H76       1.0  0.89557  0.30791999999999997  0.14763999999999997  1.0000
  H   H77       1.0  0.1267  0.39035  0.9879599999999997  1.0000
  H   H78       1.0  0.79918  0.41382  0.92565  1.0000
  H   H79       1.0  0.01692  0.51923  0.87991  1.0000
  H   H80       1.0  0.08472  0.28727  0.9989699999999999  1.0000
  H   H81       1.0  0.07157  0.20298  0.06734  1.0000
  H   H82       1.0  0.6804099999999997  0.45723  0.8851099999999997  1.0000
  H   H83       1.0  0.90562  0.39140999999999987  0.07842  1.0000
  H   H84       1.0  0.9212999999999999  0.58226  0.88417  1.0000
  H   H85       1.0  0.80384  0.62256  0.8397699999999998  1.0000
  H   H86       1.0  0.24177  0.53755  0.79791  1.0000
  H   H87       1.0  0.88084  0.40973  0.98875  1.0000
  H   H88       1.0  0.11496  0.5017599999999999  0.83197  1.0000
  H   H89       1.0  0.21858  0.45985  0.9852499999999998  1.0000
  H   H90       1.0  0.34643  0.48936  0.9485999999999998  1.0000
  H   H91       1.0  0.6050399999999998  0.80812  0.64765  1.0000
  H   H92       1.0  0.37386  0.8902699999999998  0.4882899999999999  1.0000
  H   H93       1.0  0.70119  0.91457  0.4256399999999999  1.0000
  H   H94       1.0  0.48285999999999996  0.01909  0.37985999999999986  1.0000
  H   H95       1.0  0.4154799999999999  0.7877399999999999  0.4992399999999999  1.0000
  H   H96       1.0  0.42874  0.7033699999999999  0.5675  1.0000
  H   H97       1.0  0.8198999999999997  0.95885  0.38558999999999993  1.0000
  H   H98       1.0  0.5946299999999999  0.8918  0.57858  1.0000
  H   H99       1.0  0.5779799999999998  0.08257  0.3842699999999999  1.0000
  H   H100      1.0  0.69549  0.12366999999999999  0.34028999999999987  1.0000
  H   H101      1.0  0.25658  0.03556  0.29862999999999995  1.0000
  H   H102      1.0  0.61964  0.9099699999999998  0.4885799999999999  1.0000
  H   H103      1.0  0.38429  0.00054  0.33211  1.0000
  H   H104      1.0  0.28265  0.95965  0.48631999999999986  1.0000
  H   H105      1.0  0.15410999999999994  0.9885499999999998  0.45034  1.0000
  H   H106      1.0  0.89594  0.30766  0.3524199999999999  1.0000
  H   H107      1.0  0.12702999999999998  0.39006  0.5119899999999998  1.0000
  H   H108      1.0  0.7994099999999997  0.41355  0.5738599999999999  1.0000
  H   H109      1.0  0.01706999999999999  0.51897  0.6199899999999999  1.0000
  H   H110      1.0  0.08514  0.28712  0.501  1.0000
  H   H111      1.0  0.07181999999999998  0.20265  0.4327199999999999  1.0000
  H   H112      1.0  0.68048  0.4572399999999999  0.6141099999999999  1.0000
  H   H113      1.0  0.90627  0.39131  0.4215299999999999  1.0000
  H   H114      1.0  0.92162  0.58198  0.6155399999999999  1.0000
  H   H115      1.0  0.80395  0.6224499999999998  0.6597299999999999  1.0000
  H   H116      1.0  0.24305  0.5367399999999999  0.70139  1.0000
  H   H117      1.0  0.8812099999999998  0.40953999999999996  0.51092  1.0000
  H   H118      1.0  0.11561  0.50099  0.6679099999999999  1.0000
  H   H119      1.0  0.21775  0.46020999999999995  0.5137899999999999  1.0000
  H   H120      1.0  0.34603  0.48981999999999987  0.5498699999999999  1.0000
  C   C1        1.0  0.5805  0.042269999999999995  0.5682899999999999  1.0000
  C   C2        1.0  0.8774  0.9656099999999997  0.6491499999999998  1.0000
  C   C3        1.0  0.43617999999999996  0.19522  0.38503  1.0000
  C   C4        1.0  0.50203  0.10546  0.50781  1.0000
  C   C5        1.0  0.57411  0.08793  0.52816  1.0000
  C   C6        1.0  0.48275  0.24861  0.38805  1.0000
  C   C7        1.0  0.29979  0.03899  0.5922699999999999  1.0000
  C   C8        1.0  0.65676  0.02235  0.5884299999999999  1.0000
  C   C9        1.0  0.80214  0.9850499999999998  0.6276499999999999  1.0000
  C   C10       1.0  0.49577  0.15408999999999998  0.46604  1.0000
  C   C11       1.0  0.51281  0.01553  0.58876  1.0000
  C   C12       1.0  0.23488999999999996  0.9564599999999998  0.64057  1.0000
  C   C13       1.0  0.54321  0.20725  0.4680999999999999  1.0000
  C   C14       1.0  0.3692799999999999  0.00506  0.59261  1.0000
  C   C15       1.0  0.47431  0.29943  0.3478199999999999  1.0000
  C   C16       1.0  0.53627  0.2543  0.4299699999999999  1.0000
  C   C17       1.0  0.23327  0.01495  0.6153599999999999  1.0000
  C   C18       1.0  0.4418999999999999  0.14894  0.42405  1.0000
  C   C19       1.0  0.16478999999999994  0.9315399999999999  0.66711  1.0000
  C   C20       1.0  0.4399100000000001  0.03239  0.56932  1.0000
  C   C21       1.0  0.3695299999999999  0.9456  0.6167399999999998  1.0000
  C   C22       1.0  0.30356  0.92191  0.64102  1.0000
  C   C23       1.0  0.73656  0.9805699999999998  0.66045  1.0000
  C   C24       1.0  0.43562  0.07684  0.5280999999999999  1.0000
  C   C25       1.0  0.66526  0.9998199999999999  0.6413  1.0000
  C   C26       1.0  0.7227  0.025039999999999996  0.5554299999999999  1.0000
  C   C27       1.0  0.7947399999999998  0.00763  0.5749799999999999  1.0000
  C   C28       1.0  0.91898  0.5420999999999999  0.43165  1.0000
  C   C29       1.0  0.62269  0.46452999999999994  0.3495299999999999  1.0000
  C   C30       1.0  0.06336  0.6956799999999999  0.61476  1.0000
  C   C31       1.0  0.9970799999999999  0.60537  0.49236  1.0000
  C   C32       1.0  0.92509  0.58772  0.4718999999999999  1.0000
  C   C33       1.0  0.01696  0.74916  0.61161  1.0000
  C   C34       1.0  0.19992999999999994  0.53928  0.40783999999999987  1.0000
  C   C35       1.0  0.8428999999999998  0.52224  0.41105999999999987  1.0000
  C   C36       1.0  0.69777  0.48483  0.37102  1.0000
  C   C37       1.0  0.0034099999999999985  0.65419  0.53398  1.0000
  C   C38       1.0  0.98689  0.51548  0.41135  1.0000
  C   C39       1.0  0.26494999999999996  0.4567  0.3594499999999999  1.0000
  C   C40       1.0  0.95621  0.7074799999999999  0.5317299999999999  1.0000
  C   C41       1.0  0.13046999999999997  0.50531  0.4075999999999999  1.0000
  C   C42       1.0  0.025539999999999993  0.80008  0.6518  1.0000
  C   C43       1.0  0.96345  0.7547799999999999  0.56965  1.0000
  C   C44       1.0  0.26642  0.51525  0.38460999999999995  1.0000
  C   C45       1.0  0.05734999999999999  0.6491299999999999  0.57597  1.0000
  C   C46       1.0  0.33505  0.4316699999999999  0.33282  1.0000
  C   C47       1.0  0.05968  0.53245  0.43090999999999996  1.0000
  C   C48       1.0  0.13029  0.44586  0.38345  1.0000
  C   C49       1.0  0.19625  0.42213  0.35912999999999995  1.0000
  C   C50       1.0  0.76378  0.48031999999999997  0.3386  1.0000
  C   C51       1.0  0.06369  0.57688  0.4721599999999999  1.0000
  C   C52       1.0  0.8348799999999997  0.4996  0.35816  1.0000
  C   C53       1.0  0.77653  0.52517  0.4435899999999999  1.0000
  C   C54       1.0  0.7046999999999998  0.5077699999999999  0.42364  1.0000
  C   C55       1.0  0.58032  0.041979999999999996  0.9319299999999998  1.0000
  C   C56       1.0  0.8775299999999999  0.96701  0.8508499999999998  1.0000
  C   C57       1.0  0.43607  0.19594999999999999  0.11476999999999998  1.0000
  C   C58       1.0  0.50197  0.10537999999999999  0.9923699999999998  1.0000
  C   C59       1.0  0.57402  0.08764  0.9720899999999998  1.0000
  C   C60       1.0  0.48284999999999995  0.24917999999999998  0.11157999999999997  1.0000
  C   C61       1.0  0.29968999999999996  0.03896  0.9078599999999999  1.0000
  C   C62       1.0  0.65661  0.02238  0.9116599999999998  1.0000
  C   C63       1.0  0.80226  0.9863399999999998  0.8722999999999997  1.0000
  C   C64       1.0  0.4958  0.15425  0.03395999999999999  1.0000
  C   C65       1.0  0.51266  0.01528  0.9114099999999999  1.0000
  C   C66       1.0  0.23481999999999997  0.9564899999999998  0.8594599999999998  1.0000
  C   C67       1.0  0.5433  0.20736999999999997  0.03167  1.0000
  C   C68       1.0  0.36914  0.004969999999999999  0.9075399999999999  1.0000
  C   C69       1.0  0.47431  0.30025999999999997  0.15154999999999996  1.0000
  C   C70       1.0  0.53634  0.25467  0.06959  1.0000
  C   C71       1.0  0.23319  0.014969999999999999  0.8846999999999998  1.0000
  C   C72       1.0  0.44183  0.14939  0.07595  1.0000
  C   C73       1.0  0.16479999999999995  0.93159  0.8328099999999998  1.0000
  C   C74       1.0  0.4397899999999999  0.032229999999999995  0.9308599999999999  1.0000
  C   C75       1.0  0.36938  0.9455099999999997  0.8833699999999998  1.0000
  C   C76       1.0  0.30344  0.9218799999999999  0.8590299999999998  1.0000
  C   C77       1.0  0.73683  0.9817499999999999  0.8393899999999997  1.0000
  C   C78       1.0  0.4355499999999999  0.07675999999999998  0.9720599999999998  1.0000
  C   C79       1.0  0.66531  0.0003499999999999999  0.8586299999999998  1.0000
  C   C80       1.0  0.72247  0.02532  0.9446899999999998  1.0000
  C   C81       1.0  0.79468  0.00854  0.9250799999999998  1.0000
  C   C82       1.0  0.9189499999999998  0.54242  0.06796  1.0000
  C   C83       1.0  0.62278  0.46571  0.14923  1.0000
  C   C84       1.0  0.06311999999999997  0.69634  0.8853399999999998  1.0000
  C   C85       1.0  0.9969599999999998  0.60587  0.007499999999999998  1.0000
  C   C86       1.0  0.9249899999999999  0.5881899999999999  0.02791  1.0000
  C   C87       1.0  0.01668  0.74978  0.88864  1.0000
  C   C88       1.0  0.19956999999999997  0.53997  0.09174  1.0000
  C   C89       1.0  0.8429299999999997  0.52252  0.08837999999999999  1.0000
  C   C90       1.0  0.69802  0.48516  0.12789  1.0000
  C   C91       1.0  0.0032  0.6547499999999999  0.9660099999999998  1.0000
  C   C92       1.0  0.9867399999999998  0.51574  0.08826  1.0000
  C   C93       1.0  0.26488  0.45763999999999994  0.14006  1.0000
  C   C94       1.0  0.95596  0.7080099999999999  0.96842  1.0000
  C   C95       1.0  0.13025999999999993  0.50583  0.09210999999999997  1.0000
  C   C96       1.0  0.02539  0.8005999999999998  0.84848  1.0000
  C   C97       1.0  0.9631399999999999  0.75535  0.9305799999999999  1.0000
  C   C98       1.0  0.26622  0.5161  0.11476999999999998  1.0000
  C   C99       1.0  0.05717999999999998  0.64975  0.9240399999999998  1.0000
  C   C100      1.0  0.33497  0.4328299999999999  0.16679  1.0000
  C   C101      1.0  0.05951  0.53284  0.0688  1.0000
  C   C102      1.0  0.13025  0.44643999999999995  0.11632  1.0000
  C   C103      1.0  0.19631999999999997  0.42295  0.1406  1.0000
  C   C104      1.0  0.76363  0.48084  0.16066  1.0000
  C   C105      1.0  0.06353  0.57729  0.027589999999999993  1.0000
  C   C106      1.0  0.83479  0.5001499999999999  0.14134  1.0000
  C   C107      1.0  0.77694  0.52514  0.055469999999999985  1.0000
  C   C108      1.0  0.70509  0.50761  0.07518  1.0000
  C   C109      1.0  0.41920999999999997  0.95754  0.06811  1.0000
  C   C110      1.0  0.12261999999999999  0.03473  0.14933  1.0000
  C   C111      1.0  0.56387  0.80431  0.88471  1.0000
  C   C112      1.0  0.4975899999999999  0.89437  0.00745  1.0000
  C   C113      1.0  0.42551  0.9119499999999999  0.02786  1.0000
  C   C114      1.0  0.5174  0.7508799999999998  0.8877899999999997  1.0000
  C   C115      1.0  0.69986  0.96082  0.09208  1.0000
  C   C116      1.0  0.34307  0.9774799999999998  0.08847999999999998  1.0000
  C   C117      1.0  0.198  0.015319999999999999  0.12795  1.0000
  C   C118      1.0  0.50392  0.8456799999999998  0.9656599999999997  1.0000
  C   C119      1.0  0.48691999999999996  0.98427  0.08853999999999997  1.0000
  C   C120      1.0  0.76466  0.043449999999999996  0.14034  1.0000
  C   C121      1.0  0.45660999999999996  0.79245  0.96772  1.0000
  C   C122      1.0  0.63038  0.9947499999999999  0.09238  1.0000
  C   C123      1.0  0.52595  0.6996899999999999  0.8478499999999998  1.0000
  C   C124      1.0  0.46377999999999997  0.7452899999999999  0.9296899999999998  1.0000
  C   C125      1.0  0.7663  0.98492  0.11519999999999998  1.0000
  C   C126      1.0  0.55789  0.8507499999999999  0.9236499999999997  1.0000
  C   C127      1.0  0.8350299999999998  0.06838  0.16656  1.0000
  C   C128      1.0  0.55978  0.96739  0.06907  1.0000
  C   C129      1.0  0.63004  0.05422  0.11657  1.0000
  C   C130      1.0  0.6959599999999999  0.07798  0.14089  1.0000
  C   C131      1.0  0.26366  0.01957  0.16069  1.0000
  C   C132      1.0  0.5640299999999998  0.92292  0.027819999999999994  1.0000
  C   C133      1.0  0.33480999999999994  4.999999999999999e-05  0.14137999999999998  1.0000
  C   C134      1.0  0.27703  0.9749399999999999  0.055609999999999986  1.0000
  C   C135      1.0  0.20518  0.99265  0.07531  1.0000
  C   C136      1.0  0.08104  0.4578199999999999  0.9317799999999998  1.0000
  C   C137      1.0  0.37723  0.53512  0.8494899999999999  1.0000
  C   C138      1.0  0.9365499999999999  0.30394999999999994  0.11478999999999998  1.0000
  C   C139      1.0  0.00306  0.39442  0.9924799999999998  1.0000
  C   C140      1.0  0.07502  0.4121599999999999  0.9719899999999998  1.0000
  C   C141      1.0  0.98304  0.25051  0.11166999999999998  1.0000
  C   C142      1.0  0.80024  0.46024  0.9081699999999998  1.0000
  C   C143      1.0  0.15707  0.47772999999999993  0.9111199999999998  1.0000
  C   C144      1.0  0.30205  0.51526  0.8709999999999998  1.0000
  C   C145      1.0  0.99674  0.34558  0.0341  1.0000
  C   C146      1.0  0.01315  0.48447  0.91153  1.0000
  C   C147      1.0  0.73493  0.54232  0.8594999999999998  1.0000
  C   C148      1.0  0.043869999999999985  0.2922199999999999  0.03183  1.0000
  C   C149      1.0  0.8695399999999998  0.49443  0.90783  1.0000
  C   C150      1.0  0.9743999999999999  0.19956  0.15183  1.0000
  C   C151      1.0  0.03656  0.24491999999999997  0.06972  1.0000
  C   C152      1.0  0.73361  0.48392999999999997  0.8849199999999999  1.0000
  C   C153      1.0  0.9426  0.3505  0.07601  1.0000
  C   C154      1.0  0.6649799999999998  0.56698  0.8324799999999998  1.0000
  C   C155      1.0  0.9404  0.4674199999999999  0.9311  1.0000
  C   C156      1.0  0.86944  0.55383  0.88362  1.0000
  C   C157      1.0  0.80339  0.57716  0.8592  1.0000
  C   C158      1.0  0.23603  0.51977  0.8386299999999998  1.0000
  C   C159      1.0  0.93648  0.42294  0.9723099999999998  1.0000
  C   C160      1.0  0.16498999999999994  0.50039  0.85822  1.0000
  C   C161      1.0  0.22347  0.4748899999999999  0.94363  1.0000
  C   C162      1.0  0.29523  0.49235999999999996  0.9235999999999998  1.0000
  C   C163      1.0  0.41923  0.9576299999999998  0.4319899999999999  1.0000
  C   C164      1.0  0.12237999999999999  0.03288  0.35081999999999997  1.0000
  C   C165      1.0  0.56394  0.80422  0.61489  1.0000
  C   C166      1.0  0.49749  0.8945199999999999  0.49258  1.0000
  C   C167      1.0  0.42547  0.91209  0.47222  1.0000
  C   C168      1.0  0.51738  0.75084  0.61172  1.0000
  C   C169      1.0  0.6998699999999998  0.96106  0.4083099999999999  1.0000
  C   C170      1.0  0.34303999999999996  0.9772399999999999  0.41167  1.0000
  C   C171      1.0  0.19764999999999994  0.01363  0.37225  1.0000
  C   C172      1.0  0.50381  0.84578  0.53422  1.0000
  C   C173      1.0  0.4868799999999999  0.98439  0.41151  1.0000
  C   C174      1.0  0.7648299999999998  0.04368999999999999  0.36015999999999987  1.0000
  C   C175      1.0  0.45646  0.79258  0.5319999999999999  1.0000
  C   C176      1.0  0.63036  0.9949599999999997  0.4078699999999999  1.0000
  C   C177      1.0  0.5260199999999998  0.6996799999999999  0.6515899999999998  1.0000
  C   C178      1.0  0.46372  0.7453  0.5698699999999999  1.0000
  C   C179      1.0  0.7664199999999998  0.9851899999999998  0.38534999999999997  1.0000
  C   C180      1.0  0.55785  0.85079  0.5761399999999999  1.0000
  C   C181      1.0  0.83494  0.06849  0.3334799999999999  1.0000
  C   C182      1.0  0.55971  0.96759  0.4310599999999999  1.0000
  C   C183      1.0  0.6300899999999998  0.05443  0.38378  1.0000
  C   C184      1.0  0.69612  0.0782  0.3596099999999999  1.0000
  C   C185      1.0  0.26317  0.01815  0.3393999999999999  1.0000
  C   C186      1.0  0.56391  0.9231299999999999  0.4722599999999999  1.0000
  C   C187      1.0  0.3345599999999999  0.99936  0.35867  1.0000
  C   C188      1.0  0.27714  0.97444  0.44468  1.0000
  C   C189      1.0  0.20504  0.9914199999999999  0.42501999999999995  1.0000
  C   C190      1.0  0.08115999999999997  0.4576  0.5680299999999999  1.0000
  C   C191      1.0  0.37741  0.53433  0.6492499999999998  1.0000
  C   C192      1.0  0.9369599999999999  0.30369  0.3851999999999999  1.0000
  C   C193      1.0  0.0034  0.39416  0.50738  1.0000
  C   C194      1.0  0.07529  0.41188999999999987  0.52789  1.0000
  C   C195      1.0  0.98336  0.2501999999999999  0.38840999999999987  1.0000
  C   C196      1.0  0.80047  0.46  0.5913199999999998  1.0000
  C   C197      1.0  0.15715  0.47763  0.58842  1.0000
  C   C198      1.0  0.3022  0.51482  0.6278599999999999  1.0000
  C   C199      1.0  0.9971599999999999  0.3453099999999999  0.46582  1.0000
  C   C200      1.0  0.0133  0.4842199999999999  0.58834  1.0000
  C   C201      1.0  0.7351  0.5422599999999999  0.63972  1.0000
  C   C202      1.0  0.04429  0.29199  0.46814  1.0000
  C   C203      1.0  0.86975  0.49418  0.5918299999999999  1.0000
  C   C204      1.0  0.9746099999999999  0.19928  0.34829  1.0000
  C   C205      1.0  0.03692  0.24462999999999996  0.43030999999999997  1.0000
  C   C206      1.0  0.73377  0.48382  0.6143799999999999  1.0000
  C   C207      1.0  0.9430799999999999  0.35028999999999993  0.4239199999999999  1.0000
  C   C208      1.0  0.66499  0.56702  0.6664  1.0000
  C   C209      1.0  0.9406199999999999  0.4671599999999999  0.56869  1.0000
  C   C210      1.0  0.8696999999999999  0.55361  0.61602  1.0000
  C   C211      1.0  0.80358  0.57704  0.6402899999999999  1.0000
  C   C212      1.0  0.23662  0.51914  0.66067  1.0000
  C   C213      1.0  0.9368  0.42270999999999986  0.52746  1.0000
  C   C214      1.0  0.16537999999999994  0.49994999999999995  0.64139  1.0000
  C   C215      1.0  0.2231  0.47509999999999997  0.5554399999999999  1.0000
  C   C216      1.0  0.29501  0.49246  0.57512  1.0000
  O   O1        1.0  0.10161  0.96162  0.6590199999999998  1.0000
  O   O2        1.0  0.43788  0.28659999999999997  0.30442  1.0000
  O   O3        1.0  0.50379  0.35228999999999994  0.35958  1.0000
  O   O4        1.0  0.17169999999999996  0.88248  0.6955299999999999  1.0000
  O   O5        1.0  0.8826999999999999  0.93024  0.6902899999999997  1.0000
  O   O6        1.0  0.9417499999999999  0.9835099999999998  0.6274999999999998  1.0000
  O   O7        1.0  0.39784  0.46289  0.33882  1.0000
  O   O8        1.0  0.06235999999999999  0.7874799999999998  0.69507  1.0000
  O   O9        1.0  0.99575  0.8528399999999999  0.64017  1.0000
  O   O10       1.0  0.32847  0.38106999999999996  0.30629999999999996  1.0000
  O   O11       1.0  0.61756  0.4283  0.30906  1.0000
  O   O12       1.0  0.55799  0.4823699999999999  0.37078  1.0000
  O   O13       1.0  0.10164  0.96174  0.84085  1.0000
  O   O14       1.0  0.4371  0.28852999999999995  0.19473999999999994  1.0000
  O   O15       1.0  0.5048  0.35271  0.13981999999999997  1.0000
  O   O16       1.0  0.17176  0.8825  0.80445  1.0000
  O   O17       1.0  0.8827699999999998  0.93222  0.8093199999999998  1.0000
  O   O18       1.0  0.94194  0.9839399999999999  0.8728799999999999  1.0000
  O   O19       1.0  0.3982  0.4628399999999999  0.15855999999999998  1.0000
  O   O20       1.0  0.06240999999999999  0.7877399999999999  0.8053399999999998  1.0000
  O   O21       1.0  0.9955699999999998  0.8534299999999998  0.8599299999999998  1.0000
  O   O22       1.0  0.3280999999999999  0.3840199999999999  0.1955  1.0000
  O   O23       1.0  0.6171299999999998  0.43137  0.19086999999999996  1.0000
  O   O24       1.0  0.55849  0.4824  0.12670999999999996  1.0000
  O   O25       1.0  0.47670999999999997  0.41588  0.24892999999999998  1.0000
  O   O26       1.0  0.02171  0.91494  0.75021  1.0000
  O   O27       1.0  0.89825  0.03854  0.15792999999999996  1.0000
  O   O28       1.0  0.5627399999999999  0.7115299999999999  0.8044699999999998  1.0000
  O   O29       1.0  0.49593999999999994  0.6471399999999999  0.85982  1.0000
  O   O30       1.0  0.82829  0.11707999999999998  0.1955  1.0000
  O   O31       1.0  0.11708  0.0698  0.19060999999999995  1.0000
  O   O32       1.0  0.05842  0.016969999999999996  0.12735  1.0000
  O   O33       1.0  0.60179  0.53672  0.8396799999999999  1.0000
  O   O34       1.0  0.93783  0.21225999999999995  0.19521999999999998  1.0000
  O   O35       1.0  0.00409  0.14675  0.14017999999999997  1.0000
  O   O36       1.0  0.6720099999999998  0.6162699999999999  0.8043699999999999  1.0000
  O   O37       1.0  0.38261  0.5715799999999999  0.8092099999999998  1.0000
  O   O38       1.0  0.44170999999999994  0.51666  0.8706199999999997  1.0000
  O   O39       1.0  0.89806  0.038279999999999995  0.34156  1.0000
  O   O40       1.0  0.56345  0.7114599999999999  0.6946699999999999  1.0000
  O   O41       1.0  0.49537  0.64726  0.63998  1.0000
  O   O42       1.0  0.82816  0.11735999999999999  0.30484  1.0000
  O   O43       1.0  0.11697  0.06727999999999999  0.30913999999999997  1.0000
  O   O44       1.0  0.05804999999999999  0.016029999999999996  0.37306  1.0000
  O   O45       1.0  0.60175  0.5369499999999999  0.6585  1.0000
  O   O46       1.0  0.93781  0.21208  0.30505999999999994  1.0000
  O   O47       1.0  0.00436  0.14645  0.35983999999999994  1.0000
  O   O48       1.0  0.67192  0.6160399999999999  0.6948699999999998  1.0000
  O   O49       1.0  0.38292999999999994  0.56886  0.69083  1.0000
  O   O50       1.0  0.44170999999999994  0.51746  0.62689  1.0000
  O   O51       1.0  0.52312  0.58399  0.7491999999999998  1.0000
  O   O52       1.0  0.9768399999999999  0.08288  0.25034  1.0000
