data_image0
_chemical_formula_structural       Zn12H80C144N8O48
_chemical_formula_sum              "Zn12 H80 C144 N8 O48"
_cell_length_a       12.69284
_cell_length_b       14.632180000000002
_cell_length_c       26.036
_cell_angle_alpha    99.74124
_cell_angle_beta     90.01117999999998
_cell_angle_gamma    90.00536999999998

_symmetry_space_group_name_H-M    'P 1'
_symmetry_Int_Tables_number       1

loop_
  _symmetry_equiv_pos_as_xyz
  'x,y,z'

loop_
  _atom_site_type_symbol
  _atom_site_label
  _atom_site_symmetry_multiplicity
  _atom_site_fract_x
  _atom_site_fract_y
  _atom_site_fract_z
  _atom_site_occupancy
  Zn  Zn1       1.0  0.09834999999999998  0.8818099999999999  0.87657  1.0000
  Zn  Zn2       1.0  0.74355  0.013029999999999986  0.19646999999999995  1.0000
  Zn  Zn3       1.0  0.92752  0.9325899999999998  0.47037  1.0000
  Zn  Zn4       1.0  0.59943  0.61807  0.62346  1.0000
  Zn  Zn5       1.0  0.24503999999999998  0.48754  0.30346  1.0000
  Zn  Zn6       1.0  0.42648  0.5675  0.029639999999999996  1.0000
  Zn  Zn7       1.0  0.90165  0.11819  0.12343  1.0000
  Zn  Zn8       1.0  0.25645  0.98697  0.8035299999999997  1.0000
  Zn  Zn9       1.0  0.07249  0.06739999999999997  0.52963  1.0000
  Zn  Zn10      1.0  0.40057999999999994  0.38193  0.3765299999999999  1.0000
  Zn  Zn11      1.0  0.75497  0.51246  0.69653  1.0000
  Zn  Zn12      1.0  0.57353  0.43249000000000004  0.97036  1.0000
  H   H1        1.0  0.8241  0.70112  0.3085399999999999  1.0000
  H   H2        1.0  0.58721  0.50127  0.45399  1.0000
  H   H3        1.0  0.04648  0.99253  0.6831399999999999  1.0000
  H   H4        1.0  0.77561  0.7905399999999997  0.4982799999999999  1.0000
  H   H5        1.0  0.61366  0.84269  0.20232999999999998  1.0000
  H   H6        1.0  0.71274  0.07118  0.3087  1.0000
  H   H7        1.0  0.90074  0.8460099999999997  0.35998999999999987  1.0000
  H   H8        1.0  0.51882  0.709  0.23205999999999996  1.0000
  H   H9        1.0  0.72068  0.5515299999999999  0.30935  1.0000
  H   H10       1.0  0.45154999999999995  0.63528  0.30475  1.0000
  H   H11       1.0  0.61934  0.45194999999999996  0.35979  1.0000
  H   H12       1.0  0.6484  0.0032099999999999755  0.38417999999999997  1.0000
  H   H13       1.0  0.6604099999999999  0.6501199999999998  0.50075  1.0000
  H   H14       1.0  0.47234  0.7147799999999996  0.39665999999999996  1.0000
  H   H15       1.0  0.55884  0.86838  0.4168199999999999  1.0000
  H   H16       1.0  0.9298299999999999  0.89968  0.01215  1.0000
  H   H17       1.0  0.91277  0.7715  0.7523599999999999  1.0000
  H   H18       1.0  0.67105  0.7709899999999998  0.07972999999999998  1.0000
  H   H19       1.0  0.82705  0.80304  0.59625  1.0000
  H   H20       1.0  0.80669  0.6392999999999998  0.93458  1.0000
  H   H21       1.0  0.32413  0.79903  0.19146  1.0000
  H   H22       1.0  0.0873  0.99904  0.04599  1.0000
  H   H23       1.0  0.54667  0.50712  0.81674  1.0000
  H   H24       1.0  0.27483  0.70943  0.00176  1.0000
  H   H25       1.0  0.11363999999999998  0.65732  0.29759  1.0000
  H   H26       1.0  0.21242  0.42873  0.19120999999999996  1.0000
  H   H27       1.0  0.40011  0.65385  0.13999  1.0000
  H   H28       1.0  0.0189  0.79099  0.2679  1.0000
  H   H29       1.0  0.22082  0.94873  0.19063  1.0000
  H   H30       1.0  0.9512499999999998  0.86467  0.19524999999999998  1.0000
  H   H31       1.0  0.11965  0.04837  0.14017  1.0000
  H   H32       1.0  0.14829  0.49681999999999993  0.11576999999999997  1.0000
  H   H33       1.0  0.16021999999999997  0.85  0.99926  1.0000
  H   H34       1.0  0.9719299999999997  0.78527  0.10333  1.0000
  H   H35       1.0  0.0586  0.63177  0.08312  1.0000
  H   H36       1.0  0.4308399999999999  0.60007  0.48751  1.0000
  H   H37       1.0  0.41394  0.72875  0.74778  1.0000
  H   H38       1.0  0.17189999999999997  0.7292  0.42039  1.0000
  H   H39       1.0  0.32702  0.6962199999999998  0.9036199999999998  1.0000
  H   H40       1.0  0.30885  0.86047  0.56546  1.0000
  H   H41       1.0  0.17589999999999995  0.29888  0.69146  1.0000
  H   H42       1.0  0.41279999999999994  0.49873  0.54601  1.0000
  H   H43       1.0  0.9535199999999998  0.00746999999999999  0.31685  1.0000
  H   H44       1.0  0.22438999999999995  0.20944999999999997  0.50171  1.0000
  H   H45       1.0  0.38634  0.15731  0.79767  1.0000
  H   H46       1.0  0.28726  0.9288199999999998  0.69129  1.0000
  H   H47       1.0  0.09927  0.15398999999999996  0.6400099999999999  1.0000
  H   H48       1.0  0.48118  0.2909999999999999  0.7679399999999998  1.0000
  H   H49       1.0  0.27933  0.44845999999999997  0.69065  1.0000
  H   H50       1.0  0.54845  0.36472  0.69525  1.0000
  H   H51       1.0  0.3806599999999999  0.54805  0.64021  1.0000
  H   H52       1.0  0.35161  0.99679  0.61582  1.0000
  H   H53       1.0  0.33959  0.34988  0.49925  1.0000
  H   H54       1.0  0.52766  0.2852199999999999  0.60334  1.0000
  H   H55       1.0  0.44117  0.13160999999999998  0.58318  1.0000
  H   H56       1.0  0.07017  0.10031000000000005  0.98784  1.0000
  H   H57       1.0  0.08724  0.2285  0.24763999999999997  1.0000
  H   H58       1.0  0.32896  0.22900999999999994  0.92027  1.0000
  H   H59       1.0  0.17295999999999997  0.19695  0.40374  1.0000
  H   H60       1.0  0.19332  0.3607  0.06541  1.0000
  H   H61       1.0  0.6758799999999999  0.20096  0.80854  1.0000
  H   H62       1.0  0.9127099999999999  0.0009599999999999784  0.9540099999999999  1.0000
  H   H63       1.0  0.45334  0.4928699999999999  0.18325999999999995  1.0000
  H   H64       1.0  0.72518  0.29057  0.99823  1.0000
  H   H65       1.0  0.88636  0.34268  0.70241  1.0000
  H   H66       1.0  0.78758  0.57127  0.80879  1.0000
  H   H67       1.0  0.5999  0.34615  0.86001  1.0000
  H   H68       1.0  0.9811099999999999  0.20901  0.7321  1.0000
  H   H69       1.0  0.7791799999999999  0.051260000000000014  0.80936  1.0000
  H   H70       1.0  0.04875  0.13532999999999998  0.8047499999999999  1.0000
  H   H71       1.0  0.88036  0.95163  0.85983  1.0000
  H   H72       1.0  0.85172  0.50318  0.88423  1.0000
  H   H73       1.0  0.83978  0.15  0.00074  1.0000
  H   H74       1.0  0.028079999999999997  0.21472999999999995  0.8966599999999998  1.0000
  H   H75       1.0  0.9414099999999999  0.36822999999999995  0.9168699999999997  1.0000
  H   H76       1.0  0.56917  0.39992999999999995  0.51248  1.0000
  H   H77       1.0  0.58607  0.27125  0.25221  1.0000
  H   H78       1.0  0.82811  0.27079  0.57961  1.0000
  H   H79       1.0  0.67299  0.30377  0.09638  1.0000
  H   H80       1.0  0.69116  0.13952999999999993  0.4345399999999999  1.0000
  C   C1        1.0  0.57735  0.8316999999999998  0.28296  1.0000
  C   C2        1.0  0.8116099999999999  0.71814  0.35044  1.0000
  C   C3        1.0  0.04786  0.91529  0.7708099999999999  1.0000
  C   C4        1.0  0.6336999999999998  0.54591  0.43333  1.0000
  C   C5        1.0  0.73262  0.69627  0.0077599999999999995  1.0000
  C   C6        1.0  0.95282  0.9489500000000001  0.58812  1.0000
  C   C7        1.0  0.6535299999999999  0.6193  0.005899999999999999  1.0000
  C   C8        1.0  0.9832599999999998  0.8871099999999998  0.72323  1.0000
  C   C9        1.0  0.9929899999999998  0.9340299999999998  0.6808999999999997  1.0000
  C   C10       1.0  0.9363799999999998  0.90391  0.63509  1.0000
  C   C11       1.0  0.75197  0.65777  0.37642  1.0000
  C   C12       1.0  0.7835299999999997  0.7683399999999999  0.4563299999999999  1.0000
  C   C13       1.0  0.61874  0.87583  0.24306  1.0000
  C   C14       1.0  0.6751799999999998  0.003460000000000002  0.30322  1.0000
  C   C15       1.0  0.85408  0.7979299999999999  0.37818  1.0000
  C   C16       1.0  0.52686  0.74374  0.27231  1.0000
  C   C17       1.0  0.70836  0.5728299999999998  0.3510199999999999  1.0000
  C   C18       1.0  0.7358899999999998  0.68508  0.4314099999999999  1.0000
  C   C19       1.0  0.4894399999999999  0.70299  0.31281999999999993  1.0000
  C   C20       1.0  0.65143  0.51783  0.37922  1.0000
  C   C21       1.0  0.63865  0.9656  0.34466  1.0000
  C   C22       1.0  0.58858  0.87776  0.3359  1.0000
  C   C23       1.0  0.67487  0.6282699999999999  0.45923  1.0000
  C   C24       1.0  0.50121  0.74833  0.36514  1.0000
  C   C25       1.0  0.54957  0.83389  0.37663  1.0000
  C   C26       1.0  0.8744899999999998  0.84285  0.01057  1.0000
  C   C27       1.0  0.91819  0.8089899999999998  0.7198  1.0000
  C   C28       1.0  0.87603  0.77029  0.96806  1.0000
  C   C29       1.0  0.80177  0.84368  0.05119  1.0000
  C   C30       1.0  0.7297499999999998  0.7707  0.04933  1.0000
  C   C31       1.0  0.8620499999999998  0.77898  0.67394  1.0000
  C   C32       1.0  0.8702499999999997  0.82703  0.63198  1.0000
  C   C33       1.0  0.80582  0.69613  0.96742  1.0000
  C   C34       1.0  0.94911  0.77388  0.9225599999999999  1.0000
  C   C35       1.0  0.80316  0.9229999999999999  0.09544  1.0000
  C   C36       1.0  0.79564  0.6943  0.6679499999999999  1.0000
  C   C37       1.0  0.07727  0.6683  0.21698  1.0000
  C   C38       1.0  0.31139999999999995  0.78195  0.14956  1.0000
  C   C39       1.0  0.54805  0.58454  0.72919  1.0000
  C   C40       1.0  0.13369  0.95432  0.06664  1.0000
  C   C41       1.0  0.23371999999999998  0.80386  0.49243999999999993  1.0000
  C   C42       1.0  0.45445  0.55094  0.91182  1.0000
  C   C43       1.0  0.15469  0.8809899999999999  0.49444999999999995  1.0000
  C   C44       1.0  0.48333999999999994  0.6125999999999999  0.7766899999999999  1.0000
  C   C45       1.0  0.4932  0.56563  0.8189899999999999  1.0000
  C   C46       1.0  0.4369899999999999  0.5957599999999998  0.8648599999999997  1.0000
  C   C47       1.0  0.2518  0.84236  0.12359  1.0000
  C   C48       1.0  0.28287  0.7316399999999998  0.04370999999999999  1.0000
  C   C49       1.0  0.11867999999999997  0.62412  0.25687  1.0000
  C   C50       1.0  0.17497999999999997  0.4965  0.19672  1.0000
  C   C51       1.0  0.35353  0.70202  0.12183  1.0000
  C   C52       1.0  0.02681  0.75626  0.22763999999999998  1.0000
  C   C53       1.0  0.20840999999999998  0.9274  0.14897  1.0000
  C   C54       1.0  0.23554  0.81502  0.06862  1.0000
  C   C55       1.0  0.98925  0.7970099999999999  0.18716  1.0000
  C   C56       1.0  0.15156  0.98243  0.12075  1.0000
  C   C57       1.0  0.13848  0.53443  0.15528  1.0000
  C   C58       1.0  0.08845  0.62229  0.16403999999999996  1.0000
  C   C59       1.0  0.17464999999999997  0.8718799999999999  0.04078  1.0000
  C   C60       1.0  0.0009500000000000001  0.75172  0.13483  1.0000
  C   C61       1.0  0.04938  0.6662099999999999  0.12332  1.0000
  C   C62       1.0  0.3757499999999999  0.65714  0.48925  1.0000
  C   C63       1.0  0.41866  0.6909099999999998  0.78022  1.0000
  C   C64       1.0  0.37764  0.72955  0.5318  1.0000
  C   C65       1.0  0.30287  0.65676  0.44872  1.0000
  C   C66       1.0  0.23068  0.7296  0.45077  1.0000
  C   C67       1.0  0.36247  0.72072  0.82609  1.0000
  C   C68       1.0  0.3704699999999999  0.67241  0.8679599999999998  1.0000
  C   C69       1.0  0.30734  0.80371  0.5326  1.0000
  C   C70       1.0  0.45121  0.7259900000000001  0.57717  1.0000
  C   C71       1.0  0.30402  0.57751  0.40454  1.0000
  C   C72       1.0  0.29665  0.80577  0.8321099999999999  1.0000
  C   C73       1.0  0.42266  0.1683  0.71704  1.0000
  C   C74       1.0  0.18838999999999995  0.28186  0.6495499999999997  1.0000
  C   C75       1.0  0.95215  0.08471  0.22919  1.0000
  C   C76       1.0  0.3662999999999999  0.45408  0.56667  1.0000
  C   C77       1.0  0.26739  0.30372999999999994  0.99224  1.0000
  C   C78       1.0  0.04719  0.05105  0.41188  1.0000
  C   C79       1.0  0.34648  0.3806999999999999  0.9940999999999998  1.0000
  C   C80       1.0  0.01674  0.11289  0.27677  1.0000
  C   C81       1.0  0.007019999999999999  0.06597  0.3191  1.0000
  C   C82       1.0  0.06362  0.09608999999999997  0.3649  1.0000
  C   C83       1.0  0.24803999999999998  0.34222  0.62357  1.0000
  C   C84       1.0  0.21647  0.23165  0.54367  1.0000
  C   C85       1.0  0.38127  0.12416  0.75694  1.0000
  C   C86       1.0  0.32482  0.9965399999999998  0.6967699999999998  1.0000
  C   C87       1.0  0.14593  0.20207  0.62181  1.0000
  C   C88       1.0  0.47315  0.25625  0.72769  1.0000
  C   C89       1.0  0.29164  0.42717  0.64897  1.0000
  C   C90       1.0  0.26412  0.31492  0.56859  1.0000
  C   C91       1.0  0.51056  0.297  0.68718  1.0000
  C   C92       1.0  0.34856999999999994  0.48216999999999993  0.62078  1.0000
  C   C93       1.0  0.36136  0.03439999999999996  0.6553399999999999  1.0000
  C   C94       1.0  0.41143  0.12224000000000002  0.6641  1.0000
  C   C95       1.0  0.3251299999999999  0.37171999999999994  0.54077  1.0000
  C   C96       1.0  0.49878999999999996  0.25166  0.63485  1.0000
  C   C97       1.0  0.45044  0.16611  0.6233699999999999  1.0000
  C   C98       1.0  0.12552  0.15715000000000007  0.98943  1.0000
  C   C99       1.0  0.08182  0.19101  0.2802  1.0000
  C   C100      1.0  0.12398  0.22971  0.03194  1.0000
  C   C101      1.0  0.19823  0.15631999999999996  0.9487999999999999  1.0000
  C   C102      1.0  0.27026  0.2293  0.95067  1.0000
  C   C103      1.0  0.13795  0.22102  0.32606  1.0000
  C   C104      1.0  0.12976  0.17295999999999997  0.3680199999999999  1.0000
  C   C105      1.0  0.19418  0.30386  0.03258  1.0000
  C   C106      1.0  0.0509  0.22611  0.07744  1.0000
  C   C107      1.0  0.19684  0.07699999999999999  0.90456  1.0000
  C   C108      1.0  0.20437  0.3057  0.33205  1.0000
  C   C109      1.0  0.9227399999999999  0.3317  0.78302  1.0000
  C   C110      1.0  0.68861  0.21805  0.85043  1.0000
  C   C111      1.0  0.45196  0.41545  0.27081  1.0000
  C   C112      1.0  0.86631  0.045680000000000026  0.9333499999999999  1.0000
  C   C113      1.0  0.76629  0.19613  0.50756  1.0000
  C   C114      1.0  0.54555  0.44906  0.08816999999999998  1.0000
  C   C115      1.0  0.84532  0.11900999999999996  0.50555  1.0000
  C   C116      1.0  0.51667  0.3874000000000001  0.22331  1.0000
  C   C117      1.0  0.50681  0.43437  0.18100999999999998  1.0000
  C   C118      1.0  0.56301  0.40423  0.13513  1.0000
  C   C119      1.0  0.74821  0.15763999999999997  0.87641  1.0000
  C   C120      1.0  0.71714  0.26836  0.95629  1.0000
  C   C121      1.0  0.88133  0.37587  0.74312  1.0000
  C   C122      1.0  0.82503  0.50349  0.8032799999999999  1.0000
  C   C123      1.0  0.64648  0.29798  0.87817  1.0000
  C   C124      1.0  0.9732  0.24374  0.77235  1.0000
  C   C125      1.0  0.7916  0.0726  0.85103  1.0000
  C   C126      1.0  0.7644699999999998  0.18497999999999995  0.93138  1.0000
  C   C127      1.0  0.010759999999999997  0.20298  0.81284  1.0000
  C   C128      1.0  0.84844  0.017569999999999995  0.87925  1.0000
  C   C129      1.0  0.86153  0.46557  0.84471  1.0000
  C   C130      1.0  0.91156  0.3777099999999999  0.83596  1.0000
  C   C131      1.0  0.82535  0.12812  0.95922  1.0000
  C   C132      1.0  0.99906  0.24828  0.86517  1.0000
  C   C133      1.0  0.95062  0.33379  0.8766699999999997  1.0000
  C   C134      1.0  0.6242599999999999  0.34286  0.51075  1.0000
  C   C135      1.0  0.58135  0.30909  0.21977  1.0000
  C   C136      1.0  0.6223699999999999  0.27045  0.4682  1.0000
  C   C137      1.0  0.6971399999999999  0.34324  0.55128  1.0000
  C   C138      1.0  0.76933  0.2703899999999999  0.54923  1.0000
  C   C139      1.0  0.63754  0.27927  0.17391  1.0000
  C   C140      1.0  0.62954  0.32759  0.13204  1.0000
  C   C141      1.0  0.6926699999999999  0.19629  0.46739  1.0000
  C   C142      1.0  0.5488  0.27401  0.42283  1.0000
  C   C143      1.0  0.69599  0.42248  0.59545  1.0000
  C   C144      1.0  0.7033499999999999  0.19423  0.16789  1.0000
  N   N1        1.0  0.6663  0.95838  0.25261  1.0000
  N   N2        1.0  0.8412299999999998  0.82255  0.43105999999999994  1.0000
  N   N3        1.0  0.16618999999999998  0.54155  0.24735  1.0000
  N   N4        1.0  0.34041  0.67733  0.06897  1.0000
  N   N5        1.0  0.33369999999999994  0.04162000000000001  0.74739  1.0000
  N   N6        1.0  0.15878  0.17744  0.56894  1.0000
  N   N7        1.0  0.83381  0.4584499999999999  0.7526499999999999  1.0000
  N   N8        1.0  0.65959  0.32266  0.93103  1.0000
  O   O1        1.0  0.73557  0.92198  0.13237  1.0000
  O   O2        1.0  0.80374  0.64217  0.70272  1.0000
  O   O3        1.0  0.01063  0.8476999999999999  0.93004  1.0000
  O   O4        1.0  0.03223  0.8699999999999999  0.8078099999999998  1.0000
  O   O5        1.0  0.11456999999999999  0.98101  0.7708  1.0000
  O   O6        1.0  0.9048799999999998  0.9126999999999998  0.54662  1.0000
  O   O7        1.0  0.56856  0.63936  0.03115  1.0000
  O   O8        1.0  0.01581  0.0176  0.59375  1.0000
  O   O9        1.0  0.6777999999999998  0.54104  0.97895  1.0000
  O   O10       1.0  0.7364499999999999  0.67993  0.6278199999999999  1.0000
  O   O11       1.0  0.8724999999999998  0.98522  0.09395  1.0000
  O   O12       1.0  0.9471  0.71336  0.8830999999999999  1.0000
  O   O13       1.0  0.23741  0.57875  0.36725  1.0000
  O   O14       1.0  0.30601  0.8578099999999997  0.7973399999999998  1.0000
  O   O15       1.0  0.51262  0.65213  0.56968  1.0000
  O   O16       1.0  0.53406  0.63042  0.69235  1.0000
  O   O17       1.0  0.61371  0.51809  0.72917  1.0000
  O   O18       1.0  0.40711  0.5874799999999999  0.95342  1.0000
  O   O19       1.0  0.06931  0.86079  0.46944  1.0000
  O   O20       1.0  0.51752  0.48236999999999997  0.9061399999999997  1.0000
  O   O21       1.0  0.17946  0.95932  0.52117  1.0000
  O   O22       1.0  0.23709999999999995  0.82057  0.87207  1.0000
  O   O23       1.0  0.37213  0.51454  0.40631  1.0000
  O   O24       1.0  0.44963  0.7866199999999999  0.61659  1.0000
  O   O25       1.0  0.26444  0.07801  0.86763  1.0000
  O   O26       1.0  0.19627  0.35782  0.29727  1.0000
  O   O27       1.0  0.9893799999999999  0.15229  0.06996  1.0000
  O   O28       1.0  0.96778  0.12999000000000002  0.19219  1.0000
  O   O29       1.0  0.88544  0.018980000000000004  0.2292  1.0000
  O   O30       1.0  0.09513  0.0873  0.45337  1.0000
  O   O31       1.0  0.43144  0.36063  0.96884  1.0000
  O   O32       1.0  0.9842  0.9823899999999998  0.40625  1.0000
  O   O33       1.0  0.32219999999999993  0.45896  0.02105  1.0000
  O   O34       1.0  0.26356  0.32006999999999997  0.3721699999999999  1.0000
  O   O35       1.0  0.12751  0.014769999999999922  0.9060499999999998  1.0000
  O   O36       1.0  0.05290999999999999  0.28664  0.11689999999999998  1.0000
  O   O37       1.0  0.76259  0.42125  0.63275  1.0000
  O   O38       1.0  0.6939899999999999  0.14218  0.20265  1.0000
  O   O39       1.0  0.4873899999999999  0.34786  0.43032  1.0000
  O   O40       1.0  0.46595  0.36958  0.30764  1.0000
  O   O41       1.0  0.3862899999999999  0.48190999999999995  0.27083  1.0000
  O   O42       1.0  0.5929  0.41252  0.04658  1.0000
  O   O43       1.0  0.9307  0.13921  0.53056  1.0000
  O   O44       1.0  0.48248999999999986  0.51763  0.09386  1.0000
  O   O45       1.0  0.82054  0.04068000000000001  0.47882  1.0000
  O   O46       1.0  0.7628999999999999  0.17942  0.12792  1.0000
  O   O47       1.0  0.62787  0.4854499999999999  0.59369  1.0000
  O   O48       1.0  0.55037  0.21336999999999998  0.3834099999999999  1.0000
