data_image0
_chemical_formula_structural       Mn8H92C108N16O24
_chemical_formula_sum              "Mn8 H92 C108 N16 O24"
_cell_length_a       9.82293
_cell_length_b       15.96066
_cell_length_c       27.097670000000004
_cell_angle_alpha    89.97864
_cell_angle_beta     92.96104000000001
_cell_angle_gamma    89.97173

_space_group_name_H-M_alt    "P 1"
_space_group_IT_number       1

loop_
  _space_group_symop_operation_xyz
  'x, y, z'

loop_
  _atom_site_type_symbol
  _atom_site_label
  _atom_site_symmetry_multiplicity
  _atom_site_fract_x
  _atom_site_fract_y
  _atom_site_fract_z
  _atom_site_occupancy
  Mn  Mn1       1.0  0.38214  0.17304  0.24691  1.0000
  Mn  Mn2       1.0  0.9578300000000001  0.99811  0.24959  1.0000
  Mn  Mn3       1.0  0.61758  0.67336  0.25359  1.0000
  Mn  Mn4       1.0  0.04142  0.49858  0.25021  1.0000
  Mn  Mn5       1.0  0.61583  0.82618  0.75326  1.0000
  Mn  Mn6       1.0  0.04258999999999998  0.99995  0.75023  1.0000
  Mn  Mn7       1.0  0.38082  0.32795999999999986  0.74659  1.0000
  Mn  Mn8       1.0  0.9582000000000002  0.50271  0.74985  1.0000
  H   H1        1.0  0.35627  0.97406  0.25333  1.0000
  H   H2        1.0  0.30777  0.3803  0.25042  1.0000
  H   H3        1.0  0.59755  0.01126  0.24028  1.0000
  H   H4        1.0  0.19418  0.18860999999999994  0.32924  1.0000
  H   H5        1.0  0.61706  0.19119  0.33095  1.0000
  H   H6        1.0  0.19304000000000002  0.21225  0.41866  1.0000
  H   H7        1.0  0.63479  0.21504999999999994  0.42119  1.0000
  H   H8        1.0  0.53329  0.2401  0.49664  1.0000
  H   H9        1.0  0.21973000000000004  0.2548  0.49857  1.0000
  H   H10       1.0  0.12985  0.2767699999999999  0.57943  1.0000
  H   H11       1.0  0.5689300000000002  0.28681  0.56879  1.0000
  H   H12       1.0  0.1675  0.30221  0.66863  1.0000
  H   H13       1.0  0.5874  0.31029  0.65839  1.0000
  H   H14       1.0  0.90939  0.14267999999999995  0.32618  1.0000
  H   H15       1.0  0.03649  0.89479  0.33416  1.0000
  H   H16       1.0  0.9283  0.15828  0.41708  1.0000
  H   H17       1.0  0.05517000000000001  0.89727  0.42499000000000003  1.0000
  H   H18       1.0  0.96992  0.09537  0.49838  1.0000
  H   H19       1.0  0.02187  0.90427  0.00584  1.0000
  H   H20       1.0  0.02955  0.84838  0.08769  1.0000
  H   H21       1.0  0.93931  0.11379  0.07034  1.0000
  H   H22       1.0  0.004120000000000002  0.867  0.17737  1.0000
  H   H23       1.0  0.91166  0.11945999999999997  0.16006  1.0000
  H   H24       1.0  0.64723  0.47397  0.24609  1.0000
  H   H25       1.0  0.69247  0.87905  0.2495  1.0000
  H   H26       1.0  0.39757  0.51096  0.25956  1.0000
  H   H27       1.0  0.80619  0.68864  0.1709  1.0000
  H   H28       1.0  0.38345000000000007  0.69091  0.16936  1.0000
  H   H29       1.0  0.80758  0.71246  0.08169000000000001  1.0000
  H   H30       1.0  0.36491  0.71499  0.07933  1.0000
  H   H31       1.0  0.46677  0.74006  0.00388  1.0000
  H   H32       1.0  0.78049  0.75476  0.0015  1.0000
  H   H33       1.0  0.86967  0.77667  0.92019  1.0000
  H   H34       1.0  0.43059  0.7866  0.93162  1.0000
  H   H35       1.0  0.83073  0.80241  0.8311000000000001  1.0000
  H   H36       1.0  0.41106  0.81074  0.84219  1.0000
  H   H37       1.0  0.09103  0.64262  0.17482  1.0000
  H   H38       1.0  0.9639500000000001  0.39418  0.16666000000000003  1.0000
  H   H39       1.0  0.07092  0.65817  0.08405  1.0000
  H   H40       1.0  0.94455  0.3976399999999999  0.07599  1.0000
  H   H41       1.0  0.029280000000000004  0.5951  0.0023599999999999997  1.0000
  H   H42       1.0  0.97915  0.40477999999999986  0.49313  1.0000
  H   H43       1.0  0.9707100000000001  0.3483799999999999  0.41124000000000005  1.0000
  H   H44       1.0  0.06079  0.61364  0.42826  1.0000
  H   H45       1.0  0.99632  0.36648999999999987  0.32166  1.0000
  H   H46       1.0  0.0887  0.61937  0.33868  1.0000
  H   H47       1.0  0.64722  0.02693  0.74656  1.0000
  H   H48       1.0  0.69302  0.6185999999999998  0.74963  1.0000
  H   H49       1.0  0.39308  0.99017  0.7594299999999999  1.0000
  H   H50       1.0  0.80532  0.8115  0.67081  1.0000
  H   H51       1.0  0.38239  0.809  0.66887  1.0000
  H   H52       1.0  0.80694  0.78768  0.58151  1.0000
  H   H53       1.0  0.36487  0.78493  0.57874  1.0000
  H   H54       1.0  0.46686000000000005  0.75994  0.50339  1.0000
  H   H55       1.0  0.78036  0.7452599999999998  0.50127  1.0000
  H   H56       1.0  0.8695300000000001  0.72304  0.42017  1.0000
  H   H57       1.0  0.4309  0.71308  0.43124  1.0000
  H   H58       1.0  0.83135  0.69748  0.33094000000000007  1.0000
  H   H59       1.0  0.4113800000000001  0.6895199999999998  0.34172  1.0000
  H   H60       1.0  0.09194000000000001  0.85811  0.6752100000000001  1.0000
  H   H61       1.0  0.9650600000000001  0.10686  0.66669  1.0000
  H   H62       1.0  0.07068  0.84231  0.5847  1.0000
  H   H63       1.0  0.94433  0.10287  0.57633  1.0000
  H   H64       1.0  0.03037999999999999  0.9050099999999998  0.5028  1.0000
  H   H65       1.0  0.9784200000000001  0.09488  0.9925600000000001  1.0000
  H   H66       1.0  0.9702000000000001  0.15145  0.91069  1.0000
  H   H67       1.0  0.060500000000000026  0.88594  0.92757  1.0000
  H   H68       1.0  0.9967900000000001  0.13385  0.82152  1.0000
  H   H69       1.0  0.08949  0.8806499999999998  0.83833  1.0000
  H   H70       1.0  0.3589600000000001  0.5239399999999997  0.75356  1.0000
  H   H71       1.0  0.30793  0.12116  0.75059  1.0000
  H   H72       1.0  0.59622  0.4891  0.74017  1.0000
  H   H73       1.0  0.19226  0.31128  0.8295  1.0000
  H   H74       1.0  0.61484  0.30908  0.83038  1.0000
  H   H75       1.0  0.19196  0.28737  0.91871  1.0000
  H   H76       1.0  0.63429  0.2848  0.92048  1.0000
  H   H77       1.0  0.53333  0.26009  0.99627  1.0000
  H   H78       1.0  0.21972  0.24521  0.9987  1.0000
  H   H79       1.0  0.13011  0.22324  0.07979  1.0000
  H   H80       1.0  0.56961  0.21328999999999995  0.0686  1.0000
  H   H81       1.0  0.16903  0.19753  0.16898  1.0000
  H   H82       1.0  0.58855  0.18932  0.15814  1.0000
  H   H83       1.0  0.9105500000000001  0.35675  0.82634  1.0000
  H   H84       1.0  0.03801  0.60455  0.83404  1.0000
  H   H85       1.0  0.9280300000000001  0.3417  0.91733  1.0000
  H   H86       1.0  0.05461000000000002  0.60228  0.92493  1.0000
  H   H87       1.0  0.9708600000000001  0.4046099999999999  0.99866  1.0000
  H   H88       1.0  0.020940000000000004  0.59555  0.50589  1.0000
  H   H89       1.0  0.02909  0.65174  0.58769  1.0000
  H   H90       1.0  0.9388200000000001  0.38628  0.57023  1.0000
  H   H91       1.0  0.0049000000000000024  0.63263  0.67746  1.0000
  H   H92       1.0  0.9125200000000001  0.3804599999999999  0.6601  1.0000
  C   C1        1.0  0.25251  0.99963  0.25123  1.0000
  C   C2        1.0  0.21577  0.3405499999999999  0.2476  1.0000
  C   C3        1.0  0.65396  0.07108  0.24456  1.0000
  C   C4        1.0  0.28968  0.19581  0.35106  1.0000
  C   C5        1.0  0.52592  0.19709  0.35192  1.0000
  C   C6        1.0  0.29032  0.20993  0.40135  1.0000
  C   C7        1.0  0.53455  0.21082  0.40230000000000005  1.0000
  C   C8        1.0  0.41545  0.22009  0.42943  1.0000
  C   C9        1.0  0.4283  0.23898999999999995  0.48134  1.0000
  C   C10       1.0  0.3259  0.25632  0.51263  1.0000
  C   C11       1.0  0.34627  0.27569  0.56435  1.0000
  C   C12       1.0  0.23378000000000002  0.28323  0.5949  1.0000
  C   C13       1.0  0.47622000000000003  0.2879799999999999  0.58899  1.0000
  C   C14       1.0  0.25344  0.29761  0.64499  1.0000
  C   C15       1.0  0.48796000000000006  0.30194  0.63932  1.0000
  C   C16       1.0  0.9422500000000001  0.0904  0.34985  1.0000
  C   C17       1.0  0.012400000000000001  0.95138  0.35439  1.0000
  C   C18       1.0  0.95116  0.09776  0.40072  1.0000
  C   C19       1.0  0.02115000000000001  0.95344  0.40523  1.0000
  C   C20       1.0  0.98814  0.02762  0.43136  1.0000
  C   C21       1.0  0.9890900000000001  0.03291  0.48405  1.0000
  C   C22       1.0  0.0032300000000000002  0.96866  0.01716  1.0000
  C   C23       1.0  0.9865600000000001  0.9794  0.06891  1.0000
  C   C24       1.0  0.003260000000000002  0.90993  0.10176  1.0000
  C   C25       1.0  0.95323  0.05671  0.09193  1.0000
  C   C26       1.0  0.9893400000000001  0.91925  0.15178999999999998  1.0000
  C   C27       1.0  0.9385600000000001  0.060859999999999984  0.14222  1.0000
  C   C28       1.0  0.75023  0.50039  0.24976000000000004  1.0000
  C   C29       1.0  0.78534  0.8399499999999998  0.25237  1.0000
  C   C30       1.0  0.34174  0.57115  0.25535  1.0000
  C   C31       1.0  0.71061  0.6955199999999998  0.14913000000000004  1.0000
  C   C32       1.0  0.47441000000000005  0.69666  0.14831  1.0000
  C   C33       1.0  0.7100300000000002  0.70987  0.09888  1.0000
  C   C34       1.0  0.46561  0.71065  0.09796  1.0000
  C   C35       1.0  0.5848  0.72002  0.07078  1.0000
  C   C36       1.0  0.57195  0.739  0.01893  1.0000
  C   C37       1.0  0.67422  0.7562699999999998  0.98749  1.0000
  C   C38       1.0  0.6534399999999999  0.77554  0.9357699999999999  1.0000
  C   C39       1.0  0.76547  0.78316  0.90494  1.0000
  C   C40       1.0  0.52313  0.7878999999999998  0.9113  1.0000
  C   C41       1.0  0.7451200000000001  0.79803  0.8549  1.0000
  C   C42       1.0  0.51078  0.80245  0.8610300000000001  1.0000
  C   C43       1.0  0.05854999999999999  0.59017  0.15131999999999998  1.0000
  C   C44       1.0  0.98846  0.45081  0.14663  1.0000
  C   C45       1.0  0.04851  0.59765  0.1005  1.0000
  C   C46       1.0  0.97896  0.45351999999999987  0.09588  1.0000
  C   C47       1.0  0.01161  0.5277699999999997  0.06966  1.0000
  C   C48       1.0  0.010549999999999999  0.53282  0.01705  1.0000
  C   C49       1.0  0.9972100000000002  0.46912  0.48156  1.0000
  C   C50       1.0  0.013730000000000008  0.47941  0.42988  1.0000
  C   C51       1.0  0.9972000000000001  0.40987  0.39709  1.0000
  C   C52       1.0  0.04699  0.55659  0.40662000000000004  1.0000
  C   C53       1.0  0.011410000000000003  0.41877  0.34709  1.0000
  C   C54       1.0  0.06212  0.56068  0.35639  1.0000
  C   C55       1.0  0.75  0.99949  0.74883  1.0000
  C   C56       1.0  0.7836  0.65968  0.75239  1.0000
  C   C57       1.0  0.34021  0.92885  0.75528  1.0000
  C   C58       1.0  0.70983  0.8044599999999997  0.64898  1.0000
  C   C59       1.0  0.47358  0.80323  0.64794  1.0000
  C   C60       1.0  0.70947  0.79006  0.59872  1.0000
  C   C61       1.0  0.46520000000000006  0.7892  0.59758  1.0000
  C   C62       1.0  0.5845  0.77991  0.57049  1.0000
  C   C63       1.0  0.57189  0.761  0.51861  1.0000
  C   C64       1.0  0.6741799999999999  0.74372  0.48719  1.0000
  C   C65       1.0  0.6534800000000001  0.7242499999999997  0.43548  1.0000
  C   C66       1.0  0.7656  0.71661  0.40474000000000004  1.0000
  C   C67       1.0  0.5233500000000001  0.7119399999999998  0.41093  1.0000
  C   C68       1.0  0.74559  0.70205  0.35468  1.0000
  C   C69       1.0  0.51104  0.69779  0.36064  1.0000
  C   C70       1.0  0.059480000000000005  0.91062  0.65172  1.0000
  C   C71       1.0  0.9895299999999999  0.05001  0.64688  1.0000
  C   C72       1.0  0.048860000000000015  0.9030399999999997  0.60094  1.0000
  C   C73       1.0  0.97936  0.047  0.59615  1.0000
  C   C74       1.0  0.01197  0.97273  0.5699  1.0000
  C   C75       1.0  0.010870000000000003  0.9673699999999997  0.51729  1.0000
  C   C76       1.0  0.99719  0.03051  0.9812500000000001  1.0000
  C   C77       1.0  0.013759999999999994  0.0203  0.92959  1.0000
  C   C78       1.0  0.9972799999999999  0.08988999999999997  0.89673  1.0000
  C   C79       1.0  0.0472  0.9433  0.90616  1.0000
  C   C80       1.0  0.011789999999999991  0.08126  0.84675  1.0000
  C   C81       1.0  0.06264  0.93935  0.85597  1.0000
  C   C82       1.0  0.25322  0.50062  0.75047  1.0000
  C   C83       1.0  0.2143  0.15951  0.74766  1.0000
  C   C84       1.0  0.6530000000000001  0.42933  0.7446  1.0000
  C   C85       1.0  0.28807  0.30432  0.85113  1.0000
  C   C86       1.0  0.5242  0.30321  0.8516  1.0000
  C   C87       1.0  0.28928  0.29011  0.90142  1.0000
  C   C88       1.0  0.5335200000000001  0.28933  0.90198  1.0000
  C   C89       1.0  0.41474  0.27997  0.9293200000000001  1.0000
  C   C90       1.0  0.42810000000000004  0.2611099999999999  0.98122  1.0000
  C   C91       1.0  0.3260100000000001  0.24377  0.012660000000000001  1.0000
  C   C92       1.0  0.34667  0.22449  0.0644  1.0000
  C   C93       1.0  0.23432  0.21684  0.09507  1.0000
  C   C94       1.0  0.4769300000000001  0.21212  0.08888  1.0000
  C   C95       1.0  0.25455  0.20216  0.14514  1.0000
  C   C96       1.0  0.48898  0.1978  0.13919  1.0000
  C   C97       1.0  0.94325  0.40907  0.84993  1.0000
  C   C98       1.0  0.013579999999999998  0.54803  0.8543  1.0000
  C   C99       1.0  0.9514899999999998  0.40194  0.90079  1.0000
  C   C100      1.0  0.021379999999999996  0.5461  0.90513  1.0000
  C   C101      1.0  0.98846  0.47204  0.93135  1.0000
  C   C102      1.0  0.98948  0.46695  0.98404  1.0000
  C   C103      1.0  0.00286  0.53116  0.51725  1.0000
  C   C104      1.0  0.98645  0.52057  0.56898  1.0000
  C   C105      1.0  0.0032199999999999907  0.5900699999999998  0.6017299999999999  1.0000
  C   C106      1.0  0.9532100000000001  0.44322  0.5919  1.0000
  C   C107      1.0  0.98995  0.5805799999999998  0.65178  1.0000
  C   C108      1.0  0.9391800000000001  0.4389999999999999  0.6422100000000001  1.0000
  N   N1        1.0  0.40497000000000005  0.19041  0.3253  1.0000
  N   N2        1.0  0.37893  0.30588  0.66834  1.0000
  N   N3        1.0  0.97195  0.0182  0.32584  1.0000
  N   N4        1.0  0.9567400000000001  0.9937599999999998  0.17287  1.0000
  N   N5        1.0  0.5954  0.68968  0.17497  1.0000
  N   N6        1.0  0.61931  0.80706  0.8317899999999999  1.0000
  N   N7        1.0  0.02971  0.51743  0.17547  1.0000
  N   N8        1.0  0.04425  0.49325999999999987  0.32566  1.0000
  N   N9        1.0  0.59434  0.81031  0.67465  1.0000
  N   N10       1.0  0.6198  0.69362  0.33147  1.0000
  N   N11       1.0  0.03133  0.9834799999999998  0.67587  1.0000
  N   N12       1.0  0.04489000000000004  0.006809999999999999  0.8251500000000002  1.0000
  N   N13       1.0  0.40293000000000007  0.30997  0.8251500000000002  1.0000
  N   N14       1.0  0.38021  0.19355  0.16831  1.0000
  N   N15       1.0  0.9738300000000001  0.48104999999999987  0.82582  1.0000
  N   N16       1.0  0.9577399999999999  0.50604  0.67282  1.0000
  O   O1        1.0  0.15702  0.9473699999999998  0.25268  1.0000
  O   O2        1.0  0.23512000000000002  0.07841  0.24749  1.0000
  O   O3        1.0  0.09979  0.37512  0.24461000000000002  1.0000
  O   O4        1.0  0.2297  0.26208  0.24759  1.0000
  O   O5        1.0  0.58445  0.13775  0.24726  1.0000
  O   O6        1.0  0.78283  0.07079  0.24654  1.0000
  O   O7        1.0  0.84701  0.44863  0.24732  1.0000
  O   O8        1.0  0.76578  0.57871  0.25583  1.0000
  O   O9        1.0  0.90048  0.87531  0.25551  1.0000
  O   O10       1.0  0.77328  0.76129  0.2523  1.0000
  O   O11       1.0  0.41146  0.63768  0.25267  1.0000
  O   O12       1.0  0.21209  0.57083  0.25361  1.0000
  O   O13       1.0  0.84827  0.050299999999999984  0.74732  1.0000
  O   O14       1.0  0.76425  0.9208699999999997  0.75261  1.0000
  O   O15       1.0  0.9007800000000001  0.62671  0.75535  1.0000
  O   O16       1.0  0.7667800000000001  0.7380499999999998  0.7523600000000001  1.0000
  O   O17       1.0  0.41252  0.86345  0.75253  1.0000
  O   O18       1.0  0.2108  0.92618  0.75376  1.0000
  O   O19       1.0  0.15953999999999996  0.55412  0.75264  1.0000
  O   O20       1.0  0.23446  0.4220299999999999  0.74511  1.0000
  O   O21       1.0  0.10026  0.12237  0.74461  1.0000
  O   O22       1.0  0.22499000000000002  0.23809  0.74759  1.0000
  O   O23       1.0  0.5853399999999999  0.36183  0.74726  1.0000
  O   O24       1.0  0.78183  0.431  0.74679  1.0000
