data_image0
_chemical_formula_structural       Cd6B4H180C148N4O28
_chemical_formula_sum              "Cd6 B4 H180 C148 N4 O28"
_cell_length_a       14.98279
_cell_length_b       15.266980000000002
_cell_length_c       25.577130000000004
_cell_angle_alpha    90.04612000000002
_cell_angle_beta     93.86007
_cell_angle_gamma    89.94057

_space_group_name_H-M_alt    "P 1"
_space_group_IT_number       1

loop_
  _space_group_symop_operation_xyz
  'x, y, z'

loop_
  _atom_site_type_symbol
  _atom_site_label
  _atom_site_symmetry_multiplicity
  _atom_site_fract_x
  _atom_site_fract_y
  _atom_site_fract_z
  _atom_site_occupancy
  Cd  Cd1       1.0  0.36226  0.65254  0.06823  1.0000
  Cd  Cd2       1.0  0.86151  0.8483  0.56852  1.0000
  Cd  Cd3       1.0  0.13849  0.15169999999999997  0.43148000000000003  1.0000
  Cd  Cd4       1.0  0.63774  0.34747  0.93177  1.0000
  Cd  Cd5       1.0  0.5  0.5  0.0  1.0000
  Cd  Cd6       1.0  0.0  0.0  0.5  1.0000
  B   B1        1.0  0.61089  0.19094  0.26106  1.0000
  B   B2        1.0  0.38911000000000007  0.80907  0.73894  1.0000
  B   B3        1.0  0.10985000000000004  0.30909  0.7610800000000001  1.0000
  B   B4        1.0  0.89016  0.69091  0.23892  1.0000
  H   H1        1.0  0.89119  0.51942  0.14559  1.0000
  H   H2        1.0  0.45751000000000003  0.21108  0.03789  1.0000
  H   H3        1.0  0.96957  0.83537  0.25984  1.0000
  H   H4        1.0  0.30506  0.91313  0.7960400000000001  1.0000
  H   H5        1.0  0.61009  0.3151  0.33144000000000007  1.0000
  H   H6        1.0  0.70807  0.4463099999999999  0.12911  1.0000
  H   H7        1.0  0.29193  0.5537  0.8709000000000002  1.0000
  H   H8        1.0  0.75837  0.05723999999999999  0.4645  1.0000
  H   H9        1.0  0.35515  0.016699999999999993  0.39961  1.0000
  H   H10       1.0  0.3102  0.4029199999999999  0.70012  1.0000
  H   H11       1.0  0.030170000000000006  0.8884299999999998  0.21168  1.0000
  H   H12       1.0  0.98368  0.39503  0.56327  1.0000
  H   H13       1.0  0.02185000000000002  0.95607  0.68164  1.0000
  H   H14       1.0  0.24553  0.77172  0.43147  1.0000
  H   H15       1.0  0.82654  0.08405999999999998  0.6474  1.0000
  H   H16       1.0  0.69886  0.79027  0.27804  1.0000
  H   H17       1.0  0.80165  0.2901  0.22171000000000002  1.0000
  H   H18       1.0  0.38495  0.33598  0.11266000000000002  1.0000
  H   H19       1.0  0.28929  0.3327  0.27652  1.0000
  H   H20       1.0  0.24924  0.60668  0.79023  1.0000
  H   H21       1.0  0.24175  0.26187  0.9532  1.0000
  H   H22       1.0  0.90118  0.75385  0.1106  1.0000
  H   H23       1.0  0.6746800000000001  0.8058399999999998  0.07117  1.0000
  H   H24       1.0  0.26622  0.49723  0.72885  1.0000
  H   H25       1.0  0.85472  0.20369  0.45728  1.0000
  H   H26       1.0  0.51825  0.94471  0.8529600000000002  1.0000
  H   H27       1.0  0.64519  0.7030999999999997  0.04308  1.0000
  H   H28       1.0  0.31608  0.66507  0.61311  1.0000
  H   H29       1.0  0.5657  0.55948  0.87625  1.0000
  H   H30       1.0  0.95869  0.2893  0.53752  1.0000
  H   H31       1.0  0.06773000000000001  0.94739  0.74692  1.0000
  H   H32       1.0  0.7188000000000002  0.32663  0.26198  1.0000
  H   H33       1.0  0.10013  0.6686  0.40995000000000004  1.0000
  H   H34       1.0  0.010130000000000005  0.42903  0.71444  1.0000
  H   H35       1.0  0.74737  0.7048099999999999  0.66304  1.0000
  H   H36       1.0  0.6839200000000002  0.33493  0.38689000000000007  1.0000
  H   H37       1.0  0.04131  0.7107  0.46248  1.0000
  H   H38       1.0  0.14737  0.5164  0.10103  1.0000
  H   H39       1.0  0.10881000000000003  0.48058999999999996  0.85441  1.0000
  H   H40       1.0  0.64485  0.9832999999999997  0.60039  1.0000
  H   H41       1.0  0.74195  0.55673  0.03571  1.0000
  H   H42       1.0  0.65151  0.09514  0.48277000000000003  1.0000
  H   H43       1.0  0.8158400000000002  0.83415  0.11323000000000001  1.0000
  H   H44       1.0  0.5992200000000002  0.25408  0.38905  1.0000
  H   H45       1.0  0.4677299999999999  0.03717  0.68866  1.0000
  H   H46       1.0  0.91327  0.1528  0.731  1.0000
  H   H47       1.0  0.25857  0.76156  0.54697  1.0000
  H   H48       1.0  0.39957000000000004  0.16891  0.09066  1.0000
  H   H49       1.0  0.08673  0.8472  0.269  1.0000
  H   H50       1.0  0.30858  0.0113  0.49758000000000013  1.0000
  H   H51       1.0  0.7509900000000005  0.20535  0.8361300000000003  1.0000
  H   H52       1.0  0.79104  0.9466  0.37074  1.0000
  H   H53       1.0  0.89396  0.96995  0.29435  1.0000
  H   H54       1.0  0.47745  0.45561  0.81761  1.0000
  H   H55       1.0  0.19547  0.34456  0.10828  1.0000
  H   H56       1.0  0.89987  0.3314  0.5900500000000001  1.0000
  H   H57       1.0  0.69142  0.98871  0.50242  1.0000
  H   H58       1.0  0.32532000000000005  0.19416  0.9288400000000001  1.0000
  H   H59       1.0  0.48264  0.10507  0.06315  1.0000
  H   H60       1.0  0.85138  0.68636  0.95459  1.0000
  H   H61       1.0  0.030429999999999985  0.16462999999999994  0.74016  1.0000
  H   H62       1.0  0.70607  0.86602  0.37264  1.0000
  H   H63       1.0  0.25263  0.2951999999999999  0.33696  1.0000
  H   H64       1.0  0.53121  0.33495  0.24017  1.0000
  H   H65       1.0  0.34849  0.9048699999999997  0.51723  1.0000
  H   H66       1.0  0.29393  0.13399  0.62736  1.0000
  H   H67       1.0  0.52958  0.01023  0.59992  1.0000
  H   H68       1.0  0.96921  0.46259999999999996  0.18820000000000006  1.0000
  H   H69       1.0  0.18416  0.16585999999999995  0.88677  1.0000
  H   H70       1.0  0.61505  0.66403  0.88734  1.0000
  H   H71       1.0  0.7445500000000002  0.7275599999999999  0.9319300000000003  1.0000
  H   H72       1.0  0.10539  0.45435  0.15272  1.0000
  H   H73       1.0  0.96983  0.11158  0.78832  1.0000
  H   H74       1.0  0.4893200000000001  0.92902  0.78544  1.0000
  H   H75       1.0  0.51068  0.07099  0.21457  1.0000
  H   H76       1.0  0.18832  0.90361  0.79974  1.0000
  H   H77       1.0  0.65837  0.62848  0.6641400000000001  1.0000
  H   H78       1.0  0.21826  0.1735  0.76223  1.0000
  H   H79       1.0  0.38473  0.9706399999999997  0.7142900000000002  1.0000
  H   H80       1.0  0.98988  0.5709799999999998  0.28557  1.0000
  H   H81       1.0  0.39352000000000004  0.53029  0.7936900000000002  1.0000
  H   H82       1.0  0.7935500000000002  0.36619  0.12691  1.0000
  H   H83       1.0  0.78174  0.8265  0.23777  1.0000
  H   H84       1.0  0.032060000000000005  0.48977  0.09995000000000002  1.0000
  H   H85       1.0  0.46879  0.6650599999999998  0.75983  1.0000
  H   H86       1.0  0.58326  0.8749399999999999  0.81536  1.0000
  H   H87       1.0  0.48175  0.0553  0.14704  1.0000
  H   H88       1.0  0.21187000000000006  0.83279  0.22408  1.0000
  H   H89       1.0  0.14862  0.3136499999999999  0.04541  1.0000
  H   H90       1.0  0.8092100000000001  0.48825  0.9977400000000002  1.0000
  H   H91       1.0  0.17346  0.91595  0.3526  1.0000
  H   H92       1.0  0.01633  0.60497  0.43673  1.0000
  H   H93       1.0  0.75076  0.39331999999999995  0.20977  1.0000
  H   H94       1.0  0.40078  0.74592  0.6109500000000001  1.0000
  H   H95       1.0  0.47042  0.9897699999999998  0.40008  1.0000
  H   H96       1.0  0.71071  0.6673099999999997  0.7234800000000002  1.0000
  H   H97       1.0  0.19354  0.41299  0.70388  1.0000
  H   H98       1.0  0.6064800000000002  0.46972  0.20631  1.0000
  H   H99       1.0  0.76752  0.00277  0.2294  1.0000
  H   H100      1.0  0.3964  0.9548  0.34755  1.0000
  H   H101      1.0  0.84026  0.12897  0.8354300000000001  1.0000
  H   H102      1.0  0.75825  0.73814  0.0468  1.0000
  H   H103      1.0  0.38932  0.9809499999999998  0.64597  1.0000
  H   H104      1.0  0.14528  0.79631  0.54272  1.0000
  H   H105      1.0  0.15974  0.87103  0.16457000000000002  1.0000
  H   H106      1.0  0.23248000000000002  0.99724  0.7706  1.0000
  H   H107      1.0  0.41405  0.34631  0.23089  1.0000
  H   H108      1.0  0.7205  0.38608  0.07089  1.0000
  H   H109      1.0  0.54249  0.78892  0.9621100000000002  1.0000
  H   H110      1.0  0.35208  0.81324  0.45452  1.0000
  H   H111      1.0  0.96794  0.51023  0.90005  1.0000
  H   H112      1.0  0.3416300000000001  0.37153  0.33586  1.0000
  H   H113      1.0  0.89037  0.81456  0.16843  1.0000
  H   H114      1.0  0.61527  0.02937  0.28571  1.0000
  H   H115      1.0  0.56933  0.55316  0.24744  1.0000
  H   H116      1.0  0.80646  0.58702  0.29612  1.0000
  H   H117      1.0  0.30114  0.20973999999999998  0.7219600000000003  1.0000
  H   H118      1.0  0.6949400000000001  0.08687999999999997  0.20396  1.0000
  H   H119      1.0  0.98166  0.4444  0.64685  1.0000
  H   H120      1.0  0.1749900000000001  0.69332  0.5704800000000001  1.0000
  H   H121      1.0  0.77854  0.88625  0.4288800000000001  1.0000
  H   H122      1.0  0.43430000000000013  0.44053  0.12375  1.0000
  H   H123      1.0  0.20896  0.05341  0.62926  1.0000
  H   H124      1.0  0.7337800000000002  0.50278  0.27116  1.0000
  H   H125      1.0  0.22146  0.11375  0.57112  1.0000
  H   H126      1.0  0.10963  0.18545  0.83157  1.0000
  H   H127      1.0  0.38991  0.6849  0.6685700000000002  1.0000
  H   H128      1.0  0.43067000000000016  0.44684  0.7525600000000001  1.0000
  H   H129      1.0  0.11535  0.83457  0.38717  1.0000
  H   H130      1.0  0.52255  0.5443899999999998  0.18239000000000002  1.0000
  H   H131      1.0  0.58595  0.65369  0.76911  1.0000
  H   H132      1.0  0.47027  0.38865  0.28805  1.0000
  H   H133      1.0  0.2812  0.67338  0.73803  1.0000
  H   H134      1.0  0.80453  0.6554399999999999  0.89172  1.0000
  H   H135      1.0  0.81169  0.0964  0.20026  1.0000
  H   H136      1.0  0.61068  0.01906  0.35403  1.0000
  H   H137      1.0  0.25545  0.27244  0.06807  1.0000
  H   H138      1.0  0.84863  0.59485  0.01739  1.0000
  H   H139      1.0  0.60361  0.04521  0.65246  1.0000
  H   H140      1.0  0.51736  0.8949399999999997  0.93685  1.0000
  H   H141      1.0  0.2506  0.10638999999999997  0.71019  1.0000
  H   H142      1.0  0.93227  0.05260999999999998  0.25308  1.0000
  H   H143      1.0  0.20645000000000005  0.63382  0.8730900000000003  1.0000
  H   H144      1.0  0.78813  0.16722  0.77592  1.0000
  H   H145      1.0  0.69455  0.15588  0.6085  1.0000
  H   H146      1.0  0.030790000000000012  0.5374  0.8118000000000001  1.0000
  H   H147      1.0  0.11405  0.47094  0.78612  1.0000
  H   H148      1.0  0.60043  0.8310999999999997  0.90934  1.0000
  H   H149      1.0  0.06596  0.93925  0.37591  1.0000
  H   H150      1.0  0.30545000000000005  0.84413  0.3915000000000001  1.0000
  H   H151      1.0  0.75447  0.22827999999999996  0.56853  1.0000
  H   H152      1.0  0.89461  0.54565  0.8472800000000003  1.0000
  H   H153      1.0  0.09882  0.24616  0.8894  1.0000
  H   H154      1.0  0.24902  0.79465  0.16387  1.0000
  H   H155      1.0  0.67319  0.58235  0.85303  1.0000
  H   H156      1.0  0.19835000000000005  0.7099  0.77829  1.0000
  H   H157      1.0  0.35481  0.2969  0.95693  1.0000
  H   H158      1.0  0.91631  0.37508  0.68438  1.0000
  H   H159      1.0  0.6898  0.59708  0.29988  1.0000
  H   H160      1.0  0.15137  0.40516  0.9826100000000001  1.0000
  H   H161      1.0  0.85263  0.48361  0.89897  1.0000
  H   H162      1.0  0.74143  0.23843999999999996  0.45304000000000005  1.0000
  H   H163      1.0  0.64792  0.18676  0.54548  1.0000
  H   H164      1.0  0.10604  0.030049999999999993  0.70566  1.0000
  H   H165      1.0  0.32681  0.41765  0.14697  1.0000
  H   H166      1.0  0.24163  0.94277  0.5355  1.0000
  H   H167      1.0  0.82501  0.30669  0.42952  1.0000
  H   H168      1.0  0.27951  0.61393  0.92912  1.0000
  H   H169      1.0  0.4167400000000001  0.12506  0.18464000000000005  1.0000
  H   H170      1.0  0.88595  0.52906  0.21388000000000001  1.0000
  H   H171      1.0  0.08369  0.62493  0.31562  1.0000
  H   H172      1.0  0.25805000000000006  0.44327  0.9642900000000002  1.0000
  H   H173      1.0  0.53227  0.96283  0.31135  1.0000
  H   H174      1.0  0.93404  0.06075999999999999  0.6240900000000001  1.0000
  H   H175      1.0  0.19079  0.51176  0.00226  1.0000
  H   H176      1.0  0.52973  0.61136  0.71195  1.0000
  H   H177      1.0  0.018340000000000006  0.55561  0.35315  1.0000
  H   H178      1.0  0.8846500000000002  0.16543999999999995  0.61283  1.0000
  H   H179      1.0  0.7494  0.89362  0.28981  1.0000
  H   H180      1.0  0.97815  0.04392999999999998  0.31836  1.0000
  C   C1        1.0  0.66736  0.28333  0.18445  1.0000
  C   C2        1.0  0.09060000000000001  0.50919  0.12552  1.0000
  C   C3        1.0  0.19661000000000006  0.76195  0.56757  1.0000
  C   C4        1.0  0.80339  0.23805999999999994  0.43243  1.0000
  C   C5        1.0  0.06759000000000003  0.47543  0.81721  1.0000
  C   C6        1.0  0.84475  0.10007  0.31102  1.0000
  C   C7        1.0  0.64778  0.63716  0.139  1.0000
  C   C8        1.0  0.40624  0.7237599999999997  0.9027  1.0000
  C   C9        1.0  0.6720900000000001  0.5588599999999998  0.93554  1.0000
  C   C10       1.0  0.73768  0.32575  0.22145000000000006  1.0000
  C   C11       1.0  0.37089  0.40643  0.11492  1.0000
  C   C12       1.0  0.43162  0.38519  0.8975700000000002  1.0000
  C   C13       1.0  0.41496000000000005  0.46133  0.7929900000000001  1.0000
  C   C14       1.0  0.41746  0.68947  0.95777  1.0000
  C   C15       1.0  0.08229  0.18848999999999996  0.54227  1.0000
  C   C16       1.0  0.12271  0.73872  0.18426000000000003  1.0000
  C   C17       1.0  0.21061  0.8036199999999998  0.62121  1.0000
  C   C18       1.0  0.71333  0.21578  0.34558  1.0000
  C   C19       1.0  0.27603  0.61881  0.88633  1.0000
  C   C20       1.0  0.13569  0.6614399999999998  0.15595  1.0000
  C   C21       1.0  0.28974  0.82904  0.4318  1.0000
  C   C22       1.0  0.07355000000000003  0.59252  0.15514  1.0000
  C   C23       1.0  0.85335  0.13817  0.361  1.0000
  C   C24       1.0  0.71602  0.84649  0.62501  1.0000
  C   C25       1.0  0.7333  0.6183199999999998  0.2219  1.0000
  C   C26       1.0  0.5307  0.66667  0.73959  1.0000
  C   C27       1.0  0.5850500000000002  0.5386799999999998  0.20702  1.0000
  C   C28       1.0  0.71165  0.69527  0.12121  1.0000
  C   C29       1.0  0.23203000000000007  0.88102  0.7219400000000001  1.0000
  C   C30       1.0  0.51435  0.89591  0.82131  1.0000
  C   C31       1.0  0.01471  0.60424  0.32146  1.0000
  C   C32       1.0  0.49438  0.89816  0.6825300000000001  1.0000
  C   C33       1.0  0.81054  0.18733  0.8159500000000001  1.0000
  C   C34       1.0  0.7893900000000001  0.19638999999999998  0.37879000000000007  1.0000
  C   C35       1.0  0.66096  0.31204  0.13198000000000001  1.0000
  C   C36       1.0  0.16093  0.18743  0.63209  1.0000
  C   C37       1.0  0.26232000000000005  0.6742599999999997  0.7785500000000001  1.0000
  C   C38       1.0  0.10779  0.28169  0.70165  1.0000
  C   C39       1.0  0.28398  0.15350999999999995  0.37499  1.0000
  C   C40       1.0  0.6340300000000002  0.83826  0.6554500000000002  1.0000
  C   C41       1.0  0.96479  0.71127  0.38721000000000005  1.0000
  C   C42       1.0  0.75926  0.07404  0.22529  1.0000
  C   C43       1.0  0.69672  0.7373699999999997  0.06779  1.0000
  C   C44       1.0  0.3436  0.40067  0.8109700000000002  1.0000
  C   C45       1.0  0.96853  0.16645  0.7604000000000001  1.0000
  C   C46       1.0  0.7009  0.17573  0.2954  1.0000
  C   C47       1.0  0.46526  0.17245999999999995  0.07401  1.0000
  C   C48       1.0  0.08405  0.96133  0.70657  1.0000
  C   C49       1.0  0.58843  0.9905399999999998  0.6251700000000001  1.0000
  C   C50       1.0  0.50562  0.10185  0.31748  1.0000
  C   C51       1.0  0.96587  0.32765  0.57378  1.0000
  C   C52       1.0  0.5717500000000001  0.9072  0.65474  1.0000
  C   C53       1.0  0.8706400000000001  0.09503  0.61533  1.0000
  C   C54       1.0  0.68804  0.68701  0.6834400000000002  1.0000
  C   C55       1.0  0.46478  0.78914  0.88717  1.0000
  C   C56       1.0  0.12936  0.9049800000000001  0.38467  1.0000
  C   C57       1.0  0.7877  0.71477  0.15434  1.0000
  C   C58       1.0  0.60843  0.21779999999999994  0.20158  1.0000
  C   C59       1.0  0.35167  0.7167  0.63593  1.0000
  C   C60       1.0  0.83907  0.8125699999999998  0.36792  1.0000
  C   C61       1.0  0.0040700000000000215  0.39834  0.8173000000000001  1.0000
  C   C62       1.0  0.42825  0.09280999999999998  0.34526  1.0000
  C   C63       1.0  0.31196  0.31299  0.31656000000000006  1.0000
  C   C64       1.0  0.4792  0.82042  0.7109500000000001  1.0000
  C   C65       1.0  0.28922  0.9431899999999999  0.5047  1.0000
  C   C66       1.0  0.46931  0.33334  0.26041  1.0000
  C   C67       1.0  0.77544  0.88143  0.38609  1.0000
  C   C68       1.0  0.21729000000000007  0.65344  0.12516  1.0000
  C   C69       1.0  0.95634  0.68062  0.33524  1.0000
  C   C70       1.0  0.95495  0.2526  0.78793  1.0000
  C   C71       1.0  0.7627300000000001  0.8259599999999998  0.27827  1.0000
  C   C72       1.0  0.28667  0.7842299999999998  0.65443  1.0000
  C   C73       1.0  0.14790000000000006  0.21735  0.86417  1.0000
  C   C74       1.0  0.56915  0.024659999999999994  0.31697  1.0000
  C   C75       1.0  0.76798  0.11898  0.27806  1.0000
  C   C76       1.0  0.19969  0.32507  0.79547  1.0000
  C   C77       1.0  0.93241  0.52457  0.18279000000000006  1.0000
  C   C78       1.0  0.09368  0.22305  0.59733  1.0000
  C   C79       1.0  0.92645  0.40748  0.8448700000000002  1.0000
  C   C80       1.0  0.33904000000000006  0.6879699999999997  0.8680300000000001  1.0000
  C   C81       1.0  0.17205  0.93992  0.43511000000000005  1.0000
  C   C82       1.0  0.25792  0.42591  0.72513  1.0000
  C   C83       1.0  0.37881  0.23901999999999995  0.31632  1.0000
  C   C84       1.0  0.2123  0.28524  0.84567  1.0000
  C   C85       1.0  0.43085000000000007  0.9753399999999998  0.68304  1.0000
  C   C86       1.0  0.56838  0.61482  0.10243000000000001  1.0000
  C   C87       1.0  0.78271  0.34656  0.8748400000000002  1.0000
  C   C88       1.0  0.15525000000000005  0.89993  0.68899  1.0000
  C   C89       1.0  0.9852900000000002  0.39577  0.67854  1.0000
  C   C90       1.0  0.85211  0.78266  0.13583  1.0000
  C   C91       1.0  0.99594  0.60167  0.1827  1.0000
  C   C92       1.0  0.89221  0.71832  0.29835  1.0000
  C   C93       1.0  0.28835  0.30474  0.87879  1.0000
  C   C94       1.0  0.48565  0.1041  0.17869  1.0000
  C   C95       1.0  0.64833  0.28329999999999994  0.36407  1.0000
  C   C96       1.0  0.32791  0.44113999999999987  0.06446  1.0000
  C   C97       1.0  0.8003100000000001  0.67494  0.20453000000000002  1.0000
  C   C98       1.0  0.74209  0.5740899999999998  0.27488  1.0000
  C   C99       1.0  0.72397  0.3811999999999999  0.11367000000000001  1.0000
  C   C100      1.0  0.9094  0.4908099999999999  0.87448  1.0000
  C   C101      1.0  0.2991  0.82428  0.7046  1.0000
  C   C102      1.0  0.78897  0.67035  0.9320700000000001  1.0000
  C   C103      1.0  0.18946  0.81267  0.18406  1.0000
  C   C104      1.0  0.3915700000000001  0.7821999999999998  0.79842  1.0000
  C   C105      1.0  0.21045  0.4437099999999999  0.99507  1.0000
  C   C106      1.0  0.7107800000000002  0.056809999999999986  0.4953  1.0000
  C   C107      1.0  0.41157  0.00947  0.37483  1.0000
  C   C108      1.0  0.24074  0.9259699999999997  0.77471  1.0000
  C   C109      1.0  0.58255  0.31053  0.04223  1.0000
  C   C110      1.0  0.91771  0.81151  0.45773  1.0000
  C   C111      1.0  0.06671  0.88493  0.60299  1.0000
  C   C112      1.0  0.30328  0.26262999999999986  0.93221  1.0000
  C   C113      1.0  0.83303  0.78381  0.31541  1.0000
  C   C114      1.0  0.93329  0.11507999999999997  0.39701  1.0000
  C   C115      1.0  0.22456000000000004  0.11856999999999997  0.61391  1.0000
  C   C116      1.0  0.52081  0.17958999999999994  0.28905  1.0000
  C   C117      1.0  0.019589999999999993  0.32047  0.78892  1.0000
  C   C118      1.0  0.6564000000000001  0.59934  0.18903  1.0000
  C   C119      1.0  0.031480000000000015  0.83355  0.23960000000000006  1.0000
  C   C120      1.0  0.2667  0.38169  0.7781100000000001  1.0000
  C   C121      1.0  0.35222  0.36285  0.8610000000000001  1.0000
  C   C122      1.0  0.33264000000000016  0.71667  0.8155500000000001  1.0000
  C   C123      1.0  0.62911  0.5935699999999998  0.8850800000000001  1.0000
  C   C124      1.0  0.16697  0.2162  0.68459  1.0000
  C   C125      1.0  0.53474  0.8275399999999998  0.9259900000000001  1.0000
  C   C126      1.0  0.59376  0.27623999999999993  0.0973  1.0000
  C   C127      1.0  0.45615  0.24752  0.28825  1.0000
  C   C128      1.0  0.36597  0.16174999999999998  0.3445600000000001  1.0000
  C   C129      1.0  0.98041  0.67954  0.21108  1.0000
  C   C130      1.0  0.62119  0.76098  0.68368  1.0000
  C   C131      1.0  0.14665  0.8618399999999998  0.639  1.0000
  C   C132      1.0  0.04367  0.31939  0.66476  1.0000
  C   C133      1.0  0.04505  0.74741  0.21207  1.0000
  C   C134      1.0  0.54385  0.75248  0.71176  1.0000
  C   C135      1.0  0.90632  0.77696  0.40267  1.0000
  C   C136      1.0  0.8772900000000001  0.26129  0.8157400000000001  1.0000
  C   C137      1.0  0.45598  0.81976  0.8352100000000001  1.0000
  C   C138      1.0  0.21103  0.32966  0.06794  1.0000
  C   C139      1.0  0.82795  0.06007999999999999  0.56489  1.0000
  C   C140      1.0  0.54402  0.18024999999999994  0.16479000000000005  1.0000
  C   C141      1.0  0.91595  0.03868  0.29344  1.0000
  C   C142      1.0  0.86431  0.33856  0.84405  1.0000
  C   C143      1.0  0.78955  0.5563  0.00493  1.0000
  C   C144      1.0  0.71026  0.17097  0.5682  1.0000
  C   C145      1.0  0.23727  0.17404  0.7217300000000002  1.0000
  C   C146      1.0  0.53522  0.21087  0.11283  1.0000
  C   C147      1.0  0.03413  0.67235  0.42622  1.0000
  C   C148      1.0  0.035210000000000026  0.28873  0.6127900000000001  1.0000
  N   N1        1.0  0.25209  0.4051399999999999  0.04361  1.0000
  N   N2        1.0  0.24803000000000003  0.90438  0.45611000000000007  1.0000
  N   N3        1.0  0.75197  0.09563  0.54389  1.0000
  N   N4        1.0  0.74791  0.59486  0.9563900000000001  1.0000
  O   O1        1.0  0.01621  0.13784  0.53163  1.0000
  O   O2        1.0  0.48284999999999995  0.63803  0.9684  1.0000
  O   O3        1.0  0.28973  0.17778999999999995  0.4230900000000001  1.0000
  O   O4        1.0  0.36074  0.50585  0.040570000000000016  1.0000
  O   O5        1.0  0.001409999999999995  0.16446  0.39435  1.0000
  O   O6        1.0  0.99859  0.83555  0.60565  1.0000
  O   O7        1.0  0.49927  0.6625499999999998  0.10589  1.0000
  O   O8        1.0  0.13904000000000002  0.21342999999999995  0.5104  1.0000
  O   O9        1.0  0.86096  0.78657  0.4896  1.0000
  O   O10       1.0  0.86131  0.99534  0.54121  1.0000
  O   O11       1.0  0.36111000000000004  0.7155  0.9896800000000002  1.0000
  O   O12       1.0  0.9837900000000002  0.8621599999999998  0.4683700000000001  1.0000
  O   O13       1.0  0.50073  0.33745  0.89411  1.0000
  O   O14       1.0  0.29049  0.62637  0.14791  1.0000
  O   O15       1.0  0.42067000000000004  0.44911  0.9284000000000001  1.0000
  O   O16       1.0  0.7882899999999999  0.87579  0.64775  1.0000
  O   O17       1.0  0.92445  0.0485  0.4260400000000001  1.0000
  O   O18       1.0  0.7897200000000001  0.32432  0.92323  1.0000
  O   O19       1.0  0.63926  0.49415  0.9594400000000001  1.0000
  O   O20       1.0  0.07555000000000002  0.9515099999999997  0.57397  1.0000
  O   O21       1.0  0.7095200000000002  0.37363  0.8520900000000002  1.0000
  O   O22       1.0  0.21028  0.67568  0.07677  1.0000
  O   O23       1.0  0.13869  0.00466  0.45879  1.0000
  O   O24       1.0  0.51715  0.36198  0.03161  1.0000
  O   O25       1.0  0.71027  0.8222099999999998  0.57691  1.0000
  O   O26       1.0  0.21171  0.12422  0.35226  1.0000
  O   O27       1.0  0.6389  0.28451  0.010320000000000003  1.0000
  O   O28       1.0  0.57934  0.55089  0.0716  1.0000
