data_image0
_chemical_formula_structural       Ni4H88C136N16O16
_chemical_formula_sum              "Ni4 H88 C136 N16 O16"
_cell_length_a       8.32587
_cell_length_b       11.62617
_cell_length_c       35.01176
_cell_angle_alpha    90.04582999999998
_cell_angle_beta     89.96272
_cell_angle_gamma    104.42609

_symmetry_space_group_name_H-M    'P 1'
_symmetry_Int_Tables_number       1

loop_
  _symmetry_equiv_pos_as_xyz
  'x,y,z'

loop_
  _atom_site_type_symbol
  _atom_site_label
  _atom_site_symmetry_multiplicity
  _atom_site_fract_x
  _atom_site_fract_y
  _atom_site_fract_z
  _atom_site_occupancy
  Ni  Ni1       1.0  0.47418  0.50612  0.85183  1.0000
  Ni  Ni2       1.0  0.52532  0.9949499999999999  0.35103  1.0000
  Ni  Ni3       1.0  0.5258300000000001  0.4938699999999999  0.14817  1.0000
  Ni  Ni4       1.0  0.47468  0.005049999999999999  0.64897  1.0000
  H   H1        1.0  0.8675  0.7733  0.77771  1.0000
  H   H2        1.0  0.17175  0.86729  0.77648  1.0000
  H   H3        1.0  0.4007000000000001  0.89162  0.72872  1.0000
  H   H4        1.0  0.19150999999999999  0.10211999999999999  0.6593200000000001  1.0000
  H   H5        1.0  0.9543000000000003  0.0908  0.7048  1.0000
  H   H6        1.0  0.90245  0.14893  0.77076  1.0000
  H   H7        1.0  0.52337  0.92049  0.8396  1.0000
  H   H8        1.0  0.8903  0.27363  0.8204500000000001  1.0000
  H   H9        1.0  0.7808299999999999  0.4458  0.8380200000000001  1.0000
  H   H10       1.0  0.29536  0.24376  0.83948  1.0000
  H   H11       1.0  0.38258  0.06123  0.81861  1.0000
  H   H12       1.0  0.84561  0.24644  0.90134  1.0000
  H   H13       1.0  0.84162  0.25951  0.02468  1.0000
  H   H14       1.0  0.27704  0.43483  0.96085  1.0000
  H   H15       1.0  0.3218  0.55187  0.01067  1.0000
  H   H16       1.0  0.4792  0.60352  0.07102  1.0000
  H   H17       1.0  0.19308  0.30822  0.12588  1.0000
  H   H18       1.0  0.027090000000000006  0.24065999999999999  0.0677  1.0000
  H   H19       1.0  0.6492200000000002  0.09352  0.9083000000000002  1.0000
  H   H20       1.0  0.35067000000000004  0.9923599999999998  0.9090000000000003  1.0000
  H   H21       1.0  0.28431  0.13113999999999998  0.01488  1.0000
  H   H22       1.0  0.5791  0.24071  0.01873  1.0000
  H   H23       1.0  0.1316  0.72684  0.27695000000000003  1.0000
  H   H24       1.0  0.82643  0.632  0.27607  1.0000
  H   H25       1.0  0.5978  0.60682  0.22825  1.0000
  H   H26       1.0  0.80823  0.3960199999999999  0.15911  1.0000
  H   H27       1.0  0.04535  0.40838  0.20464  1.0000
  H   H28       1.0  0.09567  0.35092  0.27086  1.0000
  H   H29       1.0  0.47607999999999995  0.58091  0.33897  1.0000
  H   H30       1.0  0.10866  0.22679  0.32036  1.0000
  H   H31       1.0  0.21868  0.05459  0.3376  1.0000
  H   H32       1.0  0.70372  0.25682  0.3391400000000001  1.0000
  H   H33       1.0  0.61645  0.43935  0.31848  1.0000
  H   H34       1.0  0.15293  0.25365  0.40145000000000003  1.0000
  H   H35       1.0  0.15674000000000005  0.23987  0.52474  1.0000
  H   H36       1.0  0.7207  0.06582  0.46099000000000007  1.0000
  H   H37       1.0  0.67642  0.94812  0.51088  1.0000
  H   H38       1.0  0.52123  0.89614  0.57153  1.0000
  H   H39       1.0  0.8073100000000003  0.19225  0.62606  1.0000
  H   H40       1.0  0.97172  0.25986  0.5676  1.0000
  H   H41       1.0  0.3497799999999999  0.40599999999999997  0.40837  1.0000
  H   H42       1.0  0.6483100000000003  0.5071  0.40909  1.0000
  H   H43       1.0  0.7144000000000003  0.36836  0.51486  1.0000
  H   H44       1.0  0.41961  0.25883  0.51873  1.0000
  H   H45       1.0  0.13251  0.22669  0.22229  1.0000
  H   H46       1.0  0.82826  0.13271  0.22352  1.0000
  H   H47       1.0  0.5993000000000003  0.10837999999999999  0.2712800000000001  1.0000
  H   H48       1.0  0.8084800000000001  0.8978699999999998  0.34068  1.0000
  H   H49       1.0  0.04571000000000006  0.9091999999999999  0.2952000000000001  1.0000
  H   H50       1.0  0.09756000000000005  0.85107  0.22924  1.0000
  H   H51       1.0  0.47664  0.0795  0.1604  1.0000
  H   H52       1.0  0.10971  0.7263699999999998  0.17955  1.0000
  H   H53       1.0  0.21918  0.5542  0.16199  1.0000
  H   H54       1.0  0.70465  0.75623  0.16052  1.0000
  H   H55       1.0  0.6174300000000001  0.9387699999999999  0.18139  1.0000
  H   H56       1.0  0.15440000000000006  0.75356  0.09866  1.0000
  H   H57       1.0  0.15838999999999998  0.74048  0.9753199999999999  1.0000
  H   H58       1.0  0.72297  0.56517  0.03915  1.0000
  H   H59       1.0  0.6782099999999999  0.44813  0.9893299999999999  1.0000
  H   H60       1.0  0.52081  0.39647  0.92898  1.0000
  H   H61       1.0  0.80693  0.69177  0.87412  1.0000
  H   H62       1.0  0.97292  0.7593399999999999  0.9323  1.0000
  H   H63       1.0  0.35079  0.90647  0.0917  1.0000
  H   H64       1.0  0.6493400000000003  0.007639999999999998  0.091  1.0000
  H   H65       1.0  0.7157  0.86886  0.98512  1.0000
  H   H66       1.0  0.42090999999999995  0.7592899999999999  0.98127  1.0000
  H   H67       1.0  0.86838  0.27315  0.72305  1.0000
  H   H68       1.0  0.17357999999999998  0.368  0.72393  1.0000
  H   H69       1.0  0.40220999999999996  0.3931799999999999  0.77175  1.0000
  H   H70       1.0  0.19177000000000008  0.60397  0.84089  1.0000
  H   H71       1.0  0.95466  0.59162  0.79536  1.0000
  H   H72       1.0  0.90434  0.64907  0.72914  1.0000
  H   H73       1.0  0.52392  0.4191  0.66103  1.0000
  H   H74       1.0  0.89135  0.77321  0.67964  1.0000
  H   H75       1.0  0.7813300000000002  0.94541  0.6624  1.0000
  H   H76       1.0  0.29629000000000005  0.74318  0.66086  1.0000
  H   H77       1.0  0.38356999999999997  0.5606499999999999  0.68152  1.0000
  H   H78       1.0  0.8470700000000002  0.74634  0.59855  1.0000
  H   H79       1.0  0.84327  0.7601199999999999  0.47526000000000007  1.0000
  H   H80       1.0  0.27930999999999995  0.9341799999999999  0.53901  1.0000
  H   H81       1.0  0.32359  0.05188  0.48912000000000005  1.0000
  H   H82       1.0  0.47878  0.10386000000000001  0.42847000000000013  1.0000
  H   H83       1.0  0.19269  0.80775  0.37394  1.0000
  H   H84       1.0  0.028290000000000013  0.74014  0.4324  1.0000
  H   H85       1.0  0.6502300000000001  0.5939899999999999  0.59163  1.0000
  H   H86       1.0  0.35170000000000007  0.49289  0.59091  1.0000
  H   H87       1.0  0.2856100000000001  0.63164  0.48514  1.0000
  H   H88       1.0  0.58039  0.7411699999999999  0.48128000000000004  1.0000
  C   C1        1.0  0.60893  0.71592  0.82559  1.0000
  C   C2        1.0  0.6878600000000002  0.8362  0.8098500000000002  1.0000
  C   C3        1.0  0.8248  0.8511599999999999  0.78557  1.0000
  C   C4        1.0  0.9025199999999999  0.96355  0.7711300000000002  1.0000
  C   C5        1.0  0.043490000000000015  0.97763  0.74457  1.0000
  C   C6        1.0  0.171  0.92036  0.75091  1.0000
  C   C7        1.0  0.29873  0.93325  0.72441  1.0000
  C   C8        1.0  0.18185  0.05267  0.68592  1.0000
  C   C9        1.0  0.052289999999999996  0.04683999999999999  0.71142  1.0000
  C   C10       1.0  0.84171  0.06113999999999999  0.78155  1.0000
  C   C11       1.0  0.70421  0.0475  0.80592  1.0000
  C   C12       1.0  0.6276  0.93411  0.81991  1.0000
  C   C13       1.0  0.6444399999999999  0.15186  0.81702  1.0000
  C   C14       1.0  0.7568700000000003  0.26263  0.82241  1.0000
  C   C15       1.0  0.69741  0.35895  0.83324  1.0000
  C   C16       1.0  0.42502000000000006  0.24481  0.83424  1.0000
  C   C17       1.0  0.47531  0.14444  0.82308  1.0000
  C   C18       1.0  0.16159  0.37088  0.89056  1.0000
  C   C19       1.0  0.06913  0.34297  0.9279500000000002  1.0000
  C   C20       1.0  0.9054700000000002  0.2744  0.92858  1.0000
  C   C21       1.0  0.8201  0.24496999999999994  0.96329  1.0000
  C   C22       1.0  0.90473  0.28316  0.9975400000000001  1.0000
  C   C23       1.0  0.06942999999999999  0.35190999999999995  0.99743  1.0000
  C   C24       1.0  0.14938999999999997  0.38251999999999997  0.96227  1.0000
  C   C25       1.0  0.16032999999999994  0.3897699999999999  0.03331  1.0000
  C   C26       1.0  0.2901  0.49353  0.03524  1.0000
  C   C27       1.0  0.37815  0.52389  0.06899  1.0000
  C   C28       1.0  0.21855  0.35914  0.09963  1.0000
  C   C29       1.0  0.12446  0.32283  0.06705  1.0000
  C   C30       1.0  0.64341  0.17827999999999997  0.96346  1.0000
  C   C31       1.0  0.5733900000000002  0.10581  0.9325400000000001  1.0000
  C   C32       1.0  0.40517  0.04816999999999999  0.93307  1.0000
  C   C33       1.0  0.36881000000000014  0.12452  0.99163  1.0000
  C   C34       1.0  0.53552  0.18592999999999998  0.9937600000000001  1.0000
  C   C35       1.0  0.39043  0.78494  0.32475000000000004  1.0000
  C   C36       1.0  0.31119000000000013  0.66441  0.30916  1.0000
  C   C37       1.0  0.17411999999999997  0.6490599999999999  0.28496  1.0000
  C   C38       1.0  0.09626  0.53631  0.27079  1.0000
  C   C39       1.0  0.95525  0.52158  0.24428000000000002  1.0000
  C   C40       1.0  0.82745  0.5786199999999999  0.25056000000000006  1.0000
  C   C41       1.0  0.69993  0.56527  0.22403  1.0000
  C   C42       1.0  0.8175200000000002  0.4456899999999999  0.18568  1.0000
  C   C43       1.0  0.9469  0.4519899999999999  0.21121  1.0000
  C   C44       1.0  0.15691  0.43891  0.28142  1.0000
  C   C45       1.0  0.29466999999999993  0.4529299999999999  0.30569  1.0000
  C   C46       1.0  0.37152999999999997  0.5666699999999999  0.31938  1.0000
  C   C47       1.0  0.35446  0.34868999999999994  0.31686  1.0000
  C   C48       1.0  0.24213  0.23784999999999995  0.32223  1.0000
  C   C49       1.0  0.30181000000000013  0.14153  0.33288  1.0000
  C   C50       1.0  0.57409  0.25577  0.33388000000000007  1.0000
  C   C51       1.0  0.52362  0.35614999999999997  0.32287  1.0000
  C   C52       1.0  0.8373500000000003  0.13242  0.3904  1.0000
  C   C53       1.0  0.92908  0.1579  0.42797  1.0000
  C   C54       1.0  0.09328000000000002  0.22550999999999996  0.42869  1.0000
  C   C55       1.0  0.17877000000000004  0.25442999999999993  0.46336999999999995  1.0000
  C   C56       1.0  0.09376999999999998  0.21630999999999995  0.4975800000000001  1.0000
  C   C57       1.0  0.9288800000000003  0.14781999999999995  0.49742  1.0000
  C   C58       1.0  0.84869  0.11765  0.46225000000000005  1.0000
  C   C59       1.0  0.83814  0.11033999999999998  0.53338  1.0000
  C   C60       1.0  0.70862  0.0065  0.53545  1.0000
  C   C61       1.0  0.6217000000000003  0.9760299999999998  0.56939  1.0000
  C   C62       1.0  0.78128  0.14109  0.59985  1.0000
  C   C63       1.0  0.87451  0.17752  0.5671  1.0000
  C   C64       1.0  0.35544  0.32116999999999996  0.46351  1.0000
  C   C65       1.0  0.42549  0.39364  0.4326  1.0000
  C   C66       1.0  0.59371  0.45129  0.43314  1.0000
  C   C67       1.0  0.6299899999999999  0.3749799999999999  0.49163  1.0000
  C   C68       1.0  0.46329  0.31357  0.49378  1.0000
  C   C69       1.0  0.39108  0.28407  0.17441  1.0000
  C   C70       1.0  0.31215  0.16379  0.19015000000000004  1.0000
  C   C71       1.0  0.17521  0.14884  0.21443  1.0000
  C   C72       1.0  0.09749  0.03644  0.22887  1.0000
  C   C73       1.0  0.9565200000000003  0.02237  0.25543  1.0000
  C   C74       1.0  0.8290100000000002  0.07964  0.24909  1.0000
  C   C75       1.0  0.7012700000000002  0.06675  0.27559  1.0000
  C   C76       1.0  0.81814  0.94732  0.31408  1.0000
  C   C77       1.0  0.9477100000000004  0.9531599999999999  0.28858  1.0000
  C   C78       1.0  0.1583  0.9388499999999999  0.21845000000000006  1.0000
  C   C79       1.0  0.2957999999999999  0.9524999999999998  0.19408  1.0000
  C   C80       1.0  0.3724100000000001  0.06589  0.18009  1.0000
  C   C81       1.0  0.35556999999999994  0.8481399999999999  0.18298  1.0000
  C   C82       1.0  0.24314  0.7373699999999999  0.17759  1.0000
  C   C83       1.0  0.3025999999999999  0.6410499999999999  0.16676000000000005  1.0000
  C   C84       1.0  0.57499  0.7551799999999999  0.16576  1.0000
  C   C85       1.0  0.5247  0.85555  0.17692  1.0000
  C   C86       1.0  0.83842  0.62912  0.10944  1.0000
  C   C87       1.0  0.93088  0.65702  0.07205  1.0000
  C   C88       1.0  0.09453999999999997  0.7255999999999999  0.07142  1.0000
  C   C89       1.0  0.17989999999999998  0.75503  0.03671  1.0000
  C   C90       1.0  0.09527999999999992  0.7168399999999999  0.00247  1.0000
  C   C91       1.0  0.93058  0.6480799999999999  0.0025700000000000007  1.0000
  C   C92       1.0  0.8506200000000003  0.6174799999999999  0.03773  1.0000
  C   C93       1.0  0.8396800000000001  0.61022  0.96669  1.0000
  C   C94       1.0  0.70991  0.50647  0.9647699999999999  1.0000
  C   C95       1.0  0.62186  0.47610999999999987  0.93102  1.0000
  C   C96       1.0  0.78146  0.64085  0.90037  1.0000
  C   C97       1.0  0.8755500000000002  0.67716  0.93296  1.0000
  C   C98       1.0  0.35658999999999996  0.82171  0.03654  1.0000
  C   C99       1.0  0.4266200000000001  0.89418  0.06746  1.0000
  C   C100      1.0  0.59484  0.95182  0.06693  1.0000
  C   C101      1.0  0.6312  0.8754699999999999  0.00837  1.0000
  C   C102      1.0  0.46448999999999996  0.8140599999999998  0.00624  1.0000
  C   C103      1.0  0.6095800000000002  0.21505999999999997  0.67525  1.0000
  C   C104      1.0  0.6888000000000001  0.33559  0.69085  1.0000
  C   C105      1.0  0.82587  0.35093  0.71504  1.0000
  C   C106      1.0  0.90375  0.46368  0.72921  1.0000
  C   C107      1.0  0.04474999999999998  0.47841  0.7557200000000001  1.0000
  C   C108      1.0  0.17256  0.42136999999999997  0.74944  1.0000
  C   C109      1.0  0.30008  0.4347299999999999  0.77597  1.0000
  C   C110      1.0  0.18248  0.5543  0.81432  1.0000
  C   C111      1.0  0.05310000000000001  0.548  0.7887900000000001  1.0000
  C   C112      1.0  0.8431000000000002  0.56108  0.71858  1.0000
  C   C113      1.0  0.7053400000000001  0.54707  0.69432  1.0000
  C   C114      1.0  0.62847  0.43333  0.68062  1.0000
  C   C115      1.0  0.64555  0.65131  0.68314  1.0000
  C   C116      1.0  0.75789  0.76215  0.67777  1.0000
  C   C117      1.0  0.6982  0.8584699999999997  0.66712  1.0000
  C   C118      1.0  0.42591999999999997  0.7442299999999998  0.66612  1.0000
  C   C119      1.0  0.47639000000000004  0.6438499999999999  0.67713  1.0000
  C   C120      1.0  0.16265  0.8675699999999998  0.6096  1.0000
  C   C121      1.0  0.07092999999999997  0.8420899999999999  0.57203  1.0000
  C   C122      1.0  0.9067300000000004  0.77448  0.57131  1.0000
  C   C123      1.0  0.82124  0.74557  0.53663  1.0000
  C   C124      1.0  0.9062400000000003  0.7836799999999998  0.50243  1.0000
  C   C125      1.0  0.07112999999999994  0.85218  0.50258  1.0000
  C   C126      1.0  0.15132000000000007  0.8823499999999999  0.53775  1.0000
  C   C127      1.0  0.16187000000000007  0.88966  0.46662  1.0000
  C   C128      1.0  0.29139  0.9935  0.4645500000000001  1.0000
  C   C129      1.0  0.37831  0.02397  0.43062000000000006  1.0000
  C   C130      1.0  0.21873  0.85891  0.40015  1.0000
  C   C131      1.0  0.12548999999999993  0.82248  0.4329  1.0000
  C   C132      1.0  0.64456  0.67883  0.53649  1.0000
  C   C133      1.0  0.57451  0.60636  0.5674  1.0000
  C   C134      1.0  0.4063  0.5486999999999999  0.56686  1.0000
  C   C135      1.0  0.37002  0.62502  0.50837  1.0000
  C   C136      1.0  0.53672  0.68643  0.50622  1.0000
  N   N1        1.0  0.3030999999999999  0.9965699999999997  0.6921  1.0000
  N   N2        1.0  0.53477  0.35124  0.83907  1.0000
  N   N3        1.0  0.34568  0.45718  0.10092  1.0000
  N   N4        1.0  0.30117  0.05629  0.9618000000000001  1.0000
  N   N5        1.0  0.6961300000000002  0.50169  0.19178  1.0000
  N   N6        1.0  0.46447  0.14925  0.3386  1.0000
  N   N7        1.0  0.6545500000000002  0.04277  0.60135  1.0000
  N   N8        1.0  0.6977000000000001  0.4432399999999999  0.46184  1.0000
  N   N9        1.0  0.6969  0.0034199999999999994  0.3079  1.0000
  N   N10       1.0  0.46524  0.64876  0.16093  1.0000
  N   N11       1.0  0.65433  0.5428199999999999  0.89908  1.0000
  N   N12       1.0  0.6988400000000002  0.9436999999999999  0.0382  1.0000
  N   N13       1.0  0.30388  0.49830999999999986  0.80822  1.0000
  N   N14       1.0  0.5355399999999999  0.8507499999999999  0.6614000000000002  1.0000
  N   N15       1.0  0.3454600000000001  0.95723  0.39865  1.0000
  N   N16       1.0  0.30231  0.55675  0.53817  1.0000
  O   O1        1.0  0.66634  0.62809  0.81511  1.0000
  O   O2        1.0  0.49111  0.70505  0.84958  1.0000
  O   O3        1.0  0.10254000000000003  0.31546  0.86099  1.0000
  O   O4        1.0  0.30037  0.45131  0.89341  1.0000
  O   O5        1.0  0.33350000000000013  0.8731  0.31435  1.0000
  O   O6        1.0  0.5085400000000001  0.7954399999999998  0.34861  1.0000
  O   O7        1.0  0.89724  0.19026  0.36135  1.0000
  O   O8        1.0  0.69913  0.05133  0.39253  1.0000
  O   O9        1.0  0.33367  0.37189999999999995  0.18489000000000003  1.0000
  O   O10       1.0  0.5088900000000002  0.2949399999999999  0.15042000000000003  1.0000
  O   O11       1.0  0.8974699999999999  0.6845299999999999  0.13901  1.0000
  O   O12       1.0  0.69964  0.54869  0.10659000000000003  1.0000
  O   O13       1.0  0.66653  0.12691  0.68565  1.0000
  O   O14       1.0  0.49147  0.20454999999999995  0.6514  1.0000
  O   O15       1.0  0.10276999999999996  0.80973  0.63865  1.0000
  O   O16       1.0  0.30086999999999997  0.9486599999999998  0.60748  1.0000
