data_image0
_chemical_formula_structural       Cu12H88C168O48
_chemical_formula_sum              "Cu12 H88 C168 O48"
_cell_length_a       25.21946
_cell_length_b       26.67424
_cell_length_c       26.674299999999995
_cell_angle_alpha    77.4097
_cell_angle_beta     62.03485
_cell_angle_gamma    62.03477

_symmetry_space_group_name_H-M    'P 1'
_symmetry_Int_Tables_number       1

loop_
  _symmetry_equiv_pos_as_xyz
  'x,y,z'

loop_
  _atom_site_type_symbol
  _atom_site_label
  _atom_site_symmetry_multiplicity
  _atom_site_fract_x
  _atom_site_fract_y
  _atom_site_fract_z
  _atom_site_occupancy
  Cu  Cu1       1.0  0.94299  0.50742  0.01557  1.0000
  Cu  Cu2       1.0  0.05699999999999996  0.98444  0.49258  1.0000
  Cu  Cu3       1.0  0.5332199999999998  0.01637  0.50789  1.0000
  Cu  Cu4       1.0  0.46678000000000003  0.49211  0.98363  1.0000
  Cu  Cu5       1.0  0.05700000000000003  0.49258  0.98443  1.0000
  Cu  Cu6       1.0  0.94299  0.015559999999999996  0.50742  1.0000
  Cu  Cu7       1.0  0.46678  0.98363  0.49210999999999994  1.0000
  Cu  Cu8       1.0  0.5332200000000001  0.50789  0.01637  1.0000
  Cu  Cu9       1.0  0.0  0.53663  0.46337  1.0000
  Cu  Cu10      1.0  3.5217979278704824e-17  0.46337  0.53663  1.0000
  Cu  Cu11      1.0  0.96379  0.03681  0.03681  1.0000
  Cu  Cu12      1.0  0.03620000000000012  0.96319  0.9631899999999999  1.0000
  H   H1        1.0  0.98221  0.4706199999999999  0.34176999999999996  1.0000
  H   H2        1.0  0.8935  0.40302999999999994  0.28231  1.0000
  H   H3        1.0  0.8995299999999998  0.43496  0.18492000000000003  1.0000
  H   H4        1.0  0.06728999999999996  0.46644  0.14388  1.0000
  H   H5        1.0  0.060019999999999914  0.43684  0.24197000000000002  1.0000
  H   H6        1.0  0.96502  0.3464499999999999  0.98658  1.0000
  H   H7        1.0  0.0036199999999999982  0.24902999999999997  0.9547  1.0000
  H   H8        1.0  0.20635  0.22256  0.8909699999999999  1.0000
  H   H9        1.0  0.16683999999999988  0.32058  0.92228  1.0000
  H   H10       1.0  0.05186999999999999  0.15415  0.97352  1.0000
  H   H11       1.0  0.017780000000000056  0.65823  0.52938  1.0000
  H   H12       1.0  0.10648999999999997  0.71769  0.59697  1.0000
  H   H13       1.0  0.1004700000000002  0.8150799999999998  0.56504  1.0000
  H   H14       1.0  0.9327  0.85612  0.53356  1.0000
  H   H15       1.0  0.9399699999999999  0.7580299999999999  0.56316  1.0000
  H   H16       1.0  0.03497000000000001  0.01342  0.65355  1.0000
  H   H17       1.0  0.9963800000000002  0.0453  0.75097  1.0000
  H   H18       1.0  0.79364  0.10902999999999999  0.77744  1.0000
  H   H19       1.0  0.8331500000000001  0.07772  0.67942  1.0000
  H   H20       1.0  0.9481200000000001  0.02648  0.84585  1.0000
  H   H21       1.0  0.20507000000000003  0.34193999999999997  0.47082  1.0000
  H   H22       1.0  0.41967  0.28341  0.40341999999999995  1.0000
  H   H23       1.0  0.4798699999999998  0.18616  0.43447  1.0000
  H   H24       1.0  0.32263999999999987  0.14341  0.46641  1.0000
  H   H25       1.0  0.26071  0.24137  0.43769  1.0000
  H   H26       1.0  0.70104  0.98725  0.34788  1.0000
  H   H27       1.0  0.7915400000000005  0.9560799999999999  0.25065  1.0000
  H   H28       1.0  0.68093  0.8911  0.2219  1.0000
  H   H29       1.0  0.59113  0.9216999999999997  0.31958  1.0000
  H   H30       1.0  0.81918  0.9749  0.15533  1.0000
  H   H31       1.0  0.7949300000000002  0.52918  0.65806  1.0000
  H   H32       1.0  0.5803199999999997  0.59658  0.7165900000000001  1.0000
  H   H33       1.0  0.52012  0.56553  0.8138399999999999  1.0000
  H   H34       1.0  0.6773600000000005  0.53359  0.85659  1.0000
  H   H35       1.0  0.7392899999999996  0.56231  0.75863  1.0000
  H   H36       1.0  0.29895000000000005  0.65212  0.012750000000000001  1.0000
  H   H37       1.0  0.20846000000000003  0.7493599999999999  0.04392  1.0000
  H   H38       1.0  0.3190700000000002  0.7780999999999999  0.10891  1.0000
  H   H39       1.0  0.40886  0.68042  0.0783  1.0000
  H   H40       1.0  0.18080999999999997  0.84467  0.0251  1.0000
  H   H41       1.0  0.017779999999999983  0.52938  0.65823  1.0000
  H   H42       1.0  0.10648999999999997  0.59697  0.7176899999999999  1.0000
  H   H43       1.0  0.10046999999999999  0.56504  0.81508  1.0000
  H   H44       1.0  0.9327000000000003  0.53356  0.8561199999999999  1.0000
  H   H45       1.0  0.93997  0.56316  0.7580299999999999  1.0000
  H   H46       1.0  0.03496999999999999  0.65355  0.01342  1.0000
  H   H47       1.0  0.9963800000000002  0.75097  0.04530000000000001  1.0000
  H   H48       1.0  0.79364  0.77744  0.10903  1.0000
  H   H49       1.0  0.8331500000000001  0.67942  0.07772  1.0000
  H   H50       1.0  0.9481200000000001  0.8458499999999999  0.02648  1.0000
  H   H51       1.0  0.98221  0.34177  0.4706199999999999  1.0000
  H   H52       1.0  0.8935  0.28231  0.40303  1.0000
  H   H53       1.0  0.8995299999999998  0.18492  0.43496  1.0000
  H   H54       1.0  0.06729000000000002  0.14388  0.46644  1.0000
  H   H55       1.0  0.06002  0.24197  0.43684000000000006  1.0000
  H   H56       1.0  0.9650200000000001  0.9865799999999999  0.34645  1.0000
  H   H57       1.0  0.003620000000000104  0.9546999999999998  0.24903  1.0000
  H   H58       1.0  0.20635000000000014  0.8909699999999998  0.22255999999999998  1.0000
  H   H59       1.0  0.16684000000000004  0.92229  0.32058  1.0000
  H   H60       1.0  0.05187  0.9735199999999999  0.15415  1.0000
  H   H61       1.0  0.79493  0.65806  0.52918  1.0000
  H   H62       1.0  0.5803200000000002  0.71659  0.59658  1.0000
  H   H63       1.0  0.52012  0.8138499999999999  0.56553  1.0000
  H   H64       1.0  0.67736  0.85659  0.53359  1.0000
  H   H65       1.0  0.7392900000000001  0.75863  0.56231  1.0000
  H   H66       1.0  0.29895  0.01275  0.65212  1.0000
  H   H67       1.0  0.20846  0.043919999999999994  0.74935  1.0000
  H   H68       1.0  0.3190700000000001  0.10891  0.7781  1.0000
  H   H69       1.0  0.40886000000000006  0.0783  0.68042  1.0000
  H   H70       1.0  0.18080999999999994  0.025099999999999997  0.84467  1.0000
  H   H71       1.0  0.20507  0.47081999999999996  0.34194  1.0000
  H   H72       1.0  0.41966999999999993  0.40342  0.28341  1.0000
  H   H73       1.0  0.47986999999999985  0.43447  0.18616  1.0000
  H   H74       1.0  0.32264  0.46641  0.14341  1.0000
  H   H75       1.0  0.26071000000000005  0.43769  0.24137  1.0000
  H   H76       1.0  0.7010399999999997  0.34787999999999997  0.98725  1.0000
  H   H77       1.0  0.7915400000000001  0.25064  0.95608  1.0000
  H   H78       1.0  0.68093  0.2219  0.89109  1.0000
  H   H79       1.0  0.59113  0.31958  0.9217  1.0000
  H   H80       1.0  0.8191800000000001  0.15533  0.9749  1.0000
  H   H81       1.0  0.96784  0.32206  0.32206  1.0000
  H   H82       1.0  0.03214999999999999  0.67794  0.67794  1.0000
  H   H83       1.0  0.38667000000000007  0.32288  0.32288  1.0000
  H   H84       1.0  0.61332  0.67712  0.67712  1.0000
  H   H85       1.0  0.20939000000000005  0.17687999999999998  0.8225  1.0000
  H   H86       1.0  0.7905999999999999  0.17749  0.82312  1.0000
  H   H87       1.0  0.7906  0.82312  0.1775  1.0000
  H   H88       1.0  0.20939000000000005  0.8225099999999999  0.17688  1.0000
  C   C1        1.0  0.9797899999999999  0.4302  0.35739  1.0000
  C   C2        1.0  0.97429  0.39889  0.32553  1.0000
  C   C3        1.0  0.9762200000000001  0.4182  0.26858  1.0000
  C   C4        1.0  0.9314299999999999  0.417  0.25202  1.0000
  C   C5        1.0  0.93458  0.4346899999999999  0.19792  1.0000
  C   C6        1.0  0.98387  0.45232  0.15897  1.0000
  C   C7        1.0  0.029160000000000047  0.4531  0.17491  1.0000
  C   C8        1.0  0.024690000000000017  0.43686  0.22946  1.0000
  C   C9        1.0  0.98878  0.46996999999999994  0.10067  1.0000
  C   C10       1.0  0.04015000000000005  0.39785  0.9738099999999998  1.0000
  C   C11       1.0  0.06376999999999995  0.33909  0.95624  1.0000
  C   C12       1.0  0.017600000000000015  0.3187  0.96592  1.0000
  C   C13       1.0  0.03941000000000004  0.26427  0.94845  1.0000
  C   C14       1.0  0.1075700000000001  0.22889999999999996  0.92081  1.0000
  C   C15       1.0  0.15347999999999998  0.24969999999999998  0.91147  1.0000
  C   C16       1.0  0.13185999999999998  0.30413  0.9291  1.0000
  C   C17       1.0  0.12930999999999995  0.17191  0.90096  1.0000
  C   C18       1.0  0.09383999999999999  0.13928  0.93258  1.0000
  C   C19       1.0  0.020200000000000003  0.64262  0.5698  1.0000
  C   C20       1.0  0.025700000000000035  0.67447  0.60111  1.0000
  C   C21       1.0  0.023779999999999996  0.73142  0.5818  1.0000
  C   C22       1.0  0.06856000000000002  0.74798  0.583  1.0000
  C   C23       1.0  0.06541  0.8020799999999999  0.56531  1.0000
  C   C24       1.0  0.016130000000000023  0.84103  0.54768  1.0000
  C   C25       1.0  0.97084  0.8250899999999998  0.5469  1.0000
  C   C26       1.0  0.9753  0.7705399999999999  0.56314  1.0000
  C   C27       1.0  0.0112199999999999  0.89933  0.53003  1.0000
  C   C28       1.0  0.95985  0.02618  0.60215  1.0000
  C   C29       1.0  0.9362299999999998  0.04375999999999999  0.66091  1.0000
  C   C30       1.0  0.9823900000000001  0.03408  0.68129  1.0000
  C   C31       1.0  0.9605800000000005  0.051549999999999985  0.73573  1.0000
  C   C32       1.0  0.8924199999999999  0.07919  0.7711  1.0000
  C   C33       1.0  0.8465099999999999  0.08852999999999997  0.75029  1.0000
  C   C34       1.0  0.8681399999999999  0.0709  0.69586  1.0000
  C   C35       1.0  0.87069  0.09904  0.8280899999999999  1.0000
  C   C36       1.0  0.9061600000000001  0.06742  0.86072  1.0000
  C   C37       1.0  0.23206999999999994  0.35764  0.43044  1.0000
  C   C38       1.0  0.30036999999999997  0.32595  0.39938999999999997  1.0000
  C   C39       1.0  0.33602000000000004  0.26897  0.41869999999999996  1.0000
  C   C40       1.0  0.39845  0.25275  0.41729000000000005  1.0000
  C   C41       1.0  0.43213000000000007  0.19864999999999997  0.43454  1.0000
  C   C42       1.0  0.40477  0.15913  0.452  1.0000
  C   C43       1.0  0.3427700000000001  0.17475999999999997  0.45315999999999995  1.0000
  C   C44       1.0  0.30849  0.22935  0.43736  1.0000
  C   C45       1.0  0.44099  0.10077  0.46926  1.0000
  C   C46       1.0  0.5881899999999998  0.97375  0.39816  1.0000
  C   C47       1.0  0.6407500000000002  0.9564  0.33945  1.0000
  C   C48       1.0  0.6971399999999993  0.96654  0.31969  1.0000
  C   C49       1.0  0.7471799999999998  0.9494  0.26536  1.0000
  C   C50       1.0  0.7424099999999999  0.9215699999999999  0.22951  1.0000
  C   C51       1.0  0.68558  0.9117499999999998  0.24963  1.0000
  C   C52       1.0  0.6352  0.9290499999999999  0.30392  1.0000
  C   C53       1.0  0.7972300000000002  0.90184  0.17267999999999997  1.0000
  C   C54       1.0  0.8333399999999999  0.93378  0.14029  1.0000
  C   C55       1.0  0.7679199999999999  0.56956  0.64236  1.0000
  C   C56       1.0  0.6996200000000001  0.60061  0.67405  1.0000
  C   C57       1.0  0.66397  0.5813  0.73103  1.0000
  C   C58       1.0  0.60154  0.58271  0.74725  1.0000
  C   C59       1.0  0.5678700000000001  0.56546  0.80135  1.0000
  C   C60       1.0  0.59523  0.548  0.84087  1.0000
  C   C61       1.0  0.6572299999999998  0.54684  0.82524  1.0000
  C   C62       1.0  0.6914999999999999  0.56264  0.77065  1.0000
  C   C63       1.0  0.559  0.53074  0.89923  1.0000
  C   C64       1.0  0.41179999999999994  0.60185  0.026250000000000002  1.0000
  C   C65       1.0  0.35924000000000006  0.66055  0.0436  1.0000
  C   C66       1.0  0.30285  0.68031  0.03346  1.0000
  C   C67       1.0  0.2528199999999999  0.73464  0.0506  1.0000
  C   C68       1.0  0.25758  0.7704899999999999  0.07843  1.0000
  C   C69       1.0  0.31442  0.7503699999999998  0.08825000000000001  1.0000
  C   C70       1.0  0.36479999999999996  0.69608  0.07095  1.0000
  C   C71       1.0  0.20276000000000002  0.82732  0.09816  1.0000
  C   C72       1.0  0.16666000000000003  0.8597199999999999  0.06622  1.0000
  C   C73       1.0  0.020200000000000003  0.5698  0.64261  1.0000
  C   C74       1.0  0.025699999999999893  0.60111  0.67447  1.0000
  C   C75       1.0  0.023779999999999996  0.5818  0.73142  1.0000
  C   C76       1.0  0.06855999999999988  0.583  0.74798  1.0000
  C   C77       1.0  0.06540999999999993  0.56531  0.8020800000000001  1.0000
  C   C78       1.0  0.016130000000000023  0.54768  0.8410299999999999  1.0000
  C   C79       1.0  0.9708400000000001  0.5469  0.82508  1.0000
  C   C80       1.0  0.9753  0.56314  0.77054  1.0000
  C   C81       1.0  0.011219999999999971  0.53003  0.89933  1.0000
  C   C82       1.0  0.95985  0.60215  0.02619  1.0000
  C   C83       1.0  0.93623  0.66091  0.04376  1.0000
  C   C84       1.0  0.98239  0.6813  0.03408  1.0000
  C   C85       1.0  0.96058  0.7357299999999999  0.05155  1.0000
  C   C86       1.0  0.89242  0.7711  0.07919  1.0000
  C   C87       1.0  0.84651  0.7502999999999999  0.08853  1.0000
  C   C88       1.0  0.8681300000000002  0.69587  0.0709  1.0000
  C   C89       1.0  0.87069  0.82809  0.09904  1.0000
  C   C90       1.0  0.9061599999999999  0.8607199999999998  0.06742  1.0000
  C   C91       1.0  0.9797899999999998  0.35738999999999993  0.4302  1.0000
  C   C92       1.0  0.9742900000000002  0.32553  0.39889  1.0000
  C   C93       1.0  0.9762199999999998  0.26858  0.4182  1.0000
  C   C94       1.0  0.9314299999999998  0.25202  0.417  1.0000
  C   C95       1.0  0.93458  0.19792  0.43469  1.0000
  C   C96       1.0  0.9838699999999999  0.15897  0.45232000000000006  1.0000
  C   C97       1.0  0.02916000000000003  0.17491  0.4531  1.0000
  C   C98       1.0  0.02469  0.22946  0.4368600000000001  1.0000
  C   C99       1.0  0.9887800000000001  0.10066999999999998  0.46997  1.0000
  C   C100      1.0  0.04015000000000012  0.9738199999999999  0.39785000000000004  1.0000
  C   C101      1.0  0.06377000000000002  0.95624  0.33909  1.0000
  C   C102      1.0  0.01759999999999998  0.9659199999999999  0.3187  1.0000
  C   C103      1.0  0.0394099999999999  0.94845  0.26427  1.0000
  C   C104      1.0  0.10757000000000008  0.9208099999999999  0.2289  1.0000
  C   C105      1.0  0.15347999999999998  0.91148  0.24970999999999996  1.0000
  C   C106      1.0  0.13186000000000006  0.9291  0.30414  1.0000
  C   C107      1.0  0.12931000000000012  0.9009699999999999  0.17191  1.0000
  C   C108      1.0  0.09384000000000009  0.9325799999999999  0.13928  1.0000
  C   C109      1.0  0.7679200000000002  0.64236  0.56956  1.0000
  C   C110      1.0  0.69962  0.67405  0.60061  1.0000
  C   C111      1.0  0.66397  0.73103  0.5813  1.0000
  C   C112      1.0  0.6015399999999997  0.74725  0.58271  1.0000
  C   C113      1.0  0.5678699999999998  0.80135  0.56546  1.0000
  C   C114      1.0  0.5952299999999997  0.84087  0.548  1.0000
  C   C115      1.0  0.6572300000000001  0.82524  0.54684  1.0000
  C   C116      1.0  0.6915000000000001  0.77065  0.56264  1.0000
  C   C117      1.0  0.5590000000000002  0.8992299999999998  0.53074  1.0000
  C   C118      1.0  0.41179999999999994  0.026249999999999996  0.60184  1.0000
  C   C119      1.0  0.3592399999999998  0.0436  0.66055  1.0000
  C   C120      1.0  0.30285000000000006  0.03346  0.6803099999999999  1.0000
  C   C121      1.0  0.25282  0.0506  0.73464  1.0000
  C   C122      1.0  0.25758000000000003  0.07843  0.7704899999999999  1.0000
  C   C123      1.0  0.31442000000000003  0.08825  0.7503699999999999  1.0000
  C   C124      1.0  0.36479999999999996  0.07095  0.69608  1.0000
  C   C125      1.0  0.20275999999999997  0.09816  0.82732  1.0000
  C   C126      1.0  0.16666000000000003  0.06622  0.8597099999999999  1.0000
  C   C127      1.0  0.23206999999999997  0.4304499999999999  0.35764  1.0000
  C   C128      1.0  0.3003700000000001  0.39939  0.32595  1.0000
  C   C129      1.0  0.33602  0.4187  0.26897  1.0000
  C   C130      1.0  0.39844999999999997  0.41729  0.25275  1.0000
  C   C131      1.0  0.43213  0.43454  0.19864999999999997  1.0000
  C   C132      1.0  0.4047700000000001  0.452  0.15913  1.0000
  C   C133      1.0  0.34277  0.45316  0.17476000000000003  1.0000
  C   C134      1.0  0.30848999999999993  0.43736  0.22935  1.0000
  C   C135      1.0  0.44099  0.46926  0.10077  1.0000
  C   C136      1.0  0.58819  0.39816  0.97375  1.0000
  C   C137      1.0  0.64075  0.33945  0.9564  1.0000
  C   C138      1.0  0.6971400000000001  0.31969  0.96654  1.0000
  C   C139      1.0  0.7471799999999998  0.26536  0.9494  1.0000
  C   C140      1.0  0.7424099999999999  0.22951  0.9215700000000001  1.0000
  C   C141      1.0  0.68558  0.24962999999999996  0.91175  1.0000
  C   C142      1.0  0.6352  0.30392  0.92905  1.0000
  C   C143      1.0  0.79723  0.17268  0.90184  1.0000
  C   C144      1.0  0.8333400000000001  0.14028  0.93378  1.0000
  C   C145      1.0  0.9852999999999994  0.44442  0.4444199999999999  1.0000
  C   C146      1.0  0.9814700000000002  0.4099699999999999  0.40997  1.0000
  C   C147      1.0  0.97019  0.34731  0.34731  1.0000
  C   C148      1.0  0.014690000000000047  0.55558  0.55558  1.0000
  C   C149      1.0  0.018530000000000022  0.59003  0.59003  1.0000
  C   C150      1.0  0.02980000000000006  0.65269  0.65269  1.0000
  C   C151      1.0  0.1254600000000001  0.44401999999999997  0.44401999999999997  1.0000
  C   C152      1.0  0.19811000000000004  0.41007999999999994  0.41008  1.0000
  C   C153      1.0  0.3340799999999999  0.34788999999999987  0.34789  1.0000
  C   C154      1.0  0.8745400000000001  0.55598  0.55598  1.0000
  C   C155      1.0  0.8018800000000001  0.58992  0.58992  1.0000
  C   C156      1.0  0.6659199999999998  0.65211  0.65211  1.0000
  C   C157      1.0  0.18364  0.15067  0.84859  1.0000
  C   C158      1.0  0.11208999999999997  0.0869  0.9119000000000002  1.0000
  C   C159      1.0  0.07189000000000002  0.05398  0.94493  1.0000
  C   C160      1.0  0.8163500000000001  0.15141  0.84933  1.0000
  C   C161      1.0  0.8879  0.08808999999999999  0.9130999999999999  1.0000
  C   C162      1.0  0.9281100000000001  0.05507  0.94602  1.0000
  C   C163      1.0  0.8163499999999999  0.84933  0.15141  1.0000
  C   C164      1.0  0.8879  0.9131  0.0881  1.0000
  C   C165      1.0  0.9281099999999999  0.94602  0.05507  1.0000
  C   C166      1.0  0.18364000000000005  0.84859  0.15067  1.0000
  C   C167      1.0  0.11209000000000001  0.9119099999999999  0.0869  1.0000
  C   C168      1.0  0.07189  0.94493  0.05398  1.0000
  O   O1        1.0  0.9868400000000002  0.49208  0.4237  1.0000
  O   O2        1.0  0.9379300000000003  0.48247  0.09221  1.0000
  O   O3        1.0  0.9772099999999998  0.42804999999999993  0.99538  1.0000
  O   O4        1.0  0.043720000000000016  0.47113999999999995  0.06345  1.0000
  O   O5        1.0  0.08415999999999998  0.41394  0.9656799999999999  1.0000
  O   O6        1.0  0.022050000000000014  0.07563  0.99199  1.0000
  O   O7        1.0  0.013149999999999969  0.5763  0.50792  1.0000
  O   O8        1.0  0.06205999999999997  0.90779  0.51753  1.0000
  O   O9        1.0  0.022779999999999995  0.004619999999999999  0.57195  1.0000
  O   O10       1.0  0.9562699999999998  0.9365499999999999  0.52886  1.0000
  O   O11       1.0  0.91584  0.03431  0.58606  1.0000
  O   O12       1.0  0.9779400000000001  0.00801  0.92436  1.0000
  O   O13       1.0  0.09703000000000003  0.42302  0.4914200000000001  1.0000
  O   O14       1.0  0.48695000000000005  0.09308  0.4825999999999999  1.0000
  O   O15       1.0  0.5984800000000001  0.99627  0.42866  1.0000
  O   O16       1.0  0.4233  0.06281  0.46944  1.0000
  O   O17       1.0  0.5370400000000001  0.9645699999999999  0.41395  1.0000
  O   O18       1.0  0.9105100000000003  0.9928  0.07677  1.0000
  O   O19       1.0  0.9029599999999999  0.50858  0.57698  1.0000
  O   O20       1.0  0.5130499999999998  0.5174  0.90692  1.0000
  O   O21       1.0  0.40152  0.57134  0.00373  1.0000
  O   O22       1.0  0.5766999999999999  0.53056  0.93719  1.0000
  O   O23       1.0  0.46294999999999986  0.58605  0.03543  1.0000
  O   O24       1.0  0.08947999999999998  0.92323  0.00721  1.0000
  O   O25       1.0  0.013150000000000038  0.50792  0.5763  1.0000
  O   O26       1.0  0.062059999999999865  0.51753  0.9077900000000001  1.0000
  O   O27       1.0  0.022780000000000005  0.57195  0.00462  1.0000
  O   O28       1.0  0.9562699999999998  0.52886  0.9365499999999999  1.0000
  O   O29       1.0  0.91584  0.58606  0.03432  1.0000
  O   O30       1.0  0.9779400000000001  0.9243699999999999  0.00801  1.0000
  O   O31       1.0  0.9868399999999999  0.4237  0.49208  1.0000
  O   O32       1.0  0.93793  0.09221  0.48247  1.0000
  O   O33       1.0  0.9772099999999998  0.99538  0.42805  1.0000
  O   O34       1.0  0.04372000000000005  0.06345  0.47114  1.0000
  O   O35       1.0  0.0841600000000001  0.96568  0.41394  1.0000
  O   O36       1.0  0.022049999999999955  0.99199  0.07564  1.0000
  O   O37       1.0  0.9029599999999999  0.57698  0.50858  1.0000
  O   O38       1.0  0.51305  0.90692  0.5174  1.0000
  O   O39       1.0  0.40152  0.003729999999999999  0.57134  1.0000
  O   O40       1.0  0.5767  0.93719  0.53056  1.0000
  O   O41       1.0  0.46294999999999986  0.03543  0.58605  1.0000
  O   O42       1.0  0.08948999999999999  0.0072  0.92323  1.0000
  O   O43       1.0  0.09703000000000003  0.49142  0.42302  1.0000
  O   O44       1.0  0.48695000000000005  0.4826  0.09308  1.0000
  O   O45       1.0  0.5984800000000002  0.42865999999999993  0.99627  1.0000
  O   O46       1.0  0.4233  0.46943999999999997  0.06281  1.0000
  O   O47       1.0  0.5370399999999997  0.41394999999999993  0.96457  1.0000
  O   O48       1.0  0.91051  0.07677  0.9927899999999998  1.0000
