data_image0
_chemical_formula_structural       Y8H60C132N12O60
_chemical_formula_sum              "Y8 H60 C132 N12 O60"
_cell_length_a       14.4733
_cell_length_b       20.37919
_cell_length_c       21.307460000000003
_cell_angle_alpha    90.11206
_cell_angle_beta     90.0
_cell_angle_gamma    90.0

_symmetry_space_group_name_H-M    'P 1'
_symmetry_Int_Tables_number       1

loop_
  _symmetry_equiv_pos_as_xyz
  'x,y,z'

loop_
  _atom_site_type_symbol
  _atom_site_label
  _atom_site_symmetry_multiplicity
  _atom_site_fract_x
  _atom_site_fract_y
  _atom_site_fract_z
  _atom_site_occupancy
  Y   Y1        1.0  0.05517  0.17422  0.9096099999999999  1.0000
  Y   Y2        1.0  0.8051299999999998  0.34282999999999997  0.9278199999999999  1.0000
  Y   Y3        1.0  0.44439  0.8255800000000001  0.4085  1.0000
  Y   Y4        1.0  0.69405  0.65674  0.42746999999999996  1.0000
  Y   Y5        1.0  0.9443899999999997  0.67443  0.5915  1.0000
  Y   Y6        1.0  0.19404999999999994  0.84326  0.57253  1.0000
  Y   Y7        1.0  0.55517  0.32577999999999996  0.09037999999999999  1.0000
  Y   Y8        1.0  0.30513  0.15716999999999998  0.07218  1.0000
  H   H1        1.0  0.71306  0.9443599999999999  0.9231699999999999  1.0000
  H   H2        1.0  0.5399499999999999  0.8356299999999999  0.79092  1.0000
  H   H3        1.0  0.65647  0.71804  0.10513999999999998  1.0000
  H   H4        1.0  0.68124  0.21858  0.99619  1.0000
  H   H5        1.0  0.54442  0.03295  0.01962  1.0000
  H   H6        1.0  0.8068999999999997  0.043059999999999994  0.9230999999999999  1.0000
  H   H7        1.0  0.6111499999999997  0.809  0.06322  1.0000
  H   H8        1.0  0.5833699999999999  0.66895  0.91159  1.0000
  H   H9        1.0  0.629  0.87345  0.87217  1.0000
  H   H10       1.0  0.4448899999999999  0.83705  0.69482  1.0000
  H   H11       1.0  0.5678799999999999  0.7555  0.52825  1.0000
  H   H12       1.0  0.7056  0.73417  0.7057999999999999  1.0000
  H   H13       1.0  0.64589  0.69072  0.21687  1.0000
  H   H14       1.0  0.6258099999999998  0.4859899999999999  0.26446  1.0000
  H   H15       1.0  0.5996899999999997  0.54628  0.07161  1.0000
  H   H16       1.0  0.78703  0.054869999999999995  0.42262  1.0000
  H   H17       1.0  0.9595399999999997  0.16592  0.29125  1.0000
  H   H18       1.0  0.84155  0.28258  0.60534  1.0000
  H   H19       1.0  0.81732  0.7811799999999999  0.49636  1.0000
  H   H20       1.0  0.95554  0.96644  0.51943  1.0000
  H   H21       1.0  0.69364  0.9565499999999999  0.4220499999999999  1.0000
  H   H22       1.0  0.8892799999999998  0.19083999999999998  0.56356  1.0000
  H   H23       1.0  0.91481  0.33123  0.41255  1.0000
  H   H24       1.0  0.87029  0.12661  0.37226  1.0000
  H   H25       1.0  0.053839999999999985  0.16406  0.1959  1.0000
  H   H26       1.0  0.9320399999999998  0.24504999999999996  0.02892  1.0000
  H   H27       1.0  0.7927199999999998  0.2665  0.20599999999999996  1.0000
  H   H28       1.0  0.8522099999999998  0.30956  0.71672  1.0000
  H   H29       1.0  0.8743499999999997  0.51399  0.7660099999999999  1.0000
  H   H30       1.0  0.8993399999999998  0.45441  0.57261  1.0000
  H   H31       1.0  0.28703  0.44513  0.57738  1.0000
  H   H32       1.0  0.45954  0.33408  0.70875  1.0000
  H   H33       1.0  0.34155  0.21741999999999997  0.39465999999999996  1.0000
  H   H34       1.0  0.31732  0.71883  0.50364  1.0000
  H   H35       1.0  0.4555399999999999  0.53356  0.4805699999999999  1.0000
  H   H36       1.0  0.19363999999999995  0.54345  0.57795  1.0000
  H   H37       1.0  0.38928  0.30916  0.4364399999999999  1.0000
  H   H38       1.0  0.4147999999999999  0.16878  0.58745  1.0000
  H   H39       1.0  0.3702899999999999  0.3734  0.62774  1.0000
  H   H40       1.0  0.55384  0.33594  0.8040999999999999  1.0000
  H   H41       1.0  0.43203999999999987  0.25495  0.97108  1.0000
  H   H42       1.0  0.29270999999999997  0.2335  0.794  1.0000
  H   H43       1.0  0.35221  0.19044  0.28328  1.0000
  H   H44       1.0  0.3743499999999999  0.9860099999999999  0.23399  1.0000
  H   H45       1.0  0.39933  0.04559  0.42738999999999994  1.0000
  H   H46       1.0  0.21306  0.55564  0.07682  1.0000
  H   H47       1.0  0.03994  0.66438  0.20906999999999998  1.0000
  H   H48       1.0  0.15646  0.7819599999999999  0.8948599999999998  1.0000
  H   H49       1.0  0.18124  0.28142  0.0038  1.0000
  H   H50       1.0  0.04441999999999999  0.46704999999999997  0.98038  1.0000
  H   H51       1.0  0.3069  0.45693999999999996  0.0769  1.0000
  H   H52       1.0  0.11115  0.691  0.93678  1.0000
  H   H53       1.0  0.08335999999999998  0.83105  0.08841  1.0000
  H   H54       1.0  0.129  0.62656  0.12783  1.0000
  H   H55       1.0  0.9448999999999997  0.66295  0.30516999999999994  1.0000
  H   H56       1.0  0.06788  0.7445  0.47175  1.0000
  H   H57       1.0  0.20559999999999995  0.76583  0.29419999999999996  1.0000
  H   H58       1.0  0.14587999999999995  0.8092799999999999  0.78313  1.0000
  H   H59       1.0  0.12581  0.014010000000000002  0.73553  1.0000
  H   H60       1.0  0.09968999999999999  0.95372  0.92839  1.0000
  C   C1        1.0  0.82921  0.17447  0.93141  1.0000
  C   C2        1.0  0.75079  0.1347  0.95596  1.0000
  C   C3        1.0  0.67958  0.16585  0.9891  1.0000
  C   C4        1.0  0.606  0.12877  0.01242  1.0000
  C   C5        1.0  0.60291  0.06085999999999999  0.0023199999999999996  1.0000
  C   C6        1.0  0.6753  0.02954  0.9703699999999997  1.0000
  C   C7        1.0  0.7496399999999998  0.06646  0.9475899999999999  1.0000
  C   C8        1.0  0.5271499999999999  0.16098  0.04581  1.0000
  C   C9        1.0  0.63126  0.91515  0.99725  1.0000
  C   C10       1.0  0.6235599999999998  0.8472299999999999  0.97051  1.0000
  C   C11       1.0  0.61198  0.79586  0.01362  1.0000
  C   C12       1.0  0.59795  0.73161  0.9926  1.0000
  C   C13       1.0  0.5948399999999999  0.71886  0.9280099999999999  1.0000
  C   C14       1.0  0.60625  0.76948  0.8845  1.0000
  C   C15       1.0  0.6206699999999998  0.8338399999999999  0.90592  1.0000
  C   C16       1.0  0.60633  0.7499  0.8166199999999999  1.0000
  C   C17       1.0  0.57552  0.78666  0.7084699999999999  1.0000
  C   C18       1.0  0.50172  0.81057  0.67286  1.0000
  C   C19       1.0  0.50013  0.8003799999999999  0.60774  1.0000
  C   C20       1.0  0.42115  0.82529  0.56978  1.0000
  C   C21       1.0  0.5704199999999998  0.76424  0.5784899999999998  1.0000
  C   C22       1.0  0.64381  0.73994  0.6142599999999999  1.0000
  C   C23       1.0  0.72214  0.70303  0.58469  1.0000
  C   C24       1.0  0.6472899999999998  0.75221  0.6789499999999999  1.0000
  C   C25       1.0  0.58196  0.67349  0.03448999999999999  1.0000
  C   C26       1.0  0.62242  0.62511  0.138  1.0000
  C   C27       1.0  0.63682  0.64025  0.20125  1.0000
  C   C28       1.0  0.6395999999999998  0.59024  0.24647  1.0000
  C   C29       1.0  0.6251999999999998  0.52455  0.22922999999999996  1.0000
  C   C30       1.0  0.61017  0.5099  0.16571  1.0000
  C   C31       1.0  0.61027  0.55951  0.12030999999999999  1.0000
  C   C32       1.0  0.6567999999999998  0.61064  0.31272  1.0000
  C   C33       1.0  0.5933499999999998  0.44202  0.1418  1.0000
  C   C34       1.0  0.6706599999999998  0.82533  0.43034  1.0000
  C   C35       1.0  0.74885  0.86504  0.45557999999999993  1.0000
  C   C36       1.0  0.8195899999999998  0.8338499999999999  0.4891  1.0000
  C   C37       1.0  0.8932999999999999  0.87083  0.51248  1.0000
  C   C38       1.0  0.89691  0.9386799999999998  0.50206  1.0000
  C   C39       1.0  0.82492  0.97008  0.46987999999999996  1.0000
  C   C40       1.0  0.7504899999999998  0.9331999999999999  0.44695999999999997  1.0000
  C   C41       1.0  0.97216  0.83889  0.54609  1.0000
  C   C42       1.0  0.8686899999999997  0.08466  0.49682999999999994  1.0000
  C   C43       1.0  0.87621  0.15267  0.47059999999999996  1.0000
  C   C44       1.0  0.88809  0.20395  0.51401  1.0000
  C   C45       1.0  0.90172  0.26828  0.49327999999999994  1.0000
  C   C46       1.0  0.9040399999999997  0.28123  0.42877999999999994  1.0000
  C   C47       1.0  0.89239  0.23070999999999997  0.38504  1.0000
  C   C48       1.0  0.8785399999999998  0.16626  0.40612  1.0000
  C   C49       1.0  0.8907999999999998  0.25056  0.31737999999999994  1.0000
  C   C50       1.0  0.9229799999999998  0.21426  0.20902  1.0000
  C   C51       1.0  0.99713  0.19033  0.17366  1.0000
  C   C52       1.0  0.9993099999999999  0.20041  0.10857999999999998  1.0000
  C   C53       1.0  0.07854  0.17531  0.07082999999999999  1.0000
  C   C54       1.0  0.9291599999999998  0.23638  0.07913  1.0000
  C   C55       1.0  0.8554  0.26059  0.1147  1.0000
  C   C56       1.0  0.77753  0.29731  0.08472  1.0000
  C   C57       1.0  0.8513499999999998  0.24855  0.17935  1.0000
  C   C58       1.0  0.9175199999999998  0.32651  0.53528  1.0000
  C   C59       1.0  0.8762299999999997  0.37543  0.63849  1.0000
  C   C60       1.0  0.8616799999999998  0.36007999999999996  0.70156  1.0000
  C   C61       1.0  0.85943  0.40978000000000003  0.7472399999999999  1.0000
  C   C62       1.0  0.87449  0.47552999999999995  0.73052  1.0000
  C   C63       1.0  0.8895299999999998  0.49047999999999997  0.66708  1.0000
  C   C64       1.0  0.88894  0.44103  0.6212599999999999  1.0000
  C   C65       1.0  0.84153  0.38845  0.8130799999999999  1.0000
  C   C66       1.0  0.9065599999999998  0.55844  0.6434099999999999  1.0000
  C   C67       1.0  0.17065999999999995  0.67468  0.56965  1.0000
  C   C68       1.0  0.24884999999999993  0.63497  0.54442  1.0000
  C   C69       1.0  0.31959  0.66615  0.5109  1.0000
  C   C70       1.0  0.39329  0.62917  0.48751  1.0000
  C   C71       1.0  0.39689999999999986  0.56132  0.49793  1.0000
  C   C72       1.0  0.32491  0.52992  0.53012  1.0000
  C   C73       1.0  0.25049  0.5668  0.55303  1.0000
  C   C74       1.0  0.47215999999999997  0.66111  0.45391  1.0000
  C   C75       1.0  0.36869  0.41535  0.50316  1.0000
  C   C76       1.0  0.37621  0.34733  0.52939  1.0000
  C   C77       1.0  0.3880899999999999  0.29605  0.48599  1.0000
  C   C78       1.0  0.40172  0.23172  0.50672  1.0000
  C   C79       1.0  0.40404  0.21877  0.57122  1.0000
  C   C80       1.0  0.39239  0.2693  0.61495  1.0000
  C   C81       1.0  0.3785399999999999  0.33375  0.59388  1.0000
  C   C82       1.0  0.3907999999999999  0.24944  0.6826199999999999  1.0000
  C   C83       1.0  0.4229699999999999  0.28573999999999994  0.7909799999999999  1.0000
  C   C84       1.0  0.4971299999999999  0.30967  0.8263399999999999  1.0000
  C   C85       1.0  0.49930999999999987  0.29959  0.89142  1.0000
  C   C86       1.0  0.5785499999999998  0.32469999999999993  0.92916  1.0000
  C   C87       1.0  0.42916  0.26362  0.92086  1.0000
  C   C88       1.0  0.3553999999999999  0.23940999999999998  0.88529  1.0000
  C   C89       1.0  0.27752  0.2027  0.9152699999999999  1.0000
  C   C90       1.0  0.35135  0.25145  0.8206499999999999  1.0000
  C   C91       1.0  0.41752  0.1735  0.46472  1.0000
  C   C92       1.0  0.3762299999999999  0.12457999999999998  0.36150999999999994  1.0000
  C   C93       1.0  0.3616799999999999  0.13992  0.29844  1.0000
  C   C94       1.0  0.3594299999999999  0.09023  0.25276  1.0000
  C   C95       1.0  0.3744899999999999  0.02448  0.26947  1.0000
  C   C96       1.0  0.38953  0.00952  0.33291  1.0000
  C   C97       1.0  0.3889399999999999  0.05898  0.37873999999999997  1.0000
  C   C98       1.0  0.3415299999999999  0.11155  0.18690999999999997  1.0000
  C   C99       1.0  0.40656  0.94156  0.35658999999999996  1.0000
  C   C100      1.0  0.3292099999999999  0.32553  0.06859  1.0000
  C   C101      1.0  0.25079  0.36529999999999996  0.04403  1.0000
  C   C102      1.0  0.17957  0.33416  0.010899999999999998  1.0000
  C   C103      1.0  0.10598999999999997  0.37124  0.98758  1.0000
  C   C104      1.0  0.10289999999999999  0.43914  0.9976799999999999  1.0000
  C   C105      1.0  0.17529999999999996  0.47045999999999993  0.02963  1.0000
  C   C106      1.0  0.24963999999999995  0.43354  0.05240999999999999  1.0000
  C   C107      1.0  0.027149999999999994  0.33902  0.95418  1.0000
  C   C108      1.0  0.13126  0.58485  0.00275  1.0000
  C   C109      1.0  0.12355999999999998  0.65277  0.02948  1.0000
  C   C110      1.0  0.11197999999999997  0.70414  0.9863699999999997  1.0000
  C   C111      1.0  0.09795  0.7684  0.007389999999999999  1.0000
  C   C112      1.0  0.09483999999999997  0.78115  0.07199  1.0000
  C   C113      1.0  0.10625  0.73052  0.1155  1.0000
  C   C114      1.0  0.12066999999999997  0.66616  0.09408  1.0000
  C   C115      1.0  0.10632999999999997  0.7501  0.18337  1.0000
  C   C116      1.0  0.07551999999999998  0.71335  0.29151999999999995  1.0000
  C   C117      1.0  0.00172  0.68943  0.3271299999999999  1.0000
  C   C118      1.0  0.00013  0.6996199999999999  0.39225999999999994  1.0000
  C   C119      1.0  0.92115  0.67471  0.43021999999999994  1.0000
  C   C120      1.0  0.07042  0.73576  0.42151  1.0000
  C   C121      1.0  0.14381  0.76006  0.38573999999999997  1.0000
  C   C122      1.0  0.22213999999999995  0.79697  0.4153  1.0000
  C   C123      1.0  0.14728999999999995  0.74779  0.32104  1.0000
  C   C124      1.0  0.08194999999999998  0.8265099999999999  0.9655099999999999  1.0000
  C   C125      1.0  0.12241999999999997  0.8749  0.8619899999999999  1.0000
  C   C126      1.0  0.13682  0.8597499999999999  0.79875  1.0000
  C   C127      1.0  0.13958999999999994  0.9097599999999999  0.7535299999999999  1.0000
  C   C128      1.0  0.1252  0.97545  0.7707699999999998  1.0000
  C   C129      1.0  0.11016999999999998  0.9901099999999999  0.83429  1.0000
  C   C130      1.0  0.11026999999999998  0.94049  0.8796799999999998  1.0000
  C   C131      1.0  0.1568  0.88936  0.68728  1.0000
  C   C132      1.0  0.09335  0.05798  0.8582  1.0000
  N   N1        1.0  0.6720999999999998  0.96139  0.95831  1.0000
  N   N2        1.0  0.57841  0.79777  0.77408  1.0000
  N   N3        1.0  0.62274  0.6761699999999999  0.09309  1.0000
  N   N4        1.0  0.8284099999999998  0.03817  0.45762  1.0000
  N   N5        1.0  0.9201699999999998  0.20329999999999998  0.27454  1.0000
  N   N6        1.0  0.8754899999999998  0.32434  0.59343  1.0000
  N   N7        1.0  0.32841  0.46183  0.5423799999999999  1.0000
  N   N8        1.0  0.42017  0.2967  0.72545  1.0000
  N   N9        1.0  0.37549  0.17566  0.4065699999999999  1.0000
  N   N10       1.0  0.1721  0.53861  0.04168  1.0000
  N   N11       1.0  0.07841  0.70223  0.22592  1.0000
  N   N12       1.0  0.12274  0.8238299999999998  0.9069099999999999  1.0000
  O   O1        1.0  0.9031199999999998  0.14576  0.9140499999999999  1.0000
  O   O2        1.0  0.8192699999999999  0.23658  0.9300499999999999  1.0000
  O   O3        1.0  0.53756  0.21788  0.06991  1.0000
  O   O4        1.0  0.45122999999999996  0.12945  0.04783  1.0000
  O   O5        1.0  0.60093  0.9283899999999999  0.049789999999999994  1.0000
  O   O6        1.0  0.34657  0.84154  0.59751  1.0000
  O   O7        1.0  0.43091  0.828  0.51045  1.0000
  O   O8        1.0  0.71202  0.67602  0.53097  1.0000
  O   O9        1.0  0.7974399999999999  0.70111  0.61565  1.0000
  O   O10       1.0  0.63075  0.69468  0.8002099999999998  1.0000
  O   O11       1.0  0.6803  0.56935  0.35523  1.0000
  O   O12       1.0  0.64871  0.67217  0.32625  1.0000
  O   O13       1.0  0.5691299999999998  0.39495  0.17821  1.0000
  O   O14       1.0  0.60179  0.43197  0.08232  1.0000
  O   O15       1.0  0.5364799999999998  0.62626  0.01567  1.0000
  O   O16       1.0  0.597  0.85411  0.4126299999999999  1.0000
  O   O17       1.0  0.68072  0.76322  0.42856  1.0000
  O   O18       1.0  0.9621099999999998  0.78258  0.57141  1.0000
  O   O19       1.0  0.048159999999999994  0.87042  0.54666  1.0000
  O   O20       1.0  0.89906  0.07149  0.5493  1.0000
  O   O21       1.0  0.15297  0.15904  0.09871999999999999  1.0000
  O   O22       1.0  0.06911999999999997  0.17225  0.01148  1.0000
  O   O23       1.0  0.78934  0.32488  0.03163  1.0000
  O   O24       1.0  0.7011499999999999  0.29854  0.11449999999999999  1.0000
  O   O25       1.0  0.8640899999999998  0.30539  0.30157  1.0000
  O   O26       1.0  0.8197599999999998  0.4293  0.8565599999999999  1.0000
  O   O27       1.0  0.84684  0.3266  0.82533  1.0000
  O   O28       1.0  0.9306699999999998  0.60588  0.67965  1.0000
  O   O29       1.0  0.8982499999999998  0.5681  0.5838899999999999  1.0000
  O   O30       1.0  0.96359  0.37357  0.51693  1.0000
  O   O31       1.0  0.09699999999999998  0.6459  0.5873599999999999  1.0000
  O   O32       1.0  0.18071999999999996  0.73678  0.57144  1.0000
  O   O33       1.0  0.46211  0.71742  0.42859  1.0000
  O   O34       1.0  0.5481699999999999  0.62958  0.45334  1.0000
  O   O35       1.0  0.3990499999999999  0.42851  0.4506999999999999  1.0000
  O   O36       1.0  0.65297  0.34096  0.90128  1.0000
  O   O37       1.0  0.56912  0.32776  0.9885199999999998  1.0000
  O   O38       1.0  0.28934  0.17512  0.96836  1.0000
  O   O39       1.0  0.20114999999999994  0.20145999999999997  0.8855  1.0000
  O   O40       1.0  0.3640899999999999  0.19461  0.6984199999999999  1.0000
  O   O41       1.0  0.31976  0.0707  0.14344  1.0000
  O   O42       1.0  0.34683999999999987  0.17341  0.17465999999999998  1.0000
  O   O43       1.0  0.4306699999999999  0.8941199999999999  0.32034  1.0000
  O   O44       1.0  0.39825  0.9318999999999998  0.41611  1.0000
  O   O45       1.0  0.4635899999999999  0.12643  0.48306999999999994  1.0000
  O   O46       1.0  0.4031099999999999  0.35424  0.08595  1.0000
  O   O47       1.0  0.3192699999999999  0.26342  0.06995  1.0000
  O   O48       1.0  0.03756  0.28212  0.93009  1.0000
  O   O49       1.0  0.9512299999999998  0.37055  0.95216  1.0000
  O   O50       1.0  0.10092999999999998  0.57162  0.9502099999999999  1.0000
  O   O51       1.0  0.8465699999999999  0.65846  0.4024899999999999  1.0000
  O   O52       1.0  0.93091  0.672  0.48954999999999993  1.0000
  O   O53       1.0  0.21201  0.82398  0.46902999999999995  1.0000
  O   O54       1.0  0.29744  0.79889  0.38435  1.0000
  O   O55       1.0  0.13074999999999998  0.80532  0.19979  1.0000
  O   O56       1.0  0.1803  0.9306499999999999  0.64477  1.0000
  O   O57       1.0  0.14870999999999998  0.8278299999999998  0.67374  1.0000
  O   O58       1.0  0.06912999999999997  0.10505  0.8217899999999998  1.0000
  O   O59       1.0  0.10179  0.06803  0.91767  1.0000
  O   O60       1.0  0.03646999999999999  0.87374  0.98433  1.0000
