data_image0
_chemical_formula_structural       Ba10H120C200O40
_chemical_formula_sum              "Ba10 H120 C200 O40"
_cell_length_a       10.83112
_cell_length_b       19.88196
_cell_length_c       25.995260000000002
_cell_angle_alpha    101.35062
_cell_angle_beta     101.80204
_cell_angle_gamma    94.6098

_symmetry_space_group_name_H-M    'P 1'
_symmetry_Int_Tables_number       1

loop_
  _symmetry_equiv_pos_as_xyz
  'x,y,z'

loop_
  _atom_site_type_symbol
  _atom_site_label
  _atom_site_symmetry_multiplicity
  _atom_site_fract_x
  _atom_site_fract_y
  _atom_site_fract_z
  _atom_site_occupancy
  Ba  Ba1       1.0  0.8229699999999999  0.18146  0.29046  1.0000
  Ba  Ba2       1.0  0.53029  0.30038  0.18980000000000002  1.0000
  Ba  Ba3       1.0  0.46517  0.20976000000000003  0.34178  1.0000
  Ba  Ba4       1.0  0.9203  0.36374000000000006  0.23008000000000003  1.0000
  Ba  Ba5       1.0  0.15244  0.19850000000000004  0.21457  1.0000
  Ba  Ba6       1.0  0.17698000000000005  0.8185500000000001  0.7095500000000001  1.0000
  Ba  Ba7       1.0  0.46969999999999995  0.6996200000000001  0.81019  1.0000
  Ba  Ba8       1.0  0.53482  0.79024  0.65822  1.0000
  Ba  Ba9       1.0  0.07970000000000005  0.63627  0.76992  1.0000
  Ba  Ba10      1.0  0.8475199999999997  0.80148  0.78548  1.0000
  H   H1        1.0  0.8896799999999999  0.21075000000000002  0.7226  1.0000
  H   H2        1.0  0.9530799999999998  0.12392  0.45358  1.0000
  H   H3        1.0  0.91193  0.71648  0.53393  1.0000
  H   H4        1.0  0.09316000000000005  0.7965200000000001  0.14568  1.0000
  H   H5        1.0  0.6706499999999999  0.49857000000000007  0.82748  1.0000
  H   H6        1.0  0.67184  0.89222  0.87065  1.0000
  H   H7        1.0  0.85782  0.11532000000000002  0.10605  1.0000
  H   H8        1.0  0.71685  0.013140000000000006  0.10795000000000002  1.0000
  H   H9        1.0  0.91546  0.28524  0.65737  1.0000
  H   H10       1.0  0.66278  0.65657  0.91337  1.0000
  H   H11       1.0  0.75178  0.82203  0.44721  1.0000
  H   H12       1.0  0.9387  0.86555  0.18229  1.0000
  H   H13       1.0  0.4391200000000002  0.9524800000000001  0.81727  1.0000
  H   H14       1.0  0.72437  0.19370000000000007  0.48038  1.0000
  H   H15       1.0  0.8457899999999999  0.67527  0.36121  1.0000
  H   H16       1.0  0.80024  0.9329800000000003  0.31309  1.0000
  H   H17       1.0  0.8633899999999999  0.52086  0.62516  1.0000
  H   H18       1.0  0.73744  0.8123600000000001  0.014880000000000004  1.0000
  H   H19       1.0  0.75962  0.8934000000000001  0.10383000000000003  1.0000
  H   H20       1.0  0.75609  0.9117100000000001  0.1903  1.0000
  H   H21       1.0  0.55096  0.36438  0.00559  1.0000
  H   H22       1.0  0.6693499999999999  0.8505900000000001  0.93154  1.0000
  H   H23       1.0  0.41385  0.8288700000000001  0.31017  1.0000
  H   H24       1.0  0.8480999999999999  0.57282  0.8606500000000002  1.0000
  H   H25       1.0  0.62343  0.51248  0.09478000000000003  1.0000
  H   H26       1.0  0.56205  0.04574999999999997  0.83683  1.0000
  H   H27       1.0  0.70639  0.61023  0.60751  1.0000
  H   H28       1.0  0.73278  0.6892200000000002  0.9946700000000003  1.0000
  H   H29       1.0  0.8964500000000001  0.7582100000000002  0.45056000000000007  1.0000
  H   H30       1.0  0.86293  0.59358  0.25553  1.0000
  H   H31       1.0  0.8415799999999999  0.02105999999999999  0.4141  1.0000
  H   H32       1.0  0.09291  0.67251  0.15183  1.0000
  H   H33       1.0  0.8118700000000001  0.353  0.45116000000000006  1.0000
  H   H34       1.0  0.65346  0.37431  0.78766  1.0000
  H   H35       1.0  0.96253  0.9082000000000001  0.6291600000000002  1.0000
  H   H36       1.0  0.79025  0.8951100000000001  0.3831900000000001  1.0000
  H   H37       1.0  0.93908  0.6188700000000001  0.19375  1.0000
  H   H38       1.0  0.8553399999999999  0.08408000000000002  0.69207  1.0000
  H   H39       1.0  0.64291  0.63591  0.13623000000000002  1.0000
  H   H40       1.0  0.58411  0.1504  0.08165  1.0000
  H   H41       1.0  0.73286  0.98158  0.65052  1.0000
  H   H42       1.0  0.5732899999999999  0.56333  0.21775000000000005  1.0000
  H   H43       1.0  0.70697  0.72478  0.08751000000000002  1.0000
  H   H44       1.0  0.5886  0.20155  0.014690000000000003  1.0000
  H   H45       1.0  0.567  0.88076  0.266  1.0000
  H   H46       1.0  0.51492  0.16503000000000004  0.84213  1.0000
  H   H47       1.0  0.8166499999999999  0.55  0.356  1.0000
  H   H48       1.0  0.83376  0.39577  0.6213  1.0000
  H   H49       1.0  0.7775600000000003  0.87399  0.54348  1.0000
  H   H50       1.0  0.5206300000000001  0.2420900000000001  0.9314200000000002  1.0000
  H   H51       1.0  0.97946  0.66727  0.60731  1.0000
  H   H52       1.0  0.43186  0.71055  0.32784  1.0000
  H   H53       1.0  0.63834  0.38099  0.39471000000000006  1.0000
  H   H54       1.0  0.59124  0.64224  0.29555  1.0000
  H   H55       1.0  0.8659199999999999  0.4473800000000001  0.36093000000000003  1.0000
  H   H56       1.0  0.8098099999999999  0.31176  0.5335  1.0000
  H   H57       1.0  0.7863199999999997  0.43186  0.09409  1.0000
  H   H58       1.0  0.90524  0.23221  0.56261  1.0000
  H   H59       1.0  0.66753  0.32708  0.94294  1.0000
  H   H60       1.0  0.6580500000000001  0.28794000000000003  0.8457100000000001  1.0000
  H   H61       1.0  0.11032  0.78925  0.2774  1.0000
  H   H62       1.0  0.04692000000000009  0.87609  0.5464200000000001  1.0000
  H   H63       1.0  0.08806999999999997  0.28352  0.46607  1.0000
  H   H64       1.0  0.9068399999999998  0.20347999999999997  0.85432  1.0000
  H   H65       1.0  0.32935  0.50143  0.17252  1.0000
  H   H66       1.0  0.32816  0.10778  0.12935  1.0000
  H   H67       1.0  0.14217999999999997  0.8846800000000001  0.89395  1.0000
  H   H68       1.0  0.2831500000000002  0.98686  0.8920400000000003  1.0000
  H   H69       1.0  0.08454  0.71476  0.34263  1.0000
  H   H70       1.0  0.33722  0.34343000000000007  0.08662000000000003  1.0000
  H   H71       1.0  0.24821  0.17797000000000002  0.55278  1.0000
  H   H72       1.0  0.06129999999999999  0.13446  0.81771  1.0000
  H   H73       1.0  0.5608700000000001  0.04752000000000002  0.18273000000000006  1.0000
  H   H74       1.0  0.27562  0.8063  0.51962  1.0000
  H   H75       1.0  0.1542  0.32473  0.63878  1.0000
  H   H76       1.0  0.19976000000000002  0.06702999999999999  0.68691  1.0000
  H   H77       1.0  0.13661000000000006  0.47914000000000007  0.3748400000000001  1.0000
  H   H78       1.0  0.2625600000000001  0.18763999999999997  0.98512  1.0000
  H   H79       1.0  0.24036999999999997  0.10661000000000001  0.89617  1.0000
  H   H80       1.0  0.24391  0.08829  0.80969  1.0000
  H   H81       1.0  0.44904  0.63562  0.9944  1.0000
  H   H82       1.0  0.33065  0.14941  0.06846  1.0000
  H   H83       1.0  0.58615  0.17113  0.68982  1.0000
  H   H84       1.0  0.1519  0.42718  0.13935000000000003  1.0000
  H   H85       1.0  0.37655999999999995  0.48752000000000006  0.9052200000000001  1.0000
  H   H86       1.0  0.43795  0.95425  0.16317000000000004  1.0000
  H   H87       1.0  0.29362000000000005  0.38978  0.3925  1.0000
  H   H88       1.0  0.26721  0.31078  0.00533  1.0000
  H   H89       1.0  0.10354999999999996  0.24179  0.54944  1.0000
  H   H90       1.0  0.13707000000000005  0.40642000000000006  0.74447  1.0000
  H   H91       1.0  0.15842  0.9789400000000001  0.58591  1.0000
  H   H92       1.0  0.9070799999999999  0.3274900000000001  0.8481700000000002  1.0000
  H   H93       1.0  0.18813  0.6469999999999999  0.54884  1.0000
  H   H94       1.0  0.34654000000000007  0.62569  0.21234  1.0000
  H   H95       1.0  0.03755000000000005  0.09180000000000006  0.37092000000000014  1.0000
  H   H96       1.0  0.20975  0.10489  0.6168  1.0000
  H   H97       1.0  0.06090999999999999  0.38113  0.80625  1.0000
  H   H98       1.0  0.14465  0.91592  0.30793  1.0000
  H   H99       1.0  0.35709  0.3640900000000001  0.8637700000000003  1.0000
  H   H100      1.0  0.41589000000000004  0.8496  0.9183500000000002  1.0000
  H   H101      1.0  0.26716999999999996  0.018410000000000037  0.34949000000000013  1.0000
  H   H102      1.0  0.42671  0.43667000000000006  0.78225  1.0000
  H   H103      1.0  0.2930300000000002  0.27522000000000013  0.9124800000000002  1.0000
  H   H104      1.0  0.41140000000000004  0.79845  0.9853100000000002  1.0000
  H   H105      1.0  0.433  0.11924  0.734  1.0000
  H   H106      1.0  0.48508  0.83497  0.15787  1.0000
  H   H107      1.0  0.18335000000000007  0.45  0.6439900000000001  1.0000
  H   H108      1.0  0.16624000000000003  0.6042300000000003  0.3786900000000001  1.0000
  H   H109      1.0  0.22243999999999997  0.126  0.45652  1.0000
  H   H110      1.0  0.47937  0.75791  0.06858  1.0000
  H   H111      1.0  0.020550000000000002  0.33274000000000004  0.39269  1.0000
  H   H112      1.0  0.56814  0.28945  0.67216  1.0000
  H   H113      1.0  0.36165999999999987  0.61901  0.60529  1.0000
  H   H114      1.0  0.40875999999999996  0.3577600000000001  0.70445  1.0000
  H   H115      1.0  0.13406999999999997  0.55263  0.63906  1.0000
  H   H116      1.0  0.19019  0.68824  0.4665  1.0000
  H   H117      1.0  0.21368000000000015  0.56814  0.9059100000000002  1.0000
  H   H118      1.0  0.09475999999999998  0.76778  0.43738  1.0000
  H   H119      1.0  0.33247  0.67292  0.05706  1.0000
  H   H120      1.0  0.34194  0.71206  0.15429  1.0000
  C   C1        1.0  0.51919  0.8657400000000001  0.77732  1.0000
  C   C2        1.0  0.78546  0.18717000000000003  0.16494000000000003  1.0000
  C   C3        1.0  0.8526800000000003  0.88452  0.68689  1.0000
  C   C4        1.0  0.88169  0.18712  0.6804  1.0000
  C   C5        1.0  0.88015  0.13600000000000004  0.47620000000000007  1.0000
  C   C6        1.0  0.81277  0.21226  0.41446  1.0000
  C   C7        1.0  0.82102  0.68998  0.67451  1.0000
  C   C8        1.0  0.66168  0.45635000000000003  0.9959100000000002  1.0000
  C   C9        1.0  0.8895300000000002  0.67957  0.49538000000000004  1.0000
  C   C10       1.0  0.024760000000000032  0.77315  0.16446000000000002  1.0000
  C   C11       1.0  0.67333  0.46158000000000005  0.8532100000000002  1.0000
  C   C12       1.0  0.6053299999999999  0.9306200000000001  0.87029  1.0000
  C   C13       1.0  0.61941  0.9807800000000001  0.92073  1.0000
  C   C14       1.0  0.80008  0.6709200000000001  0.8415000000000001  1.0000
  C   C15       1.0  0.6685199999999999  0.52755  0.01985  1.0000
  C   C16       1.0  0.83129  0.010520000000000024  0.5907500000000001  1.0000
  C   C17       1.0  0.77302  0.13825  0.11296  1.0000
  C   C18       1.0  0.65892  0.3447  0.10206  1.0000
  C   C19       1.0  0.69108  0.5788300000000001  0.9892600000000003  1.0000
  C   C20       1.0  0.8434899999999999  0.022000000000000002  0.49862  1.0000
  C   C21       1.0  0.71096  0.9792200000000001  0.06905  1.0000
  C   C22       1.0  0.89634  0.2292800000000001  0.6433700000000001  1.0000
  C   C23       1.0  0.71372  0.61202  0.90458  1.0000
  C   C24       1.0  0.8645799999999999  0.09502000000000002  0.5161600000000001  1.0000
  C   C25       1.0  0.7804399999999999  0.87731  0.46204  1.0000
  C   C26       1.0  0.60718  0.09691000000000004  0.97451  1.0000
  C   C27       1.0  0.79388  0.02215  0.27541  1.0000
  C   C28       1.0  0.66809  0.79127  0.25388  1.0000
  C   C29       1.0  0.68215  0.33867  0.31781  1.0000
  C   C30       1.0  0.69664  0.48449  0.23665  1.0000
  C   C31       1.0  0.93815  0.8115  0.18460000000000004  1.0000
  C   C32       1.0  0.51742  0.92172  0.8235700000000001  1.0000
  C   C33       1.0  0.59486  0.05058000000000003  0.92287  1.0000
  C   C34       1.0  0.68275  0.48652  0.90952  1.0000
  C   C35       1.0  0.80462  0.18294999999999997  0.46203000000000005  1.0000
  C   C36       1.0  0.8544199999999998  0.65575  0.3979200000000001  1.0000
  C   C37       1.0  0.8491  0.71125  0.21442000000000005  1.0000
  C   C38       1.0  0.78665  0.94635  0.27383  1.0000
  C   C39       1.0  0.84888  0.48443  0.58679  1.0000
  C   C40       1.0  0.72132  0.8659700000000001  0.01647  1.0000
  C   C41       1.0  0.7344300000000001  0.9119500000000001  0.06686000000000002  1.0000
  C   C42       1.0  0.7652499999999999  0.89624  0.22885  1.0000
  C   C43       1.0  0.6338800000000001  0.40269  0.024920000000000005  1.0000
  C   C44       1.0  0.68376  0.88811  0.96943  1.0000
  C   C45       1.0  0.7608899999999998  0.6804  0.23949  1.0000
  C   C46       1.0  0.48658  0.79964  0.29681  1.0000
  C   C47       1.0  0.7884800000000002  0.6133100000000001  0.8688900000000003  1.0000
  C   C48       1.0  0.64914  0.55068  0.07291  1.0000
  C   C49       1.0  0.87169  0.60731  0.4941  1.0000
  C   C50       1.0  0.82558  0.97919  0.53617  1.0000
  C   C51       1.0  0.564  0.07827000000000009  0.8757900000000002  1.0000
  C   C52       1.0  0.8004199999999999  0.63993  0.62258  1.0000
  C   C53       1.0  0.6714200000000001  0.43585  0.94164  1.0000
  C   C54       1.0  0.70805  0.65012  0.016  1.0000
  C   C55       1.0  0.85193  0.08353  0.6081  1.0000
  C   C56       1.0  0.6607499999999995  0.95797  0.96951  1.0000
  C   C57       1.0  0.8815599999999998  0.70298  0.44859  1.0000
  C   C58       1.0  0.7679799999999999  0.60836  0.24377000000000004  1.0000
  C   C59       1.0  0.6490899999999998  0.07409  0.02284  1.0000
  C   C60       1.0  0.84712  0.7822000000000001  0.20945000000000003  1.0000
  C   C61       1.0  0.83118  0.98957  0.4432100000000001  1.0000
  C   C62       1.0  0.025120000000000003  0.70292  0.16827000000000003  1.0000
  C   C63       1.0  0.81852  0.39021000000000006  0.48855  1.0000
  C   C64       1.0  0.86747  0.12643000000000004  0.57044  1.0000
  C   C65       1.0  0.7585  0.82222  0.23018000000000002  1.0000
  C   C66       1.0  0.66308  0.3920100000000001  0.8308000000000001  1.0000
  C   C67       1.0  0.8782  0.91976  0.6443  1.0000
  C   C68       1.0  0.86993  0.58289  0.54158  1.0000
  C   C69       1.0  0.8011400000000001  0.91914  0.42552000000000006  1.0000
  C   C70       1.0  0.9395499999999999  0.6731300000000001  0.19232000000000005  1.0000
  C   C71       1.0  0.84849  0.511  0.53947  1.0000
  C   C72       1.0  0.67588  0.005030000000000001  0.02111  1.0000
  C   C73       1.0  0.67072  0.7202100000000001  0.25957  1.0000
  C   C74       1.0  0.86129  0.11631000000000001  0.66315  1.0000
  C   C75       1.0  0.65995  0.61982  0.09613  1.0000
  C   C76       1.0  0.66459  0.12314000000000001  0.07451000000000002  1.0000
  C   C77       1.0  0.80911  0.96916  0.6297800000000001  1.0000
  C   C78       1.0  0.84804  0.5590200000000001  0.4428500000000001  1.0000
  C   C79       1.0  0.67185  0.55631  0.23258  1.0000
  C   C80       1.0  0.69344  0.67018  0.06794000000000001  1.0000
  C   C81       1.0  0.5804700000000003  0.16637000000000002  0.9760200000000002  1.0000
  C   C82       1.0  0.6967500000000001  0.5581700000000002  0.9342100000000002  1.0000
  C   C83       1.0  0.82826  0.48697  0.4404900000000001  1.0000
  C   C84       1.0  0.57145  0.8284  0.27201  1.0000
  C   C85       1.0  0.8301799999999999  0.46226000000000006  0.4883900000000001  1.0000
  C   C86       1.0  0.5386  0.14553000000000008  0.8788000000000002  1.0000
  C   C87       1.0  0.83857  0.58565  0.39515  1.0000
  C   C88       1.0  0.83253  0.4146300000000001  0.5846700000000001  1.0000
  C   C89       1.0  0.7937800000000004  0.9063100000000001  0.51575  1.0000
  C   C90       1.0  0.54407  0.18959999999999994  0.9294  1.0000
  C   C91       1.0  0.88955  0.63296  0.5932  1.0000
  C   C92       1.0  0.49556999999999995  0.73197  0.30607000000000006  1.0000
  C   C93       1.0  0.7078600000000002  0.38692000000000004  0.3705200000000001  1.0000
  C   C94       1.0  0.5845  0.6937  0.28791  1.0000
  C   C95       1.0  0.80453  0.43888  0.38812000000000013  1.0000
  C   C96       1.0  0.8180399999999999  0.3669799999999999  0.53491  1.0000
  C   C97       1.0  0.69996  0.3971200000000001  0.07337  1.0000
  C   C98       1.0  0.89027  0.19966000000000003  0.59027  1.0000
  C   C99       1.0  0.66738  0.3644800000000001  0.91754  1.0000
  C   C100      1.0  0.66325  0.34271  0.8635700000000001  1.0000
  C   C101      1.0  0.48079999999999995  0.13426  0.22268  1.0000
  C   C102      1.0  0.21453  0.8128300000000002  0.83506  1.0000
  C   C103      1.0  0.14733999999999997  0.11551000000000002  0.3132  1.0000
  C   C104      1.0  0.11831000000000007  0.8128800000000002  0.3196  1.0000
  C   C105      1.0  0.11983999999999999  0.864  0.5238  1.0000
  C   C106      1.0  0.18722  0.78774  0.58554  1.0000
  C   C107      1.0  0.17898999999999998  0.31003  0.32549000000000006  1.0000
  C   C108      1.0  0.33830999999999994  0.54365  0.00409  1.0000
  C   C109      1.0  0.11046000000000007  0.32043  0.5046200000000001  1.0000
  C   C110      1.0  0.9752299999999999  0.22685  0.83554  1.0000
  C   C111      1.0  0.32667  0.53842  0.14679  1.0000
  C   C112      1.0  0.39466999999999997  0.06938  0.1297  1.0000
  C   C113      1.0  0.38058  0.01922  0.07927  1.0000
  C   C114      1.0  0.19991  0.32907000000000003  0.1585  1.0000
  C   C115      1.0  0.33148  0.47245  0.98015  1.0000
  C   C116      1.0  0.16875000000000007  0.98946  0.4092600000000001  1.0000
  C   C117      1.0  0.22698000000000004  0.8617499999999999  0.8870400000000002  1.0000
  C   C118      1.0  0.34107  0.6553  0.8979300000000001  1.0000
  C   C119      1.0  0.30892  0.42117  0.01074  1.0000
  C   C120      1.0  0.15651  0.9779900000000001  0.50139  1.0000
  C   C121      1.0  0.28904  0.020780000000000017  0.9309500000000002  1.0000
  C   C122      1.0  0.10366  0.7707100000000001  0.35663  1.0000
  C   C123      1.0  0.28627  0.38798  0.09542000000000003  1.0000
  C   C124      1.0  0.13542000000000004  0.90497  0.48384000000000005  1.0000
  C   C125      1.0  0.21956  0.12269000000000001  0.53795  1.0000
  C   C126      1.0  0.39282  0.90309  0.02549  1.0000
  C   C127      1.0  0.20611999999999997  0.9778500000000001  0.72459  1.0000
  C   C128      1.0  0.33191  0.20873  0.74611  1.0000
  C   C129      1.0  0.31784999999999997  0.66133  0.6821900000000001  1.0000
  C   C130      1.0  0.3033600000000001  0.5155200000000001  0.7633600000000003  1.0000
  C   C131      1.0  0.061850000000000155  0.1885100000000001  0.8154000000000002  1.0000
  C   C132      1.0  0.48258  0.07828  0.17643  1.0000
  C   C133      1.0  0.40512999999999993  0.94942  0.07712  1.0000
  C   C134      1.0  0.31725  0.51348  0.09047  1.0000
  C   C135      1.0  0.19537000000000004  0.81705  0.5379700000000001  1.0000
  C   C136      1.0  0.14558000000000001  0.34425  0.60208  1.0000
  C   C137      1.0  0.15089000000000014  0.2887500000000001  0.7855700000000002  1.0000
  C   C138      1.0  0.21335000000000007  0.05365000000000004  0.7261600000000002  1.0000
  C   C139      1.0  0.15111  0.51557  0.41321  1.0000
  C   C140      1.0  0.27868000000000004  0.13403000000000007  0.9835300000000002  1.0000
  C   C141      1.0  0.26557  0.08805000000000003  0.9331300000000001  1.0000
  C   C142      1.0  0.23475  0.10376000000000002  0.77115  1.0000
  C   C143      1.0  0.3661200000000002  0.59731  0.9750800000000002  1.0000
  C   C144      1.0  0.31623  0.11189  0.030570000000000003  1.0000
  C   C145      1.0  0.23909999999999998  0.3196  0.76051  1.0000
  C   C146      1.0  0.51341  0.20037  0.70319  1.0000
  C   C147      1.0  0.21152  0.38668  0.13111  1.0000
  C   C148      1.0  0.35086  0.44932  0.92709  1.0000
  C   C149      1.0  0.12831  0.3927  0.5059  1.0000
  C   C150      1.0  0.17442999999999995  0.020809999999999995  0.46383  1.0000
  C   C151      1.0  0.436  0.9217300000000002  0.12421  1.0000
  C   C152      1.0  0.19958999999999996  0.36008000000000007  0.37742000000000003  1.0000
  C   C153      1.0  0.32857  0.56415  0.05836  1.0000
  C   C154      1.0  0.29195000000000015  0.34988000000000014  0.9840000000000002  1.0000
  C   C155      1.0  0.14808000000000002  0.91645  0.3919000000000001  1.0000
  C   C156      1.0  0.33925  0.042030000000000005  0.03049  1.0000
  C   C157      1.0  0.11844  0.29702  0.55141  1.0000
  C   C158      1.0  0.23201999999999992  0.39164000000000004  0.75623  1.0000
  C   C159      1.0  0.35091  0.92591  0.97716  1.0000
  C   C160      1.0  0.15288000000000004  0.21780000000000008  0.7905500000000001  1.0000
  C   C161      1.0  0.16881  0.010429999999999997  0.55679  1.0000
  C   C162      1.0  0.97488  0.2970800000000001  0.8317300000000002  1.0000
  C   C163      1.0  0.18147  0.60979  0.51145  1.0000
  C   C164      1.0  0.13252  0.87356  0.42956  1.0000
  C   C165      1.0  0.24149999999999994  0.17778  0.76982  1.0000
  C   C166      1.0  0.33692  0.60799  0.1692  1.0000
  C   C167      1.0  0.12186  0.08024  0.35577  1.0000
  C   C168      1.0  0.13007000000000002  0.41712  0.45842000000000005  1.0000
  C   C169      1.0  0.19886  0.08086  0.57447  1.0000
  C   C170      1.0  0.06045000000000001  0.32687  0.8076800000000001  1.0000
  C   C171      1.0  0.15151  0.48900000000000005  0.46053  1.0000
  C   C172      1.0  0.32412  0.99497  0.9788900000000001  1.0000
  C   C173      1.0  0.32927000000000006  0.27979  0.7404300000000001  1.0000
  C   C174      1.0  0.13871000000000006  0.88369  0.33685000000000004  1.0000
  C   C175      1.0  0.34004  0.38019  0.90386  1.0000
  C   C176      1.0  0.3354100000000001  0.87686  0.9254800000000001  1.0000
  C   C177      1.0  0.19095  0.030830000000000017  0.3702500000000001  1.0000
  C   C178      1.0  0.15196000000000004  0.44098000000000004  0.55715  1.0000
  C   C179      1.0  0.32814999999999994  0.4436899999999999  0.76742  1.0000
  C   C180      1.0  0.30656  0.32982000000000006  0.93206  1.0000
  C   C181      1.0  0.41953  0.83363  0.02397  1.0000
  C   C182      1.0  0.30324  0.44183000000000006  0.06579  1.0000
  C   C183      1.0  0.17174000000000003  0.51303  0.5595  1.0000
  C   C184      1.0  0.42855000000000004  0.17160000000000006  0.72799  1.0000
  C   C185      1.0  0.16982000000000003  0.53774  0.51161  1.0000
  C   C186      1.0  0.4613999999999999  0.85447  0.12120000000000002  1.0000
  C   C187      1.0  0.16143000000000005  0.41435  0.6048500000000001  1.0000
  C   C188      1.0  0.16747  0.5853700000000001  0.41532000000000013  1.0000
  C   C189      1.0  0.20622000000000001  0.09369000000000005  0.4842500000000001  1.0000
  C   C190      1.0  0.45591999999999994  0.8104000000000001  0.0706  1.0000
  C   C191      1.0  0.11044999999999996  0.36705  0.4068  1.0000
  C   C192      1.0  0.50442  0.26803  0.69393  1.0000
  C   C193      1.0  0.29213  0.61308  0.62948  1.0000
  C   C194      1.0  0.4155000000000001  0.30630000000000007  0.7120800000000003  1.0000
  C   C195      1.0  0.1954699999999999  0.56112  0.61188  1.0000
  C   C196      1.0  0.18196000000000007  0.6330200000000001  0.4650900000000001  1.0000
  C   C197      1.0  0.3000300000000002  0.6028800000000002  0.9266300000000002  1.0000
  C   C198      1.0  0.10972000000000007  0.80033  0.40972000000000003  1.0000
  C   C199      1.0  0.33261999999999997  0.63552  0.08245  1.0000
  C   C200      1.0  0.33674000000000004  0.65729  0.13643  1.0000
  O   O1        1.0  0.9166299999999998  0.21891  0.39968  1.0000
  O   O2        1.0  0.8992199999999999  0.21178  0.19267  1.0000
  O   O3        1.0  0.6001299999999999  0.82162  0.78123  1.0000
  O   O4        1.0  0.72488  0.71767  0.8441500000000001  1.0000
  O   O5        1.0  0.8067099999999999  0.060780000000000015  0.32248000000000004  1.0000
  O   O6        1.0  0.68736  0.20219  0.1823  1.0000
  O   O7        1.0  0.7868099999999999  0.04399000000000002  0.23202000000000006  1.0000
  O   O8        1.0  0.94409  0.8580900000000001  0.7120100000000003  1.0000
  O   O9        1.0  0.7063899999999999  0.22627  0.38795  1.0000
  O   O10       1.0  0.56882  0.3065  0.29977  1.0000
  O   O11       1.0  0.7691  0.32929  0.2913  1.0000
  O   O12       1.0  0.8872600000000002  0.67285  0.8147500000000002  1.0000
  O   O13       1.0  0.60077  0.4377  0.2217  1.0000
  O   O14       1.0  0.7426499999999999  0.88184  0.69824  1.0000
  O   O15       1.0  0.93195  0.7047700000000002  0.7055600000000001  1.0000
  O   O16       1.0  0.55  0.30942  0.08577  1.0000
  O   O17       1.0  0.43745000000000006  0.86236  0.7333600000000001  1.0000
  O   O18       1.0  0.73763  0.34  0.14560000000000003  1.0000
  O   O19       1.0  0.7245399999999999  0.717  0.6873800000000001  1.0000
  O   O20       1.0  0.81198  0.47462  0.25431  1.0000
  O   O21       1.0  0.08337000000000001  0.7810900000000001  0.60032  1.0000
  O   O22       1.0  0.10077999999999998  0.78822  0.80733  1.0000
  O   O23       1.0  0.3998499999999999  0.17838  0.21877  1.0000
  O   O24       1.0  0.27511  0.28232  0.15586  1.0000
  O   O25       1.0  0.1932800000000001  0.9392200000000002  0.6775100000000001  1.0000
  O   O26       1.0  0.31264  0.7978100000000001  0.8176900000000001  1.0000
  O   O27       1.0  0.21320000000000022  0.95601  0.7679800000000001  1.0000
  O   O28       1.0  0.055920000000000004  0.14202  0.28818  1.0000
  O   O29       1.0  0.2936  0.77373  0.61205  1.0000
  O   O30       1.0  0.43116999999999983  0.6935  0.70023  1.0000
  O   O31       1.0  0.23088999999999998  0.67071  0.7087  1.0000
  O   O32       1.0  0.11273  0.32715  0.18525  1.0000
  O   O33       1.0  0.39922999999999986  0.5623000000000001  0.77829  1.0000
  O   O34       1.0  0.2573  0.11815  0.30176  1.0000
  O   O35       1.0  0.06806  0.2952600000000001  0.29444  1.0000
  O   O36       1.0  0.45000000000000007  0.69058  0.9142300000000001  1.0000
  O   O37       1.0  0.56254  0.13764  0.26664  1.0000
  O   O38       1.0  0.26235999999999987  0.66001  0.8544  1.0000
  O   O39       1.0  0.27546  0.28301  0.31262  1.0000
  O   O40       1.0  0.18800999999999998  0.52539  0.74574  1.0000
