data_image0
_chemical_formula_structural       La4H96C96N16O16
_chemical_formula_sum              "La4 H96 C96 N16 O16"
_cell_length_a       10.03479
_cell_length_b       13.941429999999999
_cell_length_c       29.45643
_cell_angle_alpha    90.14612000000001
_cell_angle_beta     89.98776999999998
_cell_angle_gamma    89.28706

_symmetry_space_group_name_H-M    'P 1'
_symmetry_Int_Tables_number       1

loop_
  _symmetry_equiv_pos_as_xyz
  'x,y,z'

loop_
  _atom_site_type_symbol
  _atom_site_label
  _atom_site_symmetry_multiplicity
  _atom_site_fract_x
  _atom_site_fract_y
  _atom_site_fract_z
  _atom_site_occupancy
  La  La1       1.0  0.54359  0.9062600000000002  0.53459  1.0000
  La  La2       1.0  0.96218  0.40583  0.96565  1.0000
  La  La3       1.0  0.4611  0.09343000000000001  0.4652900000000001  1.0000
  La  La4       1.0  0.04209  0.59407  0.03412  1.0000
  H   H1        1.0  0.7094200000000002  0.88488  0.4488000000000001  1.0000
  H   H2        1.0  0.8449700000000002  0.8585200000000001  0.3779000000000001  1.0000
  H   H3        1.0  0.66295  0.58049  0.3637300000000001  1.0000
  H   H4        1.0  0.53839  0.61577  0.4358300000000001  1.0000
  H   H5        1.0  0.8702700000000001  0.7740400000000002  0.3069500000000001  1.0000
  H   H6        1.0  0.93182  0.6616700000000002  0.3242400000000001  1.0000
  H   H7        1.0  0.6527600000000001  0.6860600000000001  0.2833  1.0000
  H   H8        1.0  0.7423  0.5784900000000002  0.29087  1.0000
  H   H9        1.0  0.0141  0.62305  0.25205  1.0000
  H   H10       1.0  0.09946  0.64208  0.17319000000000007  1.0000
  H   H11       1.0  0.72699  0.7266600000000002  0.12533  1.0000
  H   H12       1.0  0.62542  0.7116200000000003  0.20245  1.0000
  H   H13       1.0  0.87276  0.93562  0.64184  1.0000
  H   H14       1.0  0.8922000000000001  0.8541100000000003  0.71702  1.0000
  H   H15       1.0  0.72943  0.6006600000000002  0.65395  1.0000
  H   H16       1.0  0.7143400000000001  0.69354  0.58132  1.0000
  H   H17       1.0  0.7094900000000001  0.6757  0.75378  1.0000
  H   H18       1.0  0.8219900000000002  0.5896500000000002  0.73233  1.0000
  H   H19       1.0  0.8967900000000001  0.7780200000000003  0.7798000000000003  1.0000
  H   H20       1.0  0.013359999999999999  0.6968  0.75586  1.0000
  H   H21       1.0  0.11965000000000003  0.59273  0.8066200000000002  1.0000
  H   H22       1.0  0.11994000000000002  0.50059  0.87902  1.0000
  H   H23       1.0  0.73248  0.58385  0.9082900000000003  1.0000
  H   H24       1.0  0.7175900000000002  0.6848200000000002  0.8384500000000003  1.0000
  H   H25       1.0  0.7982700000000001  0.38642  0.05200000000000001  1.0000
  H   H26       1.0  0.6564200000000001  0.35737  0.12109  1.0000
  H   H27       1.0  0.8524000000000002  0.08128000000000003  0.13591000000000006  1.0000
  H   H28       1.0  0.9833100000000001  0.11947  0.06589  1.0000
  H   H29       1.0  0.62759  0.27259  0.19087000000000007  1.0000
  H   H30       1.0  0.57677  0.15835  0.17326000000000003  1.0000
  H   H31       1.0  0.84984  0.19054  0.21684  1.0000
  H   H32       1.0  0.77008  0.0807  0.20874000000000006  1.0000
  H   H33       1.0  0.49023000000000005  0.12353000000000003  0.24579  1.0000
  H   H34       1.0  0.4023300000000001  0.13869000000000004  0.3247500000000001  1.0000
  H   H35       1.0  0.7697100000000001  0.22342  0.3745300000000001  1.0000
  H   H36       1.0  0.8739600000000001  0.21199  0.29744  1.0000
  H   H37       1.0  0.6258800000000001  0.42983000000000005  0.86124  1.0000
  H   H38       1.0  0.60207  0.35077000000000014  0.7855000000000002  1.0000
  H   H39       1.0  0.77625  0.09431000000000003  0.84432  1.0000
  H   H40       1.0  0.79618  0.18516000000000005  0.91755  1.0000
  H   H41       1.0  0.78866  0.16656  0.7466100000000002  1.0000
  H   H42       1.0  0.66891  0.08694000000000002  0.7669700000000003  1.0000
  H   H43       1.0  0.6114100000000001  0.27971  0.7200700000000002  1.0000
  H   H44       1.0  0.48742  0.20570000000000002  0.74331  1.0000
  H   H45       1.0  0.38173000000000007  0.09659  0.6949  1.0000
  H   H46       1.0  0.37855  0.00345  0.62245  1.0000
  H   H47       1.0  0.7621500000000001  0.08347  0.5901300000000003  1.0000
  H   H48       1.0  0.7792  0.18585000000000004  0.6597900000000001  1.0000
  H   H49       1.0  0.29686  0.11474  0.55071  1.0000
  H   H50       1.0  0.15986  0.14137  0.6211800000000002  1.0000
  H   H51       1.0  0.34252000000000005  0.41902  0.6359100000000002  1.0000
  H   H52       1.0  0.46854000000000007  0.38357  0.56412  1.0000
  H   H53       1.0  0.13171  0.22591000000000006  0.6917300000000002  1.0000
  H   H54       1.0  0.07114  0.33833  0.6740800000000001  1.0000
  H   H55       1.0  0.3485  0.31419000000000014  0.7163  1.0000
  H   H56       1.0  0.2585  0.42153  0.70862  1.0000
  H   H57       1.0  0.9856900000000002  0.37573  0.74682  1.0000
  H   H58       1.0  0.9003500000000001  0.35763  0.82581  1.0000
  H   H59       1.0  0.27263  0.27331  0.8738900000000002  1.0000
  H   H60       1.0  0.3743700000000001  0.28766  0.7967500000000002  1.0000
  H   H61       1.0  0.12857000000000002  0.06398000000000001  0.35866  1.0000
  H   H62       1.0  0.10808  0.14540000000000006  0.28351  1.0000
  H   H63       1.0  0.2714500000000001  0.39892  0.34628  1.0000
  H   H64       1.0  0.28773  0.3061  0.41888  1.0000
  H   H65       1.0  0.29053  0.3240400000000001  0.24660000000000007  1.0000
  H   H66       1.0  0.17798  0.41003  0.26808  1.0000
  H   H67       1.0  0.10324000000000003  0.22176  0.22050000000000006  1.0000
  H   H68       1.0  0.98663  0.30304  0.24437000000000003  1.0000
  H   H69       1.0  0.8804700000000001  0.40694  0.19352  1.0000
  H   H70       1.0  0.88029  0.4989800000000001  0.12109  1.0000
  H   H71       1.0  0.26788  0.4158300000000001  0.09199000000000003  1.0000
  H   H72       1.0  0.28273  0.31502000000000013  0.16185000000000002  1.0000
  H   H73       1.0  0.20221000000000003  0.6136  0.9478100000000003  1.0000
  H   H74       1.0  0.34368  0.6427300000000002  0.87873  1.0000
  H   H75       1.0  0.14756000000000002  0.9187900000000002  0.8639100000000002  1.0000
  H   H76       1.0  0.016880000000000003  0.88061  0.93399  1.0000
  H   H77       1.0  0.37262000000000006  0.72739  0.8090100000000002  1.0000
  H   H78       1.0  0.42327  0.8417000000000002  0.8265800000000001  1.0000
  H   H79       1.0  0.15048  0.8092400000000002  0.7828400000000001  1.0000
  H   H80       1.0  0.23004000000000005  0.91917  0.79094  1.0000
  H   H81       1.0  0.51018  0.87631  0.75397  1.0000
  H   H82       1.0  0.5980500000000001  0.8613000000000001  0.6749900000000002  1.0000
  H   H83       1.0  0.23062000000000002  0.7768200000000002  0.62519  1.0000
  H   H84       1.0  0.12641  0.7880800000000002  0.70231  1.0000
  H   H85       1.0  0.37435  0.57032  0.13893000000000005  1.0000
  H   H86       1.0  0.39776  0.64936  0.21470000000000003  1.0000
  H   H87       1.0  0.22369000000000003  0.9058200000000002  0.15577000000000005  1.0000
  H   H88       1.0  0.20405000000000004  0.81495  0.08255000000000003  1.0000
  H   H89       1.0  0.21107  0.83369  0.25351  1.0000
  H   H90       1.0  0.3308500000000001  0.9132700000000002  0.23312000000000005  1.0000
  H   H91       1.0  0.3880600000000001  0.7206400000000002  0.28017  1.0000
  H   H92       1.0  0.5122300000000001  0.79417  0.25671  1.0000
  H   H93       1.0  0.61934  0.9026000000000001  0.3048400000000001  1.0000
  H   H94       1.0  0.6246800000000001  0.9955800000000002  0.37733  1.0000
  H   H95       1.0  0.24091000000000004  0.9172900000000003  0.41042  1.0000
  H   H96       1.0  0.22135  0.8155600000000001  0.3406300000000001  1.0000
  C   C1        1.0  0.70871  0.81771  0.42902  1.0000
  C   C2        1.0  0.7794600000000002  0.8017300000000003  0.38935  1.0000
  C   C3        1.0  0.76679  0.71692  0.36376  1.0000
  C   C4        1.0  0.6787400000000002  0.6481900000000003  0.3812500000000001  1.0000
  C   C5        1.0  0.60853  0.6650100000000002  0.42081000000000013  1.0000
  C   C6        1.0  0.8390200000000001  0.7035500000000002  0.3194200000000001  1.0000
  C   C7        1.0  0.7537500000000001  0.6548200000000001  0.2822  1.0000
  C   C8        1.0  0.81013  0.6653800000000002  0.23526000000000005  1.0000
  C   C9        1.0  0.94584  0.6465900000000002  0.22548  1.0000
  C   C10       1.0  0.9965300000000001  0.65653  0.18228  1.0000
  C   C11       1.0  0.78358  0.7050200000000001  0.15505  1.0000
  C   C12       1.0  0.7311100000000001  0.6954800000000002  0.19814  1.0000
  C   C13       1.0  0.84374  0.8618600000000001  0.64724  1.0000
  C   C14       1.0  0.85266  0.8143800000000002  0.6883  1.0000
  C   C15       1.0  0.8110300000000001  0.71858  0.6930800000000003  1.0000
  C   C16       1.0  0.7625300000000002  0.67473  0.6532600000000002  1.0000
  C   C17       1.0  0.75299  0.7234000000000002  0.61263  1.0000
  C   C18       1.0  0.80873  0.6672700000000003  0.7379500000000002  1.0000
  C   C19       1.0  0.91484  0.7017000000000001  0.77204  1.0000
  C   C20       1.0  0.9177600000000001  0.64556  0.8155000000000001  1.0000
  C   C21       1.0  0.031079999999999997  0.5927400000000003  0.8279700000000002  1.0000
  C   C22       1.0  0.03163  0.5405400000000001  0.8682000000000002  1.0000
  C   C23       1.0  0.8157300000000001  0.5877400000000003  0.8846  1.0000
  C   C24       1.0  0.8079100000000001  0.64336  0.8454700000000003  1.0000
  C   C25       1.0  0.8007500000000001  0.31918  0.07156000000000003  1.0000
  C   C26       1.0  0.7265500000000001  0.3016800000000001  0.11017  1.0000
  C   C27       1.0  0.7412700000000001  0.21679000000000007  0.1355  1.0000
  C   C28       1.0  0.8350400000000002  0.14928  0.11875000000000002  1.0000
  C   C29       1.0  0.90886  0.1677  0.08028  1.0000
  C   C30       1.0  0.66552  0.20256  0.179  1.0000
  C   C31       1.0  0.7515200000000001  0.15679  0.21713  1.0000
  C   C32       1.0  0.69191  0.16635000000000003  0.26369000000000004  1.0000
  C   C33       1.0  0.55677  0.14647  0.2728  1.0000
  C   C34       1.0  0.5047  0.15414  0.3159800000000001  1.0000
  C   C35       1.0  0.71498  0.20290000000000002  0.3443400000000001  1.0000
  C   C36       1.0  0.7687900000000001  0.19552000000000003  0.3013300000000001  1.0000
  C   C37       1.0  0.65658  0.35616000000000003  0.8548000000000002  1.0000
  C   C38       1.0  0.6452200000000001  0.30993  0.81339  1.0000
  C   C39       1.0  0.68877  0.21417000000000005  0.8072100000000002  1.0000
  C   C40       1.0  0.7417200000000002  0.16862  0.84608  1.0000
  C   C41       1.0  0.75386  0.21612000000000006  0.8869800000000002  1.0000
  C   C42       1.0  0.6883800000000002  0.16377  0.76196  1.0000
  C   C43       1.0  0.58675  0.20473000000000002  0.7276200000000003  1.0000
  C   C44       1.0  0.58146  0.14829  0.6841700000000002  1.0000
  C   C45       1.0  0.4686000000000001  0.09586000000000003  0.67275  1.0000
  C   C46       1.0  0.46653  0.04312000000000001  0.6325400000000002  1.0000
  C   C47       1.0  0.68029  0.08876  0.6144  1.0000
  C   C48       1.0  0.68939  0.14492  0.6534000000000002  1.0000
  C   C49       1.0  0.2973  0.18203  0.57042  1.0000
  C   C50       1.0  0.22570000000000007  0.19808  0.60988  1.0000
  C   C51       1.0  0.23781  0.28291  0.6354900000000002  1.0000
  C   C52       1.0  0.3268200000000001  0.3513800000000001  0.61833  1.0000
  C   C53       1.0  0.39786000000000005  0.33447  0.57894  1.0000
  C   C54       1.0  0.16363000000000005  0.2964000000000001  0.67945  1.0000
  C   C55       1.0  0.24729000000000007  0.34508  0.7170900000000001  1.0000
  C   C56       1.0  0.18994000000000003  0.3339900000000001  0.76384  1.0000
  C   C57       1.0  0.05398  0.35256  0.7734400000000002  1.0000
  C   C58       1.0  0.00322  0.34314  0.81664  1.0000
  C   C59       1.0  0.21615000000000004  0.29478000000000004  0.8441100000000002  1.0000
  C   C60       1.0  0.26869  0.3039000000000001  0.80103  1.0000
  C   C61       1.0  0.15733  0.13779000000000002  0.35326000000000013  1.0000
  C   C62       1.0  0.14785  0.18521  0.31217  1.0000
  C   C63       1.0  0.18925000000000006  0.28105  0.3073000000000001  1.0000
  C   C64       1.0  0.23829  0.3248600000000001  0.3470400000000001  1.0000
  C   C65       1.0  0.24839  0.27622  0.3876700000000001  1.0000
  C   C66       1.0  0.19125  0.33242000000000005  0.26241000000000003  1.0000
  C   C67       1.0  0.08524  0.2980900000000001  0.22826000000000002  1.0000
  C   C68       1.0  0.08245000000000002  0.35421  0.18476  1.0000
  C   C69       1.0  0.9691200000000002  0.40694  0.17219  1.0000
  C   C70       1.0  0.9686500000000001  0.45914  0.13195  1.0000
  C   C71       1.0  0.1846  0.412  0.11567000000000002  1.0000
  C   C72       1.0  0.19237000000000007  0.35641000000000006  0.15481  1.0000
  C   C73       1.0  0.19947  0.6809200000000002  0.9282700000000003  1.0000
  C   C74       1.0  0.27355000000000007  0.6984300000000002  0.8896400000000002  1.0000
  C   C75       1.0  0.25872000000000006  0.7832700000000002  0.86429  1.0000
  C   C76       1.0  0.16496  0.8507700000000002  0.88107  1.0000
  C   C77       1.0  0.09124999999999998  0.8323700000000003  0.91957  1.0000
  C   C78       1.0  0.33458  0.7974400000000003  0.8208100000000003  1.0000
  C   C79       1.0  0.24875000000000003  0.8430700000000002  0.7826100000000002  1.0000
  C   C80       1.0  0.30854000000000004  0.83348  0.7360700000000002  1.0000
  C   C81       1.0  0.44364000000000003  0.8533600000000002  0.72696  1.0000
  C   C82       1.0  0.4957100000000001  0.84576  0.6837700000000002  1.0000
  C   C83       1.0  0.28540000000000004  0.79713  0.65541  1.0000
  C   C84       1.0  0.23161  0.80444  0.69842  1.0000
  C   C85       1.0  0.34361  0.64398  0.14539  1.0000
  C   C86       1.0  0.35469  0.6902  0.18679000000000007  1.0000
  C   C87       1.0  0.31107  0.78597  0.19294000000000003  1.0000
  C   C88       1.0  0.25826  0.8315200000000003  0.15404  1.0000
  C   C89       1.0  0.24635000000000004  0.7840300000000001  0.11313000000000002  1.0000
  C   C90       1.0  0.31136  0.8364500000000001  0.23817  1.0000
  C   C91       1.0  0.41303  0.7955  0.2725  1.0000
  C   C92       1.0  0.4192  0.85204  0.31591000000000014  1.0000
  C   C93       1.0  0.53284  0.9037700000000002  0.32717  1.0000
  C   C94       1.0  0.53617  0.95634  0.36741  1.0000
  C   C95       1.0  0.32223  0.91172  0.38594  1.0000
  C   C96       1.0  0.31177  0.8559100000000002  0.34687  1.0000
  N   N1        1.0  0.62331  0.74915  0.44462  1.0000
  N   N2        1.0  0.9164400000000001  0.6858800000000003  0.14679  1.0000
  N   N3        1.0  0.79162  0.81792  0.6094900000000001  1.0000
  N   N4        1.0  0.92504  0.53585  0.8961500000000002  1.0000
  N   N5        1.0  0.89223  0.25208  0.056820000000000016  1.0000
  N   N6        1.0  0.5830800000000002  0.18198000000000003  0.35197  1.0000
  N   N7        1.0  0.7134  0.31070000000000003  0.8915200000000002  1.0000
  N   N8        1.0  0.57134  0.03752  0.60379  1.0000
  N   N9        1.0  0.38299  0.25054  0.5549800000000003  1.0000
  N   N10       1.0  0.08344  0.3148500000000001  0.8522500000000002  1.0000
  N   N11       1.0  0.20963000000000004  0.18175  0.39098  1.0000
  N   N12       1.0  0.07537  0.46394  0.10406000000000003  1.0000
  N   N13       1.0  0.10798  0.74799  0.94303  1.0000
  N   N14       1.0  0.41729  0.8179700000000002  0.64778  1.0000
  N   N15       1.0  0.287  0.6895100000000002  0.10864  1.0000
  N   N16       1.0  0.43193000000000004  0.96227  0.39639000000000013  1.0000
  O   O1        1.0  0.55377  0.76191  0.48247000000000007  1.0000
  O   O2        1.0  0.9658599999999998  0.6945300000000002  0.10545  1.0000
  O   O3        1.0  0.77446  0.8662200000000002  0.5716100000000002  1.0000
  O   O4        1.0  0.13171  0.50001  0.98167  1.0000
  O   O5        1.0  0.96574  0.2665100000000001  0.02013  1.0000
  O   O6        1.0  0.5333300000000001  0.18629000000000004  0.3934200000000001  1.0000
  O   O7        1.0  0.73246  0.3572300000000001  0.92977  1.0000
  O   O8        1.0  0.37239  0.9998500000000001  0.51664  1.0000
  O   O9        1.0  0.45264  0.23802000000000006  0.5171000000000001  1.0000
  O   O10       1.0  0.03419  0.3092100000000001  0.8937100000000002  1.0000
  O   O11       1.0  0.22642000000000004  0.13376000000000002  0.4289800000000001  1.0000
  O   O12       1.0  0.8734600000000001  0.49980000000000013  0.01818  1.0000
  O   O13       1.0  0.03453  0.7335000000000002  0.9797300000000002  1.0000
  O   O14       1.0  0.46687  0.81377  0.6063200000000002  1.0000
  O   O15       1.0  0.26828  0.64288  0.07036000000000003  1.0000
  O   O16       1.0  0.63297  0.00015000000000000085  0.4833500000000001  1.0000
