data_image0
_chemical_formula_structural       Cd4H144C192N48
_chemical_formula_sum              "Cd4 H144 C192 N48"
_cell_length_a       16.22864
_cell_length_b       16.227239999999995
_cell_length_c       20.59531
_cell_angle_alpha    90.00272
_cell_angle_beta     89.99727999999999
_cell_angle_gamma    89.99327000000001

_space_group_name_H-M_alt    "P 1"
_space_group_IT_number       1

loop_
  _space_group_symop_operation_xyz
  'x, y, z'

loop_
  _atom_site_type_symbol
  _atom_site_label
  _atom_site_symmetry_multiplicity
  _atom_site_fract_x
  _atom_site_fract_y
  _atom_site_fract_z
  _atom_site_occupancy
  Cd  Cd1       1.0  0.43383  0.4338300000000001  0.4999999999999999  1.0000
  Cd  Cd2       1.0  0.5662  0.5662100000000002  0.0  1.0000
  Cd  Cd3       1.0  0.0662  0.9337600000000003  0.24999999999999994  1.0000
  Cd  Cd4       1.0  0.93378  0.06624000000000002  0.7499899999999998  1.0000
  H   H1        1.0  0.75877  0.00261  0.8347499999999999  1.0000
  H   H2        1.0  0.65044  0.8974200000000002  0.82976  1.0000
  H   H3        1.0  0.74777  0.82619  0.6420799999999999  1.0000
  H   H4        1.0  0.85224  0.9346400000000002  0.65534  1.0000
  H   H5        1.0  0.54411  0.8366100000000002  0.8053299999999999  1.0000
  H   H6        1.0  0.4385  0.7296800000000002  0.79634  1.0000
  H   H7        1.0  0.452  0.6167500000000002  0.71392  1.0000
  H   H8        1.0  0.68698  0.71547  0.6568  1.0000
  H   H9        1.0  0.70129  0.5214  0.45074  1.0000
  H   H10       1.0  0.81306  0.4336600000000001  0.40506999999999993  1.0000
  H   H11       1.0  0.85862  0.30843  0.4620999999999999  1.0000
  H   H12       1.0  0.67929  0.35632  0.61295  1.0000
  H   H13       1.0  0.70116  0.24585000000000007  0.64921  1.0000
  H   H14       1.0  0.76028  0.13447  0.71461  1.0000
  H   H15       1.0  0.96197  0.11209  0.5924699999999999  1.0000
  H   H16       1.0  0.91074  0.22074  0.5196899999999999  1.0000
  H   H17       1.0  0.7601400000000003  0.52017  0.62203  1.0000
  H   H18       1.0  0.75498  0.60953  0.58552  1.0000
  H   H19       1.0  0.24123  0.99743  0.3347399999999999  1.0000
  H   H20       1.0  0.34958  0.10263  0.32974  1.0000
  H   H21       1.0  0.25221  0.17385  0.14208  1.0000
  H   H22       1.0  0.14779  0.06538000000000002  0.15533  1.0000
  H   H23       1.0  0.45589  0.16349000000000005  0.3053199999999999  1.0000
  H   H24       1.0  0.56148  0.27046  0.29629  1.0000
  H   H25       1.0  0.54799  0.38329000000000013  0.21379999999999996  1.0000
  H   H26       1.0  0.31306  0.28443  0.15669999999999998  1.0000
  H   H27       1.0  0.29842  0.47858  0.9506699999999999  1.0000
  H   H28       1.0  0.1868  0.5664800000000002  0.9050399999999998  1.0000
  H   H29       1.0  0.14138  0.69171  0.9620899999999998  1.0000
  H   H30       1.0  0.32065  0.64363  0.11291999999999999  1.0000
  H   H31       1.0  0.29884  0.75407  0.14919  1.0000
  H   H32       1.0  0.23978  0.8654500000000003  0.21466  1.0000
  H   H33       1.0  0.03803  0.88791  0.09264  1.0000
  H   H34       1.0  0.08921  0.7792900000000003  0.01976  1.0000
  H   H35       1.0  0.24007  0.48025  0.12229999999999998  1.0000
  H   H36       1.0  0.24459  0.39048  0.08629  1.0000
  H   H37       1.0  0.4974  0.25881  0.58473  1.0000
  H   H38       1.0  0.60254  0.15037  0.5797699999999999  1.0000
  H   H39       1.0  0.67382  0.24756000000000003  0.39206  1.0000
  H   H40       1.0  0.56541  0.3520800000000001  0.40526  1.0000
  H   H41       1.0  0.66331  0.04388  0.55525  1.0000
  H   H42       1.0  0.7702900000000001  0.9383000000000001  0.5463  1.0000
  H   H43       1.0  0.88327  0.95187  0.46395  1.0000
  H   H44       1.0  0.78459  0.18698000000000006  0.4069599999999999  1.0000
  H   H45       1.0  0.97848  0.20132000000000005  0.20096999999999998  1.0000
  H   H46       1.0  0.06627  0.31306  0.15522  1.0000
  H   H47       1.0  0.19158  0.35849  0.21217999999999998  1.0000
  H   H48       1.0  0.14359  0.17937  0.36314  1.0000
  H   H49       1.0  0.25412  0.2012  0.39928  1.0000
  H   H50       1.0  0.36559  0.26023  0.4646199999999999  1.0000
  H   H51       1.0  0.38789  0.46195  0.34256  1.0000
  H   H52       1.0  0.27919  0.4108  0.2698  1.0000
  H   H53       1.0  0.98066  0.2596900000000001  0.37262999999999996  1.0000
  H   H54       1.0  0.89068  0.25544  0.33688  1.0000
  H   H55       1.0  0.50263  0.74123  0.08469  1.0000
  H   H56       1.0  0.39742  0.84958  0.07975999999999998  1.0000
  H   H57       1.0  0.32618  0.75234  0.8920599999999997  1.0000
  H   H58       1.0  0.43465  0.64789  0.9052399999999999  1.0000
  H   H59       1.0  0.33664  0.9560200000000002  0.05525999999999999  1.0000
  H   H60       1.0  0.22966  0.06161000000000001  0.04628  1.0000
  H   H61       1.0  0.11671000000000001  0.04806  0.9639499999999999  1.0000
  H   H62       1.0  0.21541  0.81296  0.9069299999999999  1.0000
  H   H63       1.0  0.0215  0.7987400000000001  0.7009599999999999  1.0000
  H   H64       1.0  0.93378  0.687  0.6551599999999999  1.0000
  H   H65       1.0  0.80847  0.6415100000000002  0.71206  1.0000
  H   H66       1.0  0.85625  0.82069  0.8630499999999999  1.0000
  H   H67       1.0  0.74583  0.7987900000000002  0.89924  1.0000
  H   H68       1.0  0.63438  0.73967  0.9645899999999997  1.0000
  H   H69       1.0  0.61218  0.5379500000000003  0.84249  1.0000
  H   H70       1.0  0.72084  0.58922  0.7696999999999998  1.0000
  H   H71       1.0  0.01974  0.74006  0.87226  1.0000
  H   H72       1.0  0.10934  0.7448400000000002  0.8360399999999999  1.0000
  H   H73       1.0  0.74123  0.50268  0.91531  1.0000
  H   H74       1.0  0.84956  0.39745  0.92022  1.0000
  H   H75       1.0  0.75233  0.3262000000000001  0.10793  1.0000
  H   H76       1.0  0.64789  0.43468  0.09474999999999999  1.0000
  H   H77       1.0  0.95597  0.33661000000000013  0.9447099999999998  1.0000
  H   H78       1.0  0.06155000000000001  0.22962000000000005  0.95368  1.0000
  H   H79       1.0  0.04804  0.1167  0.03607  1.0000
  H   H80       1.0  0.81292  0.21541  0.09304999999999998  1.0000
  H   H81       1.0  0.79876  0.02147  0.29907  1.0000
  H   H82       1.0  0.687  0.93379  0.34487  1.0000
  H   H83       1.0  0.64149  0.80847  0.28796  1.0000
  H   H84       1.0  0.8206200000000002  0.85628  0.13694  1.0000
  H   H85       1.0  0.79883  0.7457700000000003  0.10083999999999999  1.0000
  H   H86       1.0  0.73967  0.6344100000000003  0.03541  1.0000
  H   H87       1.0  0.53796  0.61216  0.1575  1.0000
  H   H88       1.0  0.5892  0.72082  0.23030999999999996  1.0000
  H   H89       1.0  0.7400400000000001  0.01974  0.12773  1.0000
  H   H90       1.0  0.74481  0.10934  0.16396  1.0000
  H   H91       1.0  0.25879  0.49738000000000004  0.4152799999999999  1.0000
  H   H92       1.0  0.15038  0.60254  0.42021999999999987  1.0000
  H   H93       1.0  0.24755  0.6738300000000003  0.6079299999999999  1.0000
  H   H94       1.0  0.35207  0.56542  0.5947299999999999  1.0000
  H   H95       1.0  0.0439  0.66331  0.44475  1.0000
  H   H96       1.0  0.93834  0.77033  0.45367999999999997  1.0000
  H   H97       1.0  0.95188  0.88331  0.53603  1.0000
  H   H98       1.0  0.18697  0.78462  0.5930199999999999  1.0000
  H   H99       1.0  0.20131  0.9785  0.79905  1.0000
  H   H100      1.0  0.31305  0.06628000000000003  0.8448  1.0000
  H   H101      1.0  0.35848  0.1916  0.78785  1.0000
  H   H102      1.0  0.1794  0.1436  0.63687  1.0000
  H   H103      1.0  0.20119  0.25416  0.60076  1.0000
  H   H104      1.0  0.26022  0.3656100000000001  0.5354  1.0000
  H   H105      1.0  0.46196  0.3879100000000001  0.65744  1.0000
  H   H106      1.0  0.41081  0.2792300000000001  0.73022  1.0000
  H   H107      1.0  0.25968  0.98068  0.62737  1.0000
  H   H108      1.0  0.25544  0.89069  0.66311  1.0000
  H   H109      1.0  0.00257  0.7587900000000002  0.16525999999999996  1.0000
  H   H110      1.0  0.89744  0.65039  0.17026999999999998  1.0000
  H   H111      1.0  0.82618  0.74776  0.35795  1.0000
  H   H112      1.0  0.93461  0.85223  0.34467999999999993  1.0000
  H   H113      1.0  0.83663  0.54406  0.19469999999999996  1.0000
  H   H114      1.0  0.72972  0.43844  0.20372  1.0000
  H   H115      1.0  0.61677  0.4519700000000001  0.28608999999999996  1.0000
  H   H116      1.0  0.71549  0.68696  0.34323  1.0000
  H   H117      1.0  0.52144  0.7013700000000003  0.54924  1.0000
  H   H118      1.0  0.43366  0.8131100000000002  0.5948999999999999  1.0000
  H   H119      1.0  0.30841  0.8586100000000002  0.5378899999999999  1.0000
  H   H120      1.0  0.35633  0.67925  0.38705999999999996  1.0000
  H   H121      1.0  0.24591  0.70121  0.35073  1.0000
  H   H122      1.0  0.13443  0.76027  0.28541999999999995  1.0000
  H   H123      1.0  0.11208  0.9619600000000003  0.40757  1.0000
  H   H124      1.0  0.22078  0.9107400000000002  0.4803  1.0000
  H   H125      1.0  0.5201900000000002  0.76016  0.37802999999999987  1.0000
  H   H126      1.0  0.60957  0.75495  0.41450999999999993  1.0000
  H   H127      1.0  0.99746  0.24124  0.6652599999999999  1.0000
  H   H128      1.0  0.10269  0.34958  0.6702799999999998  1.0000
  H   H129      1.0  0.17386  0.25216  0.85793  1.0000
  H   H130      1.0  0.06538  0.14778  0.84469  1.0000
  H   H131      1.0  0.16349  0.4559  0.69471  1.0000
  H   H132      1.0  0.27042  0.5615200000000002  0.70375  1.0000
  H   H133      1.0  0.38328  0.548  0.7862099999999999  1.0000
  H   H134      1.0  0.28441  0.31309  0.8433599999999998  1.0000
  H   H135      1.0  0.47856  0.29839  0.049329999999999985  1.0000
  H   H136      1.0  0.56649  0.18677  0.09495  1.0000
  H   H137      1.0  0.69171  0.14138  0.03791  1.0000
  H   H138      1.0  0.64364  0.3207  0.8870999999999999  1.0000
  H   H139      1.0  0.75401  0.29882  0.85077  1.0000
  H   H140      1.0  0.8654  0.23977000000000004  0.78532  1.0000
  H   H141      1.0  0.88783  0.03798  0.90733  1.0000
  H   H142      1.0  0.77928  0.08921  0.9802299999999999  1.0000
  H   H143      1.0  0.48022  0.24006  0.87775  1.0000
  H   H144      1.0  0.39045  0.24461000000000005  0.9137299999999999  1.0000
  C   C1        1.0  0.75433  0.9625600000000002  0.79246  1.0000
  C   C2        1.0  0.69269  0.90348  0.78908  1.0000
  C   C3        1.0  0.68721  0.8499700000000002  0.7349999999999999  1.0000
  C   C4        1.0  0.74696  0.86346  0.68594  1.0000
  C   C5        1.0  0.80594  0.92458  0.69279  1.0000
  C   C6        1.0  0.62379  0.7860600000000002  0.7302799999999998  1.0000
  C   C7        1.0  0.55278  0.78726  0.77039  1.0000
  C   C8        1.0  0.49203  0.72702  0.76459  1.0000
  C   C9        1.0  0.49915999999999994  0.66374  0.71925  1.0000
  C   C10       1.0  0.57089  0.6592300000000002  0.6804599999999998  1.0000
  C   C11       1.0  0.63155  0.72019  0.68596  1.0000
  C   C12       1.0  0.57699  0.59093  0.63475  1.0000
  C   C13       1.0  0.62229  0.49444000000000005  0.5667399999999999  1.0000
  C   C14       1.0  0.68315  0.44163  0.53422  1.0000
  C   C15       1.0  0.72116  0.4662100000000001  0.47603  1.0000
  C   C16       1.0  0.78406  0.41638  0.45075999999999994  1.0000
  C   C17       1.0  0.81001  0.34587  0.4833  1.0000
  C   C18       1.0  0.77398  0.32103  0.5430699999999999  1.0000
  C   C19       1.0  0.70923  0.3711600000000001  0.56723  1.0000
  C   C20       1.0  0.8025  0.24980000000000002  0.57921  1.0000
  C   C21       1.0  0.76028  0.22009000000000006  0.63496  1.0000
  C   C22       1.0  0.7929  0.15720000000000006  0.672  1.0000
  C   C23       1.0  0.90502  0.14465000000000006  0.6035399999999999  1.0000
  C   C24       1.0  0.87597  0.20612000000000003  0.5633  1.0000
  C   C25       1.0  0.24567  0.03748000000000001  0.29245  1.0000
  C   C26       1.0  0.30731  0.09657  0.28906  1.0000
  C   C27       1.0  0.31281  0.15006  0.23497999999999994  1.0000
  C   C28       1.0  0.2530400000000001  0.13657  0.18592999999999998  1.0000
  C   C29       1.0  0.19405  0.07546000000000003  0.19279999999999997  1.0000
  C   C30       1.0  0.37624  0.21396000000000007  0.23022999999999993  1.0000
  C   C31       1.0  0.44724  0.21279000000000006  0.27033  1.0000
  C   C32       1.0  0.50798  0.2730200000000001  0.26451  1.0000
  C   C33       1.0  0.50086  0.3362900000000001  0.21915  1.0000
  C   C34       1.0  0.42914  0.34077000000000013  0.18036  1.0000
  C   C35       1.0  0.36849  0.2798  0.18586999999999995  1.0000
  C   C36       1.0  0.423  0.40912  0.1347  1.0000
  C   C37       1.0  0.37757  0.50551  0.06667  1.0000
  C   C38       1.0  0.31667  0.5583  0.03418999999999999  1.0000
  C   C39       1.0  0.27861  0.53375  0.976  1.0000
  C   C40       1.0  0.21578  0.5837  0.95075  1.0000
  C   C41       1.0  0.18993  0.65421  0.9832999999999998  1.0000
  C   C42       1.0  0.22596  0.67899  0.04308  1.0000
  C   C43       1.0  0.29069  0.62878  0.06720999999999999  1.0000
  C   C44       1.0  0.19748  0.75024  0.07922  1.0000
  C   C45       1.0  0.23976  0.7798900000000002  0.13496  1.0000
  C   C46       1.0  0.20715  0.8427800000000002  0.17205  1.0000
  C   C47       1.0  0.09498  0.85537  0.10364  1.0000
  C   C48       1.0  0.12403  0.79392  0.06335  1.0000
  C   C49       1.0  0.53747  0.25431  0.5424499999999999  1.0000
  C   C50       1.0  0.59653  0.19263000000000002  0.53908  1.0000
  C   C51       1.0  0.65005  0.18711  0.48501999999999995  1.0000
  C   C52       1.0  0.63656  0.24682  0.43592999999999993  1.0000
  C   C53       1.0  0.57546  0.30584  0.44276  1.0000
  C   C54       1.0  0.71396  0.12367  0.4803299999999999  1.0000
  C   C55       1.0  0.71272  0.052620000000000014  0.52037  1.0000
  C   C56       1.0  0.77295  0.99186  0.51458  1.0000
  C   C57       1.0  0.83626  0.9990100000000001  0.46926  1.0000
  C   C58       1.0  0.8408000000000002  0.07077000000000003  0.43051  1.0000
  C   C59       1.0  0.77988  0.13148  0.43606  1.0000
  C   C60       1.0  0.90908  0.07688  0.38482  1.0000
  C   C61       1.0  0.00555  0.12228  0.3168699999999999  1.0000
  C   C62       1.0  0.05832  0.1832  0.28439999999999993  1.0000
  C   C63       1.0  0.03369  0.2212  0.22619999999999998  1.0000
  C   C64       1.0  0.08358  0.28406  0.20091  1.0000
  C   C65       1.0  0.15409  0.30995  0.23341  1.0000
  C   C66       1.0  0.17894000000000004  0.27399  0.29321  1.0000
  C   C67       1.0  0.12876  0.20926  0.3174  1.0000
  C   C68       1.0  0.2502  0.30252  0.3292899999999999  1.0000
  C   C69       1.0  0.27991  0.26025  0.3849999999999999  1.0000
  C   C70       1.0  0.34288  0.29287000000000013  0.42204  1.0000
  C   C71       1.0  0.35537  0.40502  0.35361  1.0000
  C   C72       1.0  0.29384  0.3759600000000001  0.31336  1.0000
  C   C73       1.0  0.46256  0.7457  0.04241  1.0000
  C   C74       1.0  0.40347  0.80735  0.03905999999999999  1.0000
  C   C75       1.0  0.34996  0.81286  0.98499  1.0000
  C   C76       1.0  0.36348  0.75313  0.9359099999999999  1.0000
  C   C77       1.0  0.42457  0.69413  0.9427399999999998  1.0000
  C   C78       1.0  0.28604  0.8762900000000002  0.9802799999999998  1.0000
  C   C79       1.0  0.28726  0.9473200000000003  0.02035  1.0000
  C   C80       1.0  0.22702  0.00806  0.014549999999999999  1.0000
  C   C81       1.0  0.16368  0.0008800000000000002  0.9692699999999997  1.0000
  C   C82       1.0  0.15911  0.9291100000000002  0.9305299999999999  1.0000
  C   C83       1.0  0.22011  0.86846  0.9360099999999999  1.0000
  C   C84       1.0  0.09076  0.92304  0.8848799999999999  1.0000
  C   C85       1.0  0.9943100000000001  0.87776  0.8168499999999997  1.0000
  C   C86       1.0  0.9415800000000002  0.81687  0.7843199999999999  1.0000
  C   C87       1.0  0.96625  0.77884  0.72617  1.0000
  C   C88       1.0  0.91647  0.7159500000000002  0.70086  1.0000
  C   C89       1.0  0.84591  0.69003  0.73335  1.0000
  C   C90       1.0  0.82105  0.72599  0.7931399999999998  1.0000
  C   C91       1.0  0.8711300000000001  0.7907700000000002  0.81734  1.0000
  C   C92       1.0  0.74981  0.69744  0.8292399999999999  1.0000
  C   C93       1.0  0.72007  0.73968  0.8849799999999999  1.0000
  C   C94       1.0  0.65714  0.70707  0.92198  1.0000
  C   C95       1.0  0.64468  0.59492  0.8535399999999999  1.0000
  C   C96       1.0  0.70616  0.62398  0.8133099999999999  1.0000
  C   C97       1.0  0.74569  0.46259  0.95758  1.0000
  C   C98       1.0  0.80733  0.4035  0.9609299999999998  1.0000
  C   C99       1.0  0.81284  0.34998  0.014989999999999998  1.0000
  C   C100      1.0  0.75311  0.36348  0.06408  1.0000
  C   C101      1.0  0.69413  0.4246  0.05725  1.0000
  C   C102      1.0  0.87626  0.2860300000000001  0.01971  1.0000
  C   C103      1.0  0.94727  0.28723  0.97963  1.0000
  C   C104      1.0  0.00801  0.22698000000000004  0.9854299999999998  1.0000
  C   C105      1.0  0.00085  0.16366  0.030739999999999993  1.0000
  C   C106      1.0  0.92907  0.1591  0.06946  1.0000
  C   C107      1.0  0.86842  0.22010000000000005  0.06397  1.0000
  C   C108      1.0  0.923  0.09075  0.11512  1.0000
  C   C109      1.0  0.87773  0.99431  0.18317  1.0000
  C   C110      1.0  0.81684  0.94158  0.21569  1.0000
  C   C111      1.0  0.77885  0.9662400000000002  0.27386  1.0000
  C   C112      1.0  0.71594  0.91646  0.29917999999999995  1.0000
  C   C113      1.0  0.69001  0.8459200000000002  0.26668  1.0000
  C   C114      1.0  0.72597  0.82104  0.20689  1.0000
  C   C115      1.0  0.79072  0.87113  0.18268  1.0000
  C   C116      1.0  0.69743  0.7498000000000002  0.17078  1.0000
  C   C117      1.0  0.73969  0.7200500000000002  0.11506  1.0000
  C   C118      1.0  0.70706  0.65714  0.07801999999999999  1.0000
  C   C119      1.0  0.59492  0.6446700000000002  0.14646  1.0000
  C   C120      1.0  0.62397  0.70616  0.1867  1.0000
  C   C121      1.0  0.25429  0.53745  0.45755999999999997  1.0000
  C   C122      1.0  0.19263  0.59653  0.46090999999999993  1.0000
  C   C123      1.0  0.18711  0.65006  0.51496  1.0000
  C   C124      1.0  0.24681  0.6365600000000002  0.56407  1.0000
  C   C125      1.0  0.30583  0.5754700000000003  0.5572299999999999  1.0000
  C   C126      1.0  0.12368  0.71398  0.51966  1.0000
  C   C127      1.0  0.05263  0.71274  0.47961  1.0000
  C   C128      1.0  0.9918799999999999  0.77297  0.48541999999999996  1.0000
  C   C129      1.0  0.9990300000000001  0.8363100000000002  0.53072  1.0000
  C   C130      1.0  0.07078  0.84082  0.56948  1.0000
  C   C131      1.0  0.13147  0.7798900000000002  0.56394  1.0000
  C   C132      1.0  0.07688  0.90909  0.6151899999999999  1.0000
  C   C133      1.0  0.12229  0.005560000000000002  0.6831399999999999  1.0000
  C   C134      1.0  0.18321  0.05833  0.7156199999999999  1.0000
  C   C135      1.0  0.22119  0.03371  0.77382  1.0000
  C   C136      1.0  0.28406  0.08358  0.7991099999999999  1.0000
  C   C137      1.0  0.30994  0.15412  0.7666199999999997  1.0000
  C   C138      1.0  0.274  0.17896  0.7068099999999998  1.0000
  C   C139      1.0  0.20928  0.12878  0.68261  1.0000
  C   C140      1.0  0.30252  0.2502200000000001  0.67074  1.0000
  C   C141      1.0  0.26026  0.27994  0.6150199999999999  1.0000
  C   C142      1.0  0.29287  0.34288  0.57797  1.0000
  C   C143      1.0  0.40502  0.3553800000000001  0.6464  1.0000
  C   C144      1.0  0.37598  0.29388  0.6866499999999998  1.0000
  C   C145      1.0  0.96254  0.75433  0.20756  1.0000
  C   C146      1.0  0.90347  0.69266  0.21094999999999997  1.0000
  C   C147      1.0  0.84997  0.68719  0.26503  1.0000
  C   C148      1.0  0.86346  0.74694  0.3140899999999999  1.0000
  C   C149      1.0  0.92456  0.8059500000000003  0.30723  1.0000
  C   C150      1.0  0.78607  0.62376  0.2697399999999999  1.0000
  C   C151      1.0  0.78728  0.55275  0.22965  1.0000
  C   C152      1.0  0.72706  0.4919900000000001  0.23544999999999994  1.0000
  C   C153      1.0  0.66376  0.49913  0.28078  1.0000
  C   C154      1.0  0.65924  0.5708600000000003  0.31955999999999996  1.0000
  C   C155      1.0  0.72019  0.63154  0.31406  1.0000
  C   C156      1.0  0.59093  0.57698  0.36526  1.0000
  C   C157      1.0  0.49445000000000006  0.6222900000000002  0.43327  1.0000
  C   C158      1.0  0.44165  0.68316  0.4657799999999999  1.0000
  C   C159      1.0  0.46625  0.7212100000000001  0.52395  1.0000
  C   C160      1.0  0.4163800000000001  0.7841  0.5492099999999999  1.0000
  C   C161      1.0  0.34588  0.81002  0.5166799999999999  1.0000
  C   C162      1.0  0.32105  0.7739900000000002  0.4569  1.0000
  C   C163      1.0  0.37118  0.7092100000000002  0.4327699999999999  1.0000
  C   C164      1.0  0.24980999999999998  0.8025100000000002  0.42077999999999993  1.0000
  C   C165      1.0  0.22011  0.76028  0.36503999999999986  1.0000
  C   C166      1.0  0.15716  0.7929000000000003  0.32800999999999997  1.0000
  C   C167      1.0  0.14463  0.90502  0.39647  1.0000
  C   C168      1.0  0.20614  0.8759700000000002  0.4366999999999999  1.0000
  C   C169      1.0  0.03752  0.24568000000000006  0.70755  1.0000
  C   C170      1.0  0.09659  0.30732  0.71096  1.0000
  C   C171      1.0  0.15008  0.31281  0.76505  1.0000
  C   C172      1.0  0.13657  0.25302000000000013  0.81409  1.0000
  C   C173      1.0  0.07547  0.19405000000000006  0.80722  1.0000
  C   C174      1.0  0.21396  0.37625  0.7698  1.0000
  C   C175      1.0  0.21279  0.44724  0.72969  1.0000
  C   C176      1.0  0.27302  0.508  0.73551  1.0000
  C   C177      1.0  0.33628  0.50087  0.78088  1.0000
  C   C178      1.0  0.34077  0.4291600000000001  0.81967  1.0000
  C   C179      1.0  0.27979  0.36851  0.81417  1.0000
  C   C180      1.0  0.40911  0.42301  0.86532  1.0000
  C   C181      1.0  0.50551  0.37758  0.9333299999999999  1.0000
  C   C182      1.0  0.55829  0.31667  0.9658199999999999  1.0000
  C   C183      1.0  0.53375  0.27861000000000014  0.024009999999999997  1.0000
  C   C184      1.0  0.5837  0.21577  0.04925  1.0000
  C   C185      1.0  0.65421  0.18993000000000004  0.0167  1.0000
  C   C186      1.0  0.67899  0.22597000000000006  0.9569199999999999  1.0000
  C   C187      1.0  0.62878  0.2907000000000001  0.93279  1.0000
  C   C188      1.0  0.75023  0.19749  0.9207699999999999  1.0000
  C   C189      1.0  0.77985  0.23975  0.8650199999999999  1.0000
  C   C190      1.0  0.8427500000000002  0.20714000000000005  0.8279299999999999  1.0000
  C   C191      1.0  0.85534  0.09496000000000003  0.8963399999999999  1.0000
  C   C192      1.0  0.79389  0.12403000000000002  0.93664  1.0000
  N   N1        1.0  0.81128  0.9746400000000002  0.7453099999999999  1.0000
  N   N2        1.0  0.5123  0.54956  0.61213  1.0000
  N   N3        1.0  0.54087  0.4892200000000001  0.5704199999999999  1.0000
  N   N4        1.0  0.64739  0.5584400000000003  0.60635  1.0000
  N   N5        1.0  0.73003  0.57584  0.6226999999999999  1.0000
  N   N6        1.0  0.86658  0.12061  0.6592099999999999  1.0000
  N   N7        1.0  0.1887  0.025400000000000006  0.24531  1.0000
  N   N8        1.0  0.48763  0.45062  0.11211  1.0000
  N   N9        1.0  0.45897  0.51091  0.07038999999999998  1.0000
  N   N10       1.0  0.35254  0.44148  0.10630999999999999  1.0000
  N   N11       1.0  0.26997  0.42449000000000003  0.1231  1.0000
  N   N12       1.0  0.13348  0.87937  0.15928  1.0000
  N   N13       1.0  0.52542  0.31127  0.49528999999999995  1.0000
  N   N14       1.0  0.95034  0.012200000000000004  0.36202  1.0000
  N   N15       1.0  0.01069  0.04084  0.32036  1.0000
  N   N16       1.0  0.94163  0.14735  0.35661  1.0000
  N   N17       1.0  0.92486  0.2299  0.37353999999999987  1.0000
  N   N18       1.0  0.37944  0.36653000000000013  0.4092299999999999  1.0000
  N   N19       1.0  0.47462  0.6887300000000002  0.9952599999999999  1.0000
  N   N20       1.0  0.04933  0.98774  0.8623099999999999  1.0000
  N   N21       1.0  0.9890099999999998  0.9591800000000003  0.8205699999999999  1.0000
  N   N22       1.0  0.05831  0.85264  0.8564799999999999  1.0000
  N   N23       1.0  0.07546  0.77002  0.8730199999999999  1.0000
  N   N24       1.0  0.62057  0.6334  0.9091799999999998  1.0000
  N   N25       1.0  0.68874  0.47466  0.00474  1.0000
  N   N26       1.0  0.9877  0.04932  0.13769  1.0000
  N   N27       1.0  0.95914  0.9890200000000001  0.17944999999999994  1.0000
  N   N28       1.0  0.85261  0.05831  0.14354  1.0000
  N   N29       1.0  0.77  0.07546000000000003  0.12698  1.0000
  N   N30       1.0  0.63338  0.6206  0.09080999999999999  1.0000
  N   N31       1.0  0.31125  0.52541  0.50471  1.0000
  N   N32       1.0  0.01221  0.95036  0.6379899999999998  1.0000
  N   N33       1.0  0.04086  0.01068  0.6796699999999999  1.0000
  N   N34       1.0  0.14736  0.94165  0.6433799999999998  1.0000
  N   N35       1.0  0.2299  0.92488  0.6264599999999999  1.0000
  N   N36       1.0  0.36653  0.37945  0.5907599999999998  1.0000
  N   N37       1.0  0.97461  0.81129  0.2547  1.0000
  N   N38       1.0  0.54954  0.51228  0.38785  1.0000
  N   N39       1.0  0.4892  0.54086  0.42955  1.0000
  N   N40       1.0  0.55845  0.64739  0.39365  1.0000
  N   N41       1.0  0.57586  0.73005  0.37732999999999994  1.0000
  N   N42       1.0  0.12057  0.86656  0.34082  1.0000
  N   N43       1.0  0.02541  0.18870000000000006  0.75469  1.0000
  N   N44       1.0  0.4506100000000001  0.4876500000000001  0.8879099999999999  1.0000
  N   N45       1.0  0.51091  0.45898  0.9295999999999998  1.0000
  N   N46       1.0  0.44147  0.3525500000000001  0.8937  1.0000
  N   N47       1.0  0.42447000000000007  0.26997  0.87692  1.0000
  N   N48       1.0  0.87935  0.13348000000000004  0.84071  1.0000
