data_image0
_chemical_formula_structural       Na4Co4H132C84O72
_chemical_formula_sum              "Na4 Co4 H132 C84 O72"
_cell_length_a       15.2028
_cell_length_b       15.64273
_cell_length_c       15.84038
_cell_angle_alpha    90.15336
_cell_angle_beta     89.84565
_cell_angle_gamma    90.14283

_space_group_name_H-M_alt    "P 1"
_space_group_IT_number       1

loop_
  _space_group_symop_operation_xyz
  'x, y, z'

loop_
  _atom_site_type_symbol
  _atom_site_label
  _atom_site_symmetry_multiplicity
  _atom_site_fract_x
  _atom_site_fract_y
  _atom_site_fract_z
  _atom_site_occupancy
  Na  Na1       1.0  0.56448  0.047699999999999985  0.9584000000000003  1.0000
  Na  Na2       1.0  0.94647  0.94832  0.4667000000000001  1.0000
  Na  Na3       1.0  0.43136  0.5498399999999998  0.53742  1.0000
  Na  Na4       1.0  0.053419999999999995  0.4501199999999999  0.03747000000000002  1.0000
  Co  Co1       1.0  0.14207999999999996  0.13444999999999996  0.6390100000000002  1.0000
  Co  Co2       1.0  0.3559699999999999  0.86589  0.13965  1.0000
  Co  Co3       1.0  0.8579599999999998  0.63324  0.8617700000000003  1.0000
  Co  Co4       1.0  0.6435  0.3657899999999999  0.36172  1.0000
  H   H1        1.0  0.5372099999999999  0.7295999999999998  0.93202  1.0000
  H   H2        1.0  0.64535  0.9030299999999998  0.057290000000000015  1.0000
  H   H3        1.0  0.5762  0.76645  0.06556000000000002  1.0000
  H   H4        1.0  0.8111399999999998  0.89745  0.021990000000000006  1.0000
  H   H5        1.0  0.84233  0.8744699999999997  0.91632  1.0000
  H   H6        1.0  0.68607  0.86609  0.87254  1.0000
  H   H7        1.0  0.45289  0.11587  0.11088000000000003  1.0000
  H   H8        1.0  0.3978399999999999  0.20264  0.24564000000000005  1.0000
  H   H9        1.0  0.46414  0.19719  0.3371000000000001  1.0000
  H   H10       1.0  0.6388699999999998  0.18359999999999996  0.13799000000000006  1.0000
  H   H11       1.0  0.39141  0.94954  0.8969700000000003  1.0000
  H   H12       1.0  0.46399  0.059779999999999986  0.2542000000000001  1.0000
  H   H13       1.0  0.3972  0.9568899999999998  0.73282  1.0000
  H   H14       1.0  0.39519  0.058729999999999984  0.68442  1.0000
  H   H15       1.0  0.37867  0.12990999999999994  0.82479  1.0000
  H   H16       1.0  0.24811  0.90391  0.8061100000000002  1.0000
  H   H17       1.0  0.15841  0.9764699999999997  0.8080500000000003  1.0000
  H   H18       1.0  0.57147  0.3274  0.12160000000000003  1.0000
  H   H19       1.0  0.46523  0.28034  0.11024000000000003  1.0000
  H   H20       1.0  0.61802  0.05438999999999999  0.24707000000000007  1.0000
  H   H21       1.0  0.26098  0.12069999999999999  0.94943  1.0000
  H   H22       1.0  0.7301  0.7753899999999998  0.10848000000000002  1.0000
  H   H23       1.0  0.71345  0.67559  0.05737000000000001  1.0000
  H   H24       1.0  0.24044  0.96997  0.9464500000000002  1.0000
  H   H25       1.0  0.61085  0.23672  0.0016500000000000004  1.0000
  H   H26       1.0  0.36419  0.03174  0.022030000000000008  1.0000
  H   H27       1.0  0.75054  0.0017899999999999995  0.88501  1.0000
  H   H28       1.0  0.22505  0.12252  0.7918100000000002  1.0000
  H   H29       1.0  0.62148  0.21026  0.28116  1.0000
  H   H30       1.0  0.70394  0.71207  0.90202  1.0000
  H   H31       1.0  0.5187  0.09425  0.7778200000000002  1.0000
  H   H32       1.0  0.53049  0.9867799999999998  0.13949000000000006  1.0000
  H   H33       1.0  0.49944  0.8729899999999998  0.9905800000000002  1.0000
  H   H34       1.0  0.96495  0.26798  0.4323800000000001  1.0000
  H   H35       1.0  0.85183  0.09629  0.55949  1.0000
  H   H36       1.0  0.9242699999999999  0.23245  0.56578  1.0000
  H   H37       1.0  0.6878999999999997  0.10275999999999998  0.52083  1.0000
  H   H38       1.0  0.6596799999999998  0.12538  0.4145600000000001  1.0000
  H   H39       1.0  0.81702  0.13009  0.37342  1.0000
  H   H40       1.0  0.04637999999999999  0.88457  0.6119600000000002  1.0000
  H   H41       1.0  0.10274  0.79705  0.7464800000000003  1.0000
  H   H42       1.0  0.03621  0.8017899999999998  0.8382700000000002  1.0000
  H   H43       1.0  0.8625399999999998  0.8130899999999998  0.6409100000000002  1.0000
  H   H44       1.0  0.10694  0.05048  0.39939000000000013  1.0000
  H   H45       1.0  0.03554  0.9393999999999998  0.75605  1.0000
  H   H46       1.0  0.10028999999999999  0.04360999999999999  0.23526000000000005  1.0000
  H   H47       1.0  0.10196  0.9416699999999998  0.18623  1.0000
  H   H48       1.0  0.11872  0.8704499999999997  0.3255200000000001  1.0000
  H   H49       1.0  0.25012  0.09567  0.30737  1.0000
  H   H50       1.0  0.33941  0.022489999999999993  0.3077700000000001  1.0000
  H   H51       1.0  0.93095  0.67069  0.62239  1.0000
  H   H52       1.0  0.03671  0.71903  0.6105600000000002  1.0000
  H   H53       1.0  0.88078  0.9423299999999998  0.7471700000000002  1.0000
  H   H54       1.0  0.23799  0.8789999999999998  0.44985000000000014  1.0000
  H   H55       1.0  0.7695799999999998  0.22552999999999995  0.60809  1.0000
  H   H56       1.0  0.78822  0.3244399999999999  0.55599  1.0000
  H   H57       1.0  0.25796  0.02906  0.4470500000000001  1.0000
  H   H58       1.0  0.88973  0.76145  0.5034900000000001  1.0000
  H   H59       1.0  0.13553  0.9688099999999997  0.5237000000000003  1.0000
  H   H60       1.0  0.75417  0.9949799999999999  0.3848  1.0000
  H   H61       1.0  0.27123  0.8766599999999998  0.29128  1.0000
  H   H62       1.0  0.87913  0.7884799999999997  0.7829600000000002  1.0000
  H   H63       1.0  0.79831  0.28691  0.4018000000000001  1.0000
  H   H64       1.0  0.9782499999999998  0.90695  0.28116  1.0000
  H   H65       1.0  0.96652  0.01233  0.64257  1.0000
  H   H66       1.0  0.0010599999999999995  0.12604  0.49314000000000013  1.0000
  H   H67       1.0  0.46369  0.23118  0.56751  1.0000
  H   H68       1.0  0.35469  0.40306  0.4415000000000001  1.0000
  H   H69       1.0  0.42428  0.26653  0.43411  1.0000
  H   H70       1.0  0.18931  0.39700999999999986  0.47937000000000013  1.0000
  H   H71       1.0  0.15953  0.37469999999999987  0.5854700000000003  1.0000
  H   H72       1.0  0.31686  0.36752  0.62709  1.0000
  H   H73       1.0  0.54853  0.61605  0.38773000000000013  1.0000
  H   H74       1.0  0.60162  0.7034  0.2533300000000001  1.0000
  H   H75       1.0  0.53486  0.6975599999999997  0.16200000000000006  1.0000
  H   H76       1.0  0.36239  0.68347  0.3626100000000001  1.0000
  H   H77       1.0  0.61093  0.44982  0.6010800000000002  1.0000
  H   H78       1.0  0.53548  0.55994  0.24417000000000005  1.0000
  H   H79       1.0  0.60291  0.45461  0.76584  1.0000
  H   H80       1.0  0.60345  0.55608  0.8157300000000002  1.0000
  H   H81       1.0  0.62484  0.62886  0.6768200000000002  1.0000
  H   H82       1.0  0.75351  0.40403  0.69458  1.0000
  H   H83       1.0  0.8426799999999998  0.4776899999999999  0.6947300000000002  1.0000
  H   H84       1.0  0.42909  0.8276199999999998  0.3786700000000001  1.0000
  H   H85       1.0  0.5357  0.7820299999999998  0.3889300000000001  1.0000
  H   H86       1.0  0.38164  0.5541399999999997  0.2533300000000001  1.0000
  H   H87       1.0  0.74178  0.62186  0.5547200000000002  1.0000
  H   H88       1.0  0.26989  0.27514  0.39184000000000013  1.0000
  H   H89       1.0  0.28673  0.1755  0.4427200000000001  1.0000
  H   H90       1.0  0.76342  0.4713999999999999  0.55483  1.0000
  H   H91       1.0  0.38925  0.7355799999999998  0.4993800000000001  1.0000
  H   H92       1.0  0.63867  0.53303  0.4781600000000001  1.0000
  H   H93       1.0  0.25347  0.50333  0.6166000000000003  1.0000
  H   H94       1.0  0.77386  0.62279  0.7112400000000002  1.0000
  H   H95       1.0  0.37764  0.7097799999999999  0.21838000000000005  1.0000
  H   H96       1.0  0.29717  0.21277  0.59801  1.0000
  H   H97       1.0  0.48268  0.5937099999999997  0.72042  1.0000
  H   H98       1.0  0.4703  0.48715  0.3600600000000001  1.0000
  H   H99       1.0  0.5016  0.37438  0.5078100000000002  1.0000
  H   H100      1.0  0.03646  0.7686  0.06757  1.0000
  H   H101      1.0  0.14594  0.5953199999999997  0.9419600000000002  1.0000
  H   H102      1.0  0.07605  0.7322  0.9346100000000003  1.0000
  H   H103      1.0  0.31089  0.60326  0.9792300000000003  1.0000
  H   H104      1.0  0.34019  0.62593  0.08515000000000003  1.0000
  H   H105      1.0  0.18247  0.6323899999999998  0.12706000000000006  1.0000
  H   H106      1.0  0.95123  0.38274  0.8886000000000002  1.0000
  H   H107      1.0  0.8975199999999998  0.2972299999999999  0.7544200000000002  1.0000
  H   H108      1.0  0.9642299999999998  0.3026599999999999  0.6625  1.0000
  H   H109      1.0  0.13732999999999995  0.31529  0.8633300000000003  1.0000
  H   H110      1.0  0.8917699999999997  0.54944  0.10226000000000003  1.0000
  H   H111      1.0  0.9641699999999999  0.4400799999999999  0.7460900000000003  1.0000
  H   H112      1.0  0.89833  0.54387  0.26574  1.0000
  H   H113      1.0  0.89655  0.4425  0.3153400000000001  1.0000
  H   H114      1.0  0.8771399999999998  0.36991  0.17591000000000007  1.0000
  H   H115      1.0  0.74934  0.59627  0.19506  1.0000
  H   H116      1.0  0.65917  0.52333  0.19471  1.0000
  H   H117      1.0  0.06968  0.17177999999999996  0.8772800000000002  1.0000
  H   H118      1.0  0.9633699999999997  0.21827  0.8892900000000002  1.0000
  H   H119      1.0  0.11836  0.4459799999999999  0.7530800000000002  1.0000
  H   H120      1.0  0.75957  0.37795  0.05432  1.0000
  H   H121      1.0  0.23072  0.72485  0.89173  1.0000
  H   H122      1.0  0.21257  0.8242999999999998  0.9432500000000003  1.0000
  H   H123      1.0  0.7400999999999999  0.52856  0.055050000000000016  1.0000
  H   H124      1.0  0.10926999999999998  0.26346  0.9987300000000001  1.0000
  H   H125      1.0  0.86358  0.46689999999999987  0.978  1.0000
  H   H126      1.0  0.24641  0.49657  0.11464000000000003  1.0000
  H   H127      1.0  0.72625  0.3774599999999999  0.20973000000000006  1.0000
  H   H128      1.0  0.12123999999999999  0.29032  0.7177300000000002  1.0000
  H   H129      1.0  0.20149  0.7871799999999998  0.09847  1.0000
  H   H130      1.0  0.018419999999999992  0.4062899999999999  0.22126  1.0000
  H   H131      1.0  0.03008  0.51279  0.8598500000000002  1.0000
  H   H132      1.0  0.99913  0.62721  0.00762  1.0000
  C   C1        1.0  0.62996  0.87178  0.99619  1.0000
  C   C2        1.0  0.6256799999999998  0.7752999999999998  0.015500000000000003  1.0000
  C   C3        1.0  0.79178  0.86272  0.9647100000000002  1.0000
  C   C4        1.0  0.70303  0.8944999999999997  0.9339300000000003  1.0000
  C   C5        1.0  0.51861  0.11273  0.14024  1.0000
  C   C6        1.0  0.46608  0.19778999999999994  0.26784  1.0000
  C   C7        1.0  0.57239  0.18962  0.11143000000000003  1.0000
  C   C8        1.0  0.36489  0.01516  0.89723  1.0000
  C   C9        1.0  0.50609  0.11410999999999998  0.23661  1.0000
  C   C10       1.0  0.36992  0.021629999999999996  0.7381300000000002  1.0000
  C   C11       1.0  0.40078999999999987  0.063  0.82062  1.0000
  C   C12       1.0  0.23053  0.9720199999999998  0.8100000000000003  1.0000
  C   C13       1.0  0.5297399999999998  0.2731999999999999  0.14053000000000004  1.0000
  C   C14       1.0  0.71548  0.7449799999999999  0.0475  1.0000
  C   C15       1.0  0.26369  0.00958  0.89337  1.0000
  C   C16       1.0  0.23821  0.97379  0.6505100000000003  1.0000
  C   C17       1.0  0.8803399999999999  0.73782  0.01285  1.0000
  C   C18       1.0  0.7883299999999998  0.76673  0.9836200000000003  1.0000
  C   C19       1.0  0.47614  0.36088  0.2655000000000001  1.0000
  C   C20       1.0  0.51899  0.27553  0.23718000000000006  1.0000
  C   C21       1.0  0.26918  0.01858  0.73292  1.0000
  C   C22       1.0  0.8699499999999999  0.12614999999999998  0.49845  1.0000
  C   C23       1.0  0.87494  0.22289  0.51591  1.0000
  C   C24       1.0  0.70913  0.13687  0.4638400000000001  1.0000
  C   C25       1.0  0.79839  0.10309999999999997  0.43492  1.0000
  C   C26       1.0  0.981  0.88613  0.64244  1.0000
  C   C27       1.0  0.03448  0.80142  0.7690300000000002  1.0000
  C   C28       1.0  0.9285999999999998  0.80837  0.61322  1.0000
  C   C29       1.0  0.13359  0.98482  0.3988200000000001  1.0000
  C   C30       1.0  0.99395  0.8846699999999997  0.7384300000000003  1.0000
  C   C31       1.0  0.12731  0.9788299999999998  0.23991000000000007  1.0000
  C   C32       1.0  0.09684  0.9373699999999998  0.32237  1.0000
  C   C33       1.0  0.2673899999999999  0.02745999999999999  0.31056  1.0000
  C   C34       1.0  0.97221  0.7252999999999997  0.64132  1.0000
  C   C35       1.0  0.7852  0.2549  0.5469500000000003  1.0000
  C   C36       1.0  0.23462  0.98985  0.39389000000000013  1.0000
  C   C37       1.0  0.25871  0.026459999999999994  0.15151  1.0000
  C   C38       1.0  0.6208  0.26247  0.51242  1.0000
  C   C39       1.0  0.7129  0.23309999999999995  0.4828500000000001  1.0000
  C   C40       1.0  0.026  0.6386099999999998  0.7658000000000003  1.0000
  C   C41       1.0  0.98238  0.7234599999999998  0.7379400000000003  1.0000
  C   C42       1.0  0.22781  0.9813999999999998  0.23371000000000006  1.0000
  C   C43       1.0  0.37087999999999993  0.3728299999999999  0.50263  1.0000
  C   C44       1.0  0.37494  0.27604999999999996  0.4841400000000001  1.0000
  C   C45       1.0  0.20943999999999993  0.36274  0.5364700000000002  1.0000
  C   C46       1.0  0.2986999999999999  0.39542  0.56597  1.0000
  C   C47       1.0  0.48238  0.61307  0.3591800000000001  1.0000
  C   C48       1.0  0.5333499999999999  0.6978399999999998  0.23129000000000005  1.0000
  C   C49       1.0  0.42903999999999987  0.69008  0.38858  1.0000
  C   C50       1.0  0.63791  0.51547  0.60256  1.0000
  C   C51       1.0  0.4937199999999999  0.61412  0.2626  1.0000
  C   C52       1.0  0.6297  0.51974  0.7618100000000002  1.0000
  C   C53       1.0  0.601  0.56231  0.6793900000000003  1.0000
  C   C54       1.0  0.77068  0.47231  0.6915200000000002  1.0000
  C   C55       1.0  0.47101  0.77384  0.35917  1.0000
  C   C56       1.0  0.28494  0.24497999999999995  0.45264  1.0000
  C   C57       1.0  0.73907  0.51008  0.6081300000000001  1.0000
  C   C58       1.0  0.76092  0.47338  0.8504000000000003  1.0000
  C   C59       1.0  0.12005999999999997  0.23809999999999995  0.4870700000000001  1.0000
  C   C60       1.0  0.21241  0.26665  0.5167900000000002  1.0000
  C   C61       1.0  0.52402  0.86018  0.23404000000000005  1.0000
  C   C62       1.0  0.4806999999999999  0.7753099999999998  0.26243  1.0000
  C   C63       1.0  0.73025  0.51795  0.7683800000000002  1.0000
  C   C64       1.0  0.12942  0.62654  0.00272  1.0000
  C   C65       1.0  0.12551  0.7231499999999997  0.9842900000000002  1.0000
  C   C66       1.0  0.29026  0.63746  0.03644  1.0000
  C   C67       1.0  0.20090999999999995  0.6042299999999998  0.06594000000000003  1.0000
  C   C68       1.0  0.017309999999999992  0.38635999999999987  0.8594400000000002  1.0000
  C   C69       1.0  0.96571  0.30232  0.73174  1.0000
  C   C70       1.0  0.0703  0.30927  0.8886300000000003  1.0000
  C   C71       1.0  0.8642599999999998  0.4839599999999999  0.10301000000000003  1.0000
  C   C72       1.0  0.00592  0.3856799999999999  0.7632100000000003  1.0000
  C   C73       1.0  0.87112  0.4789199999999999  0.2615  1.0000
  C   C74       1.0  0.90058  0.43654  0.17924000000000007  1.0000
  C   C75       1.0  0.73123  0.52821  0.19174  1.0000
  C   C76       1.0  0.02792  0.22588  0.8588  1.0000
  C   C77       1.0  0.21517  0.7547999999999998  0.9527400000000003  1.0000
  C   C78       1.0  0.76327  0.48993  0.10841000000000003  1.0000
  C   C79       1.0  0.74152  0.52618  0.3509800000000001  1.0000
  C   C80       1.0  0.3791799999999999  0.76309  0.9873000000000001  1.0000
  C   C81       1.0  0.28713  0.7335399999999997  0.01715  1.0000
  C   C82       1.0  0.97386  0.14000999999999994  0.7339600000000002  1.0000
  C   C83       1.0  0.01783  0.22470999999999994  0.7622600000000003  1.0000
  C   C84       1.0  0.77066  0.48176  0.26803  1.0000
  O   O1        1.0  0.26645  0.9016199999999998  0.63361  1.0000
  O   O2        1.0  0.4001599999999999  0.37661  0.24176000000000006  1.0000
  O   O3        1.0  0.9168  0.77639  0.07228  1.0000
  O   O4        1.0  0.60145  0.7233499999999998  0.9433900000000002  1.0000
  O   O5        1.0  0.54978  0.9025599999999998  0.9619400000000002  1.0000
  O   O6        1.0  0.39165  0.060450000000000004  0.97163  1.0000
  O   O7        1.0  0.5908199999999998  0.10191999999999997  0.2782000000000001  1.0000
  O   O8        1.0  0.22679  0.09496999999999997  0.9033700000000002  1.0000
  O   O9        1.0  0.57866  0.18626  0.020040000000000006  1.0000
  O   O10       1.0  0.4962099999999999  0.06091999999999999  0.82485  1.0000
  O   O11       1.0  0.56445  0.03678999999999999  0.11569  1.0000
  O   O12       1.0  0.7048099999999998  0.9872  0.9256200000000002  1.0000
  O   O13       1.0  0.18128  0.016289999999999992  0.60467  1.0000
  O   O14       1.0  0.7684999999999997  0.72247  0.9047400000000002  1.0000
  O   O15       1.0  0.5248  0.41087  0.3124200000000001  1.0000
  O   O16       1.0  0.23747  0.10641  0.73257  1.0000
  O   O17       1.0  0.60636  0.2715999999999999  0.27443  1.0000
  O   O18       1.0  0.9155999999999999  0.67526  0.97057  1.0000
  O   O19       1.0  0.22723999999999997  0.09699  0.13362000000000004  1.0000
  O   O20       1.0  0.10204999999999999  0.6231799999999997  0.74159  1.0000
  O   O21       1.0  0.58349  0.22426999999999994  0.5716400000000003  1.0000
  O   O22       1.0  0.9002299999999999  0.27245  0.4427100000000001  1.0000
  O   O23       1.0  0.95106  0.09372999999999997  0.46700000000000014  1.0000
  O   O24       1.0  0.10750999999999997  0.9395  0.47360000000000013  1.0000
  O   O25       1.0  0.9087  0.8962699999999998  0.77952  1.0000
  O   O26       1.0  0.27168  0.90464  0.40344  1.0000
  O   O27       1.0  0.92111  0.81228  0.52203  1.0000
  O   O28       1.0  0.0017200000000000004  0.93934  0.32845  1.0000
  O   O29       1.0  0.93287  0.9612399999999998  0.62024  1.0000
  O   O30       1.0  0.79662  0.010299999999999997  0.4282400000000001  1.0000
  O   O31       1.0  0.31926  0.9862099999999998  0.10774000000000003  1.0000
  O   O32       1.0  0.73353  0.2775199999999999  0.4043700000000001  1.0000
  O   O33       1.0  0.97753  0.58888  0.81297  1.0000
  O   O34       1.0  0.25852  0.8931399999999998  0.23234000000000005  1.0000
  O   O35       1.0  0.89443  0.7272  0.77489  1.0000
  O   O36       1.0  0.58609  0.32523  0.4705900000000001  1.0000
  O   O37       1.0  0.73218  0.40147  0.8673000000000002  1.0000
  O   O38       1.0  0.60007  0.87566  0.2580400000000001  1.0000
  O   O39       1.0  0.08383  0.2764399999999999  0.42755  1.0000
  O   O40       1.0  0.39924  0.22527999999999995  0.55657  1.0000
  O   O41       1.0  0.45143  0.40548  0.5349  1.0000
  O   O42       1.0  0.61301  0.56264  0.5291000000000001  1.0000
  O   O43       1.0  0.40859  0.6015999999999998  0.22194000000000005  1.0000
  O   O44       1.0  0.77672  0.5956599999999999  0.59985  1.0000
  O   O45       1.0  0.42304  0.6867299999999997  0.47992  1.0000
  O   O46       1.0  0.50589  0.5620699999999997  0.67248  1.0000
  O   O47       1.0  0.4364  0.53719  0.3840900000000001  1.0000
  O   O48       1.0  0.29726  0.4883099999999999  0.57427  1.0000
  O   O49       1.0  0.81866  0.51551  0.8959400000000002  1.0000
  O   O50       1.0  0.23234999999999995  0.22153  0.59512  1.0000
  O   O51       1.0  0.47548  0.9098299999999998  0.18741  1.0000
  O   O52       1.0  0.7605  0.60632  0.77026  1.0000
  O   O53       1.0  0.39278  0.7710499999999998  0.22591000000000006  1.0000
  O   O54       1.0  0.08433  0.17633  0.5298200000000002  1.0000
  O   O55       1.0  0.77271  0.59709  0.3689100000000001  1.0000
  O   O56       1.0  0.89781  0.12486000000000001  0.7584000000000002  1.0000
  O   O57       1.0  0.4160999999999999  0.72505  0.9276400000000002  1.0000
  O   O58       1.0  0.10106  0.7741399999999998  0.057090000000000016  1.0000
  O   O59       1.0  0.04825  0.5949999999999998  0.03477  1.0000
  O   O60       1.0  0.8890699999999998  0.4372299999999999  0.028740000000000005  1.0000
  O   O61       1.0  0.09115  0.39831  0.72201  1.0000
  O   O62       1.0  0.72506  0.40472  0.09969  1.0000
  O   O63       1.0  0.07508999999999998  0.31222  0.97996  1.0000
  O   O64       1.0  0.99567  0.4375199999999999  0.17324  1.0000
  O   O65       1.0  0.06294  0.4624  0.8841000000000002  1.0000
  O   O66       1.0  0.20139  0.51154  0.07372000000000002  1.0000
  O   O67       1.0  0.68333  0.4845299999999999  0.39615  1.0000
  O   O68       1.0  0.26643  0.7786699999999998  0.09552  1.0000
  O   O69       1.0  0.02209  0.09016999999999997  0.68665  1.0000
  O   O70       1.0  0.73861  0.39397  0.26895000000000013  1.0000
  O   O71       1.0  0.10581  0.22903999999999994  0.7253  1.0000
  O   O72       1.0  0.41346  0.82654  0.029150000000000006  1.0000
