data_image0
_chemical_formula_structural       Zn12H66C132N6O48
_chemical_formula_sum              "Zn12 H66 C132 N6 O48"
_cell_length_a       18.70955
_cell_length_b       18.7096
_cell_length_c       24.47335
_cell_angle_alpha    90.0
_cell_angle_beta     90.0
_cell_angle_gamma    120.06554000000001

_symmetry_space_group_name_H-M    'P 1'
_symmetry_Int_Tables_number       1

loop_
  _symmetry_equiv_pos_as_xyz
  'x,y,z'

loop_
  _atom_site_type_symbol
  _atom_site_label
  _atom_site_symmetry_multiplicity
  _atom_site_fract_x
  _atom_site_fract_y
  _atom_site_fract_z
  _atom_site_occupancy
  Zn  Zn1       1.0  0.52336  0.04668  0.5426899999999999  1.0000
  Zn  Zn2       1.0  0.52331  0.4766899999999999  0.5426999999999998  1.0000
  Zn  Zn3       1.0  0.95332  0.4766399999999999  0.5426899999999999  1.0000
  Zn  Zn4       1.0  0.47664000000000006  0.95332  0.04269  1.0000
  Zn  Zn5       1.0  0.47668999999999995  0.5233099999999998  0.04269999999999999  1.0000
  Zn  Zn6       1.0  0.04667999999999991  0.5233599999999998  0.04269  1.0000
  Zn  Zn7       1.0  0.47664000000000006  0.95332  0.45731  1.0000
  Zn  Zn8       1.0  0.04667999999999991  0.5233599999999998  0.45731  1.0000
  Zn  Zn9       1.0  0.47668999999999995  0.5233099999999998  0.4573  1.0000
  Zn  Zn10      1.0  0.52336  0.04668  0.95731  1.0000
  Zn  Zn11      1.0  0.95332  0.4766399999999999  0.95731  1.0000
  Zn  Zn12      1.0  0.52331  0.4766899999999999  0.9572999999999999  1.0000
  H   H1        1.0  0.36285  0.06613  0.35864999999999997  1.0000
  H   H2        1.0  0.70333  0.63711  0.3587  1.0000
  H   H3        1.0  0.93396  0.29682999999999987  0.35869  1.0000
  H   H4        1.0  0.63715  0.93387  0.8586499999999998  1.0000
  H   H5        1.0  0.29667  0.36289  0.8586999999999998  1.0000
  H   H6        1.0  0.06603999999999999  0.70317  0.85869  1.0000
  H   H7        1.0  0.29682  0.93395  0.64132  1.0000
  H   H8        1.0  0.06613  0.36285  0.64135  1.0000
  H   H9        1.0  0.63711  0.70333  0.6412999999999999  1.0000
  H   H10       1.0  0.70318  0.06605  0.14132  1.0000
  H   H11       1.0  0.9338699999999999  0.6371499999999998  0.14135  1.0000
  H   H12       1.0  0.3628899999999999  0.2966699999999999  0.14129999999999998  1.0000
  H   H13       1.0  0.63715  0.93387  0.64135  1.0000
  H   H14       1.0  0.29667  0.36289  0.6412999999999999  1.0000
  H   H15       1.0  0.06603999999999999  0.70317  0.64132  1.0000
  H   H16       1.0  0.36285  0.06613  0.14135  1.0000
  H   H17       1.0  0.70333  0.63711  0.14129999999999998  1.0000
  H   H18       1.0  0.93396  0.29682999999999987  0.14132  1.0000
  H   H19       1.0  0.70318  0.06605  0.35869  1.0000
  H   H20       1.0  0.9338699999999999  0.6371499999999998  0.35864999999999997  1.0000
  H   H21       1.0  0.3628899999999999  0.2966699999999999  0.3587  1.0000
  H   H22       1.0  0.29682  0.93395  0.85869  1.0000
  H   H23       1.0  0.06613  0.36285  0.8586499999999998  1.0000
  H   H24       1.0  0.63711  0.70333  0.8586999999999998  1.0000
  H   H25       1.0  0.4757  0.23788  0.49117  1.0000
  H   H26       1.0  0.47173999999999994  0.23587  0.21439999999999998  1.0000
  H   H27       1.0  0.19136999999999998  0.09568  0.33801  1.0000
  H   H28       1.0  0.7621199999999999  0.5242999999999998  0.49117  1.0000
  H   H29       1.0  0.7641300000000001  0.52826  0.21439999999999998  1.0000
  H   H30       1.0  0.9043199999999999  0.80863  0.33801  1.0000
  H   H31       1.0  0.7621699999999999  0.23782999999999996  0.49114  1.0000
  H   H32       1.0  0.76421  0.23579  0.21440999999999993  1.0000
  H   H33       1.0  0.9042700000000001  0.09574  0.33801  1.0000
  H   H34       1.0  0.5242999999999999  0.7621199999999998  0.9911699999999999  1.0000
  H   H35       1.0  0.5282599999999997  0.7641299999999998  0.7143999999999999  1.0000
  H   H36       1.0  0.80863  0.90432  0.83802  1.0000
  H   H37       1.0  0.23787999999999995  0.4756999999999999  0.9911699999999999  1.0000
  H   H38       1.0  0.23586999999999997  0.47174  0.7143999999999999  1.0000
  H   H39       1.0  0.09567999999999997  0.19136999999999996  0.83802  1.0000
  H   H40       1.0  0.23782999999999993  0.7621699999999998  0.99114  1.0000
  H   H41       1.0  0.23579  0.76421  0.71441  1.0000
  H   H42       1.0  0.09573999999999998  0.90426  0.8380099999999999  1.0000
  H   H43       1.0  0.23782999999999993  0.7621699999999998  0.50887  1.0000
  H   H44       1.0  0.23579  0.76421  0.7855999999999997  1.0000
  H   H45       1.0  0.09573999999999998  0.90426  0.6619999999999999  1.0000
  H   H46       1.0  0.23787999999999995  0.4756999999999999  0.5088399999999998  1.0000
  H   H47       1.0  0.23586999999999997  0.47174  0.7855999999999997  1.0000
  H   H48       1.0  0.09567999999999997  0.19136999999999996  0.6619899999999997  1.0000
  H   H49       1.0  0.5242999999999999  0.7621199999999998  0.5088399999999998  1.0000
  H   H50       1.0  0.5282599999999997  0.7641299999999998  0.7855999999999997  1.0000
  H   H51       1.0  0.80863  0.90432  0.6619899999999997  1.0000
  H   H52       1.0  0.7621699999999999  0.23782999999999996  0.00886  1.0000
  H   H53       1.0  0.76421  0.23579  0.28559  1.0000
  H   H54       1.0  0.9042700000000001  0.09574  0.162  1.0000
  H   H55       1.0  0.7621199999999999  0.5242999999999998  0.00884  1.0000
  H   H56       1.0  0.7641300000000001  0.52826  0.2856  1.0000
  H   H57       1.0  0.9043199999999999  0.80863  0.16199  1.0000
  H   H58       1.0  0.4757  0.23788  0.00884  1.0000
  H   H59       1.0  0.47173999999999994  0.23587  0.2856  1.0000
  H   H60       1.0  0.19136999999999998  0.09568  0.16199  1.0000
  H   H61       1.0  0.11317999999999999  0.05658999999999999  0.25  1.0000
  H   H62       1.0  0.94341  0.88683  0.25  1.0000
  H   H63       1.0  0.9433000000000001  0.0567  0.25  1.0000
  H   H64       1.0  0.8868300000000001  0.94341  0.75  1.0000
  H   H65       1.0  0.056589999999999974  0.11317999999999998  0.75  1.0000
  H   H66       1.0  0.05670000000000007  0.9433  0.75  1.0000
  C   C1        1.0  0.44755999999999996  0.09023  0.4534399999999999  1.0000
  C   C2        1.0  0.42171  0.14611  0.42755  1.0000
  C   C3        1.0  0.37878  0.12478  0.3777299999999999  1.0000
  C   C4        1.0  0.64268  0.55246  0.45347  1.0000
  C   C5        1.0  0.72442  0.57828  0.4275699999999999  1.0000
  C   C6        1.0  0.74606  0.62121  0.37775  1.0000
  C   C7        1.0  0.90987  0.35741  0.45342999999999994  1.0000
  C   C8        1.0  0.85395  0.27562  0.42754  1.0000
  C   C9        1.0  0.87527  0.25402  0.37774  1.0000
  C   C10       1.0  0.55244  0.90977  0.9534399999999997  1.0000
  C   C11       1.0  0.57829  0.8539  0.9275499999999999  1.0000
  C   C12       1.0  0.62122  0.87522  0.87773  1.0000
  C   C13       1.0  0.35732  0.44754  0.9534699999999998  1.0000
  C   C14       1.0  0.27558  0.42171999999999993  0.9275699999999998  1.0000
  C   C15       1.0  0.25394  0.3788  0.8777499999999999  1.0000
  C   C16       1.0  0.09012999999999999  0.6426  0.95343  1.0000
  C   C17       1.0  0.1460499999999999  0.7243799999999998  0.9275499999999999  1.0000
  C   C18       1.0  0.12472999999999991  0.7459799999999999  0.87774  1.0000
  C   C19       1.0  0.35739999999999983  0.9098699999999997  0.54658  1.0000
  C   C20       1.0  0.2756200000000001  0.85395  0.57246  1.0000
  C   C21       1.0  0.25401999999999997  0.8752699999999998  0.62227  1.0000
  C   C22       1.0  0.09022999999999994  0.4475599999999999  0.54656  1.0000
  C   C23       1.0  0.14609999999999998  0.42171  0.57245  1.0000
  C   C24       1.0  0.12477999999999999  0.37878  0.6222799999999999  1.0000
  C   C25       1.0  0.55246  0.64268  0.54654  1.0000
  C   C26       1.0  0.57828  0.72442  0.57243  1.0000
  C   C27       1.0  0.6211999999999999  0.7460599999999997  0.62225  1.0000
  C   C28       1.0  0.6426  0.09013  0.04657  1.0000
  C   C29       1.0  0.72438  0.14605  0.07246  1.0000
  C   C30       1.0  0.74598  0.12473999999999999  0.12226  1.0000
  C   C31       1.0  0.90977  0.55244  0.04656  1.0000
  C   C32       1.0  0.8539  0.57829  0.07245  1.0000
  C   C33       1.0  0.87522  0.6212199999999998  0.12226999999999998  1.0000
  C   C34       1.0  0.44754000000000005  0.35732  0.04653999999999999  1.0000
  C   C35       1.0  0.42172  0.27558  0.07243  1.0000
  C   C36       1.0  0.3788  0.25395  0.12225  1.0000
  C   C37       1.0  0.55244  0.90977  0.54656  1.0000
  C   C38       1.0  0.57829  0.8539  0.57245  1.0000
  C   C39       1.0  0.62122  0.87522  0.6222799999999999  1.0000
  C   C40       1.0  0.35732  0.44754  0.54654  1.0000
  C   C41       1.0  0.27558  0.42171999999999993  0.57243  1.0000
  C   C42       1.0  0.25394  0.3788  0.62225  1.0000
  C   C43       1.0  0.09012999999999999  0.6426  0.54658  1.0000
  C   C44       1.0  0.1460499999999999  0.7243799999999998  0.57246  1.0000
  C   C45       1.0  0.12472999999999991  0.7459799999999999  0.62227  1.0000
  C   C46       1.0  0.44755999999999996  0.09023  0.04656  1.0000
  C   C47       1.0  0.42171  0.14611  0.07245  1.0000
  C   C48       1.0  0.37878  0.12478  0.12226999999999998  1.0000
  C   C49       1.0  0.64268  0.55246  0.04653999999999999  1.0000
  C   C50       1.0  0.72442  0.57828  0.07243  1.0000
  C   C51       1.0  0.74606  0.62121  0.12225  1.0000
  C   C52       1.0  0.90987  0.35741  0.04657  1.0000
  C   C53       1.0  0.85395  0.27562  0.07246  1.0000
  C   C54       1.0  0.87527  0.25402  0.12226  1.0000
  C   C55       1.0  0.6426  0.09013  0.45342999999999994  1.0000
  C   C56       1.0  0.72438  0.14605  0.42754  1.0000
  C   C57       1.0  0.74598  0.12473999999999999  0.37774  1.0000
  C   C58       1.0  0.90977  0.55244  0.4534399999999999  1.0000
  C   C59       1.0  0.8539  0.57829  0.42755  1.0000
  C   C60       1.0  0.87522  0.6212199999999998  0.3777299999999999  1.0000
  C   C61       1.0  0.44754000000000005  0.35732  0.45347  1.0000
  C   C62       1.0  0.42172  0.27558  0.4275699999999999  1.0000
  C   C63       1.0  0.3788  0.25395  0.37775  1.0000
  C   C64       1.0  0.35739999999999983  0.9098699999999997  0.95343  1.0000
  C   C65       1.0  0.2756200000000001  0.85395  0.9275499999999999  1.0000
  C   C66       1.0  0.25401999999999997  0.8752699999999998  0.87774  1.0000
  C   C67       1.0  0.09022999999999994  0.4475599999999999  0.9534399999999997  1.0000
  C   C68       1.0  0.14609999999999998  0.42171  0.9275499999999999  1.0000
  C   C69       1.0  0.12477999999999999  0.37878  0.87773  1.0000
  C   C70       1.0  0.55246  0.64268  0.9534699999999998  1.0000
  C   C71       1.0  0.57828  0.72442  0.9275699999999998  1.0000
  C   C72       1.0  0.6211999999999999  0.7460599999999997  0.8777499999999999  1.0000
  C   C73       1.0  0.44242  0.22121  0.45265  1.0000
  C   C74       1.0  0.35627  0.17809  0.35269  1.0000
  C   C75       1.0  0.31044  0.15518  0.2999  1.0000
  C   C76       1.0  0.22408000000000003  0.11203  0.29918  1.0000
  C   C77       1.0  0.77879  0.55758  0.45265  1.0000
  C   C78       1.0  0.8219099999999999  0.64374  0.35269  1.0000
  C   C79       1.0  0.8448199999999998  0.6895599999999997  0.2999  1.0000
  C   C80       1.0  0.88797  0.77592  0.29918  1.0000
  C   C81       1.0  0.77881  0.22119  0.45264  1.0000
  C   C82       1.0  0.82189  0.17811999999999995  0.3527  1.0000
  C   C83       1.0  0.84478  0.15522  0.2999  1.0000
  C   C84       1.0  0.88792  0.11209  0.29918  1.0000
  C   C85       1.0  0.55758  0.77879  0.9526599999999998  1.0000
  C   C86       1.0  0.64374  0.82191  0.8527  1.0000
  C   C87       1.0  0.68956  0.84482  0.7999  1.0000
  C   C88       1.0  0.7759199999999999  0.8879699999999998  0.7991799999999999  1.0000
  C   C89       1.0  0.22121  0.44242  0.9526599999999998  1.0000
  C   C90       1.0  0.17809  0.35627  0.8527  1.0000
  C   C91       1.0  0.15518  0.31044  0.7999  1.0000
  C   C92       1.0  0.11202999999999999  0.22408  0.7991799999999999  1.0000
  C   C93       1.0  0.22119  0.77881  0.9526399999999999  1.0000
  C   C94       1.0  0.17812  0.82188  0.8527  1.0000
  C   C95       1.0  0.15521999999999989  0.8447799999999998  0.7999  1.0000
  C   C96       1.0  0.11208999999999997  0.88791  0.7991799999999999  1.0000
  C   C97       1.0  0.22119  0.77881  0.54736  1.0000
  C   C98       1.0  0.17812  0.82188  0.6473  1.0000
  C   C99       1.0  0.15521999999999989  0.8447799999999998  0.7001  1.0000
  C   C100      1.0  0.11208999999999997  0.88791  0.70082  1.0000
  C   C101      1.0  0.22121  0.44242  0.54735  1.0000
  C   C102      1.0  0.17809  0.35627  0.64731  1.0000
  C   C103      1.0  0.15518  0.31044  0.70011  1.0000
  C   C104      1.0  0.11202999999999999  0.22408  0.70082  1.0000
  C   C105      1.0  0.55758  0.77879  0.54735  1.0000
  C   C106      1.0  0.64374  0.82191  0.64731  1.0000
  C   C107      1.0  0.68956  0.84482  0.70011  1.0000
  C   C108      1.0  0.7759199999999999  0.8879699999999998  0.70082  1.0000
  C   C109      1.0  0.77881  0.22119  0.04736  1.0000
  C   C110      1.0  0.82189  0.17811999999999995  0.14729999999999996  1.0000
  C   C111      1.0  0.84478  0.15522  0.2001  1.0000
  C   C112      1.0  0.88792  0.11209  0.20081999999999997  1.0000
  C   C113      1.0  0.77879  0.55758  0.047349999999999996  1.0000
  C   C114      1.0  0.8219099999999999  0.64374  0.14731  1.0000
  C   C115      1.0  0.8448199999999998  0.6895599999999997  0.2001  1.0000
  C   C116      1.0  0.88797  0.77592  0.20081999999999997  1.0000
  C   C117      1.0  0.44242  0.22121  0.047349999999999996  1.0000
  C   C118      1.0  0.35627  0.17809  0.14731  1.0000
  C   C119      1.0  0.31044  0.15518  0.2001  1.0000
  C   C120      1.0  0.22408000000000003  0.11203  0.20081999999999997  1.0000
  C   C121      1.0  0.35489  0.17741999999999994  0.25  1.0000
  C   C122      1.0  0.1803  0.09016  0.25  1.0000
  C   C123      1.0  0.82259  0.64511  0.25  1.0000
  C   C124      1.0  0.9098399999999999  0.8197  0.25  1.0000
  C   C125      1.0  0.8225799999999998  0.17741999999999994  0.25  1.0000
  C   C126      1.0  0.9097800000000001  0.09023  0.25  1.0000
  C   C127      1.0  0.6451099999999997  0.8225899999999998  0.75  1.0000
  C   C128      1.0  0.8197  0.9098399999999998  0.75  1.0000
  C   C129      1.0  0.17742  0.35489  0.75  1.0000
  C   C130      1.0  0.09016  0.1803  0.75  1.0000
  C   C131      1.0  0.17742  0.82258  0.75  1.0000
  C   C132      1.0  0.0902300000000001  0.90977  0.75  1.0000
  N   N1        1.0  0.4401  0.22005  0.25  1.0000
  N   N2        1.0  0.77995  0.5599  0.25  1.0000
  N   N3        1.0  0.78002  0.21997999999999995  0.25  1.0000
  N   N4        1.0  0.5599  0.77995  0.75  1.0000
  N   N5        1.0  0.22005  0.4401  0.75  1.0000
  N   N6        1.0  0.21997999999999998  0.78002  0.75  1.0000
  O   O1        1.0  0.47947999999999996  0.11012999999999998  0.50122  1.0000
  O   O2        1.0  0.43684  0.02744  0.42583999999999994  1.0000
  O   O3        1.0  0.6306099999999999  0.5205699999999999  0.50125  1.0000
  O   O4        1.0  0.59064  0.5631999999999998  0.42586  1.0000
  O   O5        1.0  0.8899499999999999  0.36942  0.50119  1.0000
  O   O6        1.0  0.9727199999999999  0.40953  0.42583999999999994  1.0000
  O   O7        1.0  0.52052  0.88987  0.00122  1.0000
  O   O8        1.0  0.5631699999999997  0.9725699999999998  0.92584  1.0000
  O   O9        1.0  0.3693899999999999  0.4794299999999999  0.0012499999999999998  1.0000
  O   O10       1.0  0.40935999999999995  0.4367999999999999  0.9258599999999999  1.0000
  O   O11       1.0  0.11004999999999994  0.63058  0.00119  1.0000
  O   O12       1.0  0.027279999999999995  0.59047  0.92584  1.0000
  O   O13       1.0  0.36941999999999997  0.88995  0.49880999999999986  1.0000
  O   O14       1.0  0.40952999999999995  0.97272  0.57416  1.0000
  O   O15       1.0  0.11012999999999995  0.47948  0.49878  1.0000
  O   O16       1.0  0.027429999999999965  0.4368299999999999  0.57416  1.0000
  O   O17       1.0  0.52057  0.63062  0.49875  1.0000
  O   O18       1.0  0.56319  0.59064  0.57414  1.0000
  O   O19       1.0  0.63058  0.11004999999999997  0.99881  1.0000
  O   O20       1.0  0.59047  0.027279999999999992  0.07416  1.0000
  O   O21       1.0  0.88987  0.52052  0.9987799999999999  1.0000
  O   O22       1.0  0.97257  0.5631699999999997  0.07416  1.0000
  O   O23       1.0  0.47943  0.36938  0.99875  1.0000
  O   O24       1.0  0.43681  0.4093599999999999  0.07414  1.0000
  O   O25       1.0  0.52052  0.88987  0.49878  1.0000
  O   O26       1.0  0.5631699999999997  0.9725699999999998  0.57416  1.0000
  O   O27       1.0  0.3693899999999999  0.4794299999999999  0.49875  1.0000
  O   O28       1.0  0.40935999999999995  0.4367999999999999  0.57414  1.0000
  O   O29       1.0  0.11004999999999994  0.63058  0.49880999999999986  1.0000
  O   O30       1.0  0.027279999999999995  0.59047  0.57416  1.0000
  O   O31       1.0  0.47947999999999996  0.11012999999999998  0.9987799999999999  1.0000
  O   O32       1.0  0.43684  0.02744  0.07416  1.0000
  O   O33       1.0  0.6306099999999999  0.5205699999999999  0.99875  1.0000
  O   O34       1.0  0.59064  0.5631999999999998  0.07414  1.0000
  O   O35       1.0  0.8899499999999999  0.36942  0.99881  1.0000
  O   O36       1.0  0.9727199999999999  0.40953  0.07416  1.0000
  O   O37       1.0  0.63058  0.11004999999999997  0.50119  1.0000
  O   O38       1.0  0.59047  0.027279999999999992  0.42583999999999994  1.0000
  O   O39       1.0  0.88987  0.52052  0.50122  1.0000
  O   O40       1.0  0.97257  0.5631699999999997  0.42583999999999994  1.0000
  O   O41       1.0  0.47943  0.36938  0.50125  1.0000
  O   O42       1.0  0.43681  0.4093599999999999  0.42586  1.0000
  O   O43       1.0  0.36941999999999997  0.88995  0.00119  1.0000
  O   O44       1.0  0.40952999999999995  0.97272  0.92584  1.0000
  O   O45       1.0  0.11012999999999995  0.47948  0.00122  1.0000
  O   O46       1.0  0.027429999999999965  0.4368299999999999  0.92584  1.0000
  O   O47       1.0  0.52057  0.63062  0.0012499999999999998  1.0000
  O   O48       1.0  0.56319  0.59064  0.9258599999999999  1.0000
