data_image0
_chemical_formula_structural       Zn8H54C120N36O36
_chemical_formula_sum              "Zn8 H54 C120 N36 O36"
_cell_length_a       12.21653
_cell_length_b       18.06752
_cell_length_c       24.222920000000002
_cell_angle_alpha    107.74205
_cell_angle_beta     99.18118999999999
_cell_angle_gamma    90.91982

_space_group_name_H-M_alt    "P 1"
_space_group_IT_number       1

loop_
  _space_group_symop_operation_xyz
  'x, y, z'

loop_
  _atom_site_type_symbol
  _atom_site_label
  _atom_site_symmetry_multiplicity
  _atom_site_fract_x
  _atom_site_fract_y
  _atom_site_fract_z
  _atom_site_occupancy
  Zn  Zn1       1.0  0.5583  0.30211999999999994  0.14358  1.0000
  Zn  Zn2       1.0  0.65333  0.16690999999999995  0.028190000000000003  1.0000
  Zn  Zn3       1.0  0.9556500000000001  0.51205  0.24376  1.0000
  Zn  Zn4       1.0  0.23083  0.07916999999999999  0.85978  1.0000
  Zn  Zn5       1.0  0.44171  0.69788  0.85642  1.0000
  Zn  Zn6       1.0  0.34667999999999993  0.8331  0.9718100000000001  1.0000
  Zn  Zn7       1.0  0.04436  0.48795  0.75624  1.0000
  Zn  Zn8       1.0  0.7691799999999999  0.92083  0.14022  1.0000
  H   H1        1.0  0.89833  0.93143  0.7437800000000001  1.0000
  H   H2        1.0  0.60574  0.9271199999999999  0.82211  1.0000
  H   H3        1.0  0.74927  0.63741  0.6673300000000001  1.0000
  H   H4        1.0  0.67779  0.54717  0.56549  1.0000
  H   H5        1.0  0.4227100000000001  0.8409  0.4933800000000001  1.0000
  H   H6        1.0  0.48593  0.9296  0.59698  1.0000
  H   H7        1.0  0.27157  0.59914  0.38862  1.0000
  H   H8        1.0  0.3028199999999999  0.42499999999999993  0.22574000000000002  1.0000
  H   H9        1.0  0.59181  0.51222  0.35883000000000004  1.0000
  H   H10       1.0  0.7290699999999999  0.4333399999999999  0.2258  1.0000
  H   H11       1.0  0.8409700000000001  0.21039  0.9799400000000003  1.0000
  H   H12       1.0  0.50426  0.2609  0.24435000000000004  1.0000
  H   H13       1.0  0.74442  0.018689999999999995  0.05328000000000001  1.0000
  H   H14       1.0  0.35323  0.37785  0.12372000000000001  1.0000
  H   H15       1.0  0.47477  0.08157  0.92115  1.0000
  H   H16       1.0  0.8957  0.07419000000000002  0.92163  1.0000
  H   H17       1.0  0.18971  0.2999  0.7841800000000001  1.0000
  H   H18       1.0  0.31694  0.29093  0.62624  1.0000
  H   H19       1.0  0.3625900000000001  0.10288  0.7009400000000001  1.0000
  H   H20       1.0  0.21513  0.027489999999999997  0.44971  1.0000
  H   H21       1.0  0.71014  0.07647000000000001  0.62882  1.0000
  H   H22       1.0  0.1311  0.37071  0.08519  1.0000
  H   H23       1.0  0.0943  0.4312999999999999  0.15184  1.0000
  H   H24       1.0  0.05801000000000002  0.26574000000000003  0.9888600000000001  1.0000
  H   H25       1.0  0.10061999999999999  0.18791999999999995  0.93294  1.0000
  H   H26       1.0  0.57922  0.04687000000000002  0.29028000000000004  1.0000
  H   H27       1.0  0.65947  0.98724  0.24212  1.0000
  H   H28       1.0  0.10168  0.06857999999999999  0.25622  1.0000
  H   H29       1.0  0.39427  0.07288999999999998  0.17789000000000002  1.0000
  H   H30       1.0  0.25074  0.36259  0.33268  1.0000
  H   H31       1.0  0.32222  0.45283  0.4345200000000001  1.0000
  H   H32       1.0  0.5773  0.1591  0.50663  1.0000
  H   H33       1.0  0.5140800000000001  0.07040000000000006  0.4030200000000001  1.0000
  H   H34       1.0  0.7284400000000001  0.40087  0.6113800000000001  1.0000
  H   H35       1.0  0.69719  0.57501  0.7742700000000001  1.0000
  H   H36       1.0  0.4082  0.48778  0.64118  1.0000
  H   H37       1.0  0.27094  0.5666599999999998  0.77421  1.0000
  H   H38       1.0  0.15903999999999996  0.7896199999999998  0.020070000000000005  1.0000
  H   H39       1.0  0.49575  0.73911  0.75566  1.0000
  H   H40       1.0  0.25559  0.98131  0.94672  1.0000
  H   H41       1.0  0.64678  0.6221500000000001  0.8762800000000001  1.0000
  H   H42       1.0  0.52524  0.9184299999999999  0.07885  1.0000
  H   H43       1.0  0.10430999999999999  0.9258099999999998  0.07837  1.0000
  H   H44       1.0  0.8103  0.70011  0.21583  1.0000
  H   H45       1.0  0.68307  0.70907  0.37377  1.0000
  H   H46       1.0  0.63742  0.8971199999999999  0.29906  1.0000
  H   H47       1.0  0.78488  0.97251  0.55029  1.0000
  H   H48       1.0  0.28987  0.9235299999999999  0.37118  1.0000
  H   H49       1.0  0.8689099999999998  0.62929  0.91482  1.0000
  H   H50       1.0  0.90571  0.5687  0.84816  1.0000
  H   H51       1.0  0.942  0.73427  0.01114  1.0000
  H   H52       1.0  0.8993899999999999  0.81209  0.06706  1.0000
  H   H53       1.0  0.42079  0.95313  0.7097200000000001  1.0000
  H   H54       1.0  0.34054  0.012759999999999973  0.75788  1.0000
  C   C1        1.0  0.8547399999999999  0.9512699999999998  0.7808900000000002  1.0000
  C   C2        1.0  0.74587  0.9235399999999998  0.77713  1.0000
  C   C3        1.0  0.69034  0.94897  0.82485  1.0000
  C   C4        1.0  0.6143  0.8964699999999999  0.6848200000000001  1.0000
  C   C5        1.0  0.57381  0.8424499999999999  0.62518  1.0000
  C   C6        1.0  0.60423  0.76447  0.60973  1.0000
  C   C7        1.0  0.67168  0.73592  0.65093  1.0000
  C   C8        1.0  0.71815  0.78916  0.7103300000000001  1.0000
  C   C9        1.0  0.69757  0.6582899999999999  0.63502  1.0000
  C   C10       1.0  0.65833  0.60796  0.5779600000000001  1.0000
  C   C11       1.0  0.59438  0.63526  0.53629  1.0000
  C   C12       1.0  0.56648  0.7138599999999999  0.55151  1.0000
  C   C13       1.0  0.50264  0.7434699999999996  0.50983  1.0000
  C   C14       1.0  0.47286  0.82011  0.52621  1.0000
  C   C15       1.0  0.50775  0.86934  0.58396  1.0000
  C   C16       1.0  0.46812  0.69334  0.44827000000000006  1.0000
  C   C17       1.0  0.55396  0.58114  0.47648  1.0000
  C   C18       1.0  0.43704  0.5614799999999998  0.37974  1.0000
  C   C19       1.0  0.32265000000000005  0.56116  0.36072  1.0000
  C   C20       1.0  0.27444  0.51299  0.30446  1.0000
  C   C21       1.0  0.34017  0.46366  0.26885  1.0000
  C   C22       1.0  0.45337  0.46231  0.28938  1.0000
  C   C23       1.0  0.50294  0.51239  0.34459  1.0000
  C   C24       1.0  0.52364  0.40766999999999987  0.25285  1.0000
  C   C25       1.0  0.20145  0.38102999999999987  0.70964  1.0000
  C   C26       1.0  0.15395999999999999  0.5130499999999998  0.28186  1.0000
  C   C27       1.0  0.76519  0.40337  0.1875  1.0000
  C   C28       1.0  0.7831400000000001  0.32084999999999997  0.10387  1.0000
  C   C29       1.0  0.88246  0.36841  0.12713  1.0000
  C   C30       1.0  0.9700499999999999  0.3548599999999999  0.09383000000000001  1.0000
  C   C31       1.0  0.85245  0.25604  0.02229  1.0000
  C   C32       1.0  0.54675  0.20984  0.2241  1.0000
  C   C33       1.0  0.63014  0.14281  0.14803  1.0000
  C   C34       1.0  0.7093  0.05153999999999998  0.09108  1.0000
  C   C35       1.0  0.34294  0.32988  0.08275  1.0000
  C   C36       1.0  0.22439000000000006  0.25357000000000013  0.9980000000000002  1.0000
  C   C37       1.0  0.31692  0.21053999999999995  0.98226  1.0000
  C   C38       1.0  0.41929  0.23087  0.0214  1.0000
  C   C39       1.0  0.43726000000000004  0.13048999999999997  0.9481900000000001  1.0000
  C   C40       1.0  0.68189  0.03502000000000004  0.9270800000000001  1.0000
  C   C41       1.0  0.74395  0.004470000000000046  0.8768700000000001  1.0000
  C   C42       1.0  0.85352  0.03218999999999999  0.88103  1.0000
  C   C43       1.0  0.65265  0.08364  0.17465  1.0000
  C   C44       1.0  0.61603  0.09235000000000002  0.22902000000000003  1.0000
  C   C45       1.0  0.027209999999999984  0.032429999999999945  0.83773  1.0000
  C   C46       1.0  0.90935  0.005310000000000043  0.8333400000000001  1.0000
  C   C47       1.0  0.2547  0.16429  0.79412  1.0000
  C   C48       1.0  0.27586000000000005  0.19866000000000011  0.7480600000000001  1.0000
  C   C49       1.0  0.23475999999999997  0.27059999999999995  0.74936  1.0000
  C   C50       1.0  0.24984000000000006  0.30412  0.7059800000000003  1.0000
  C   C51       1.0  0.30599  0.26499  0.6602  1.0000
  C   C52       1.0  0.34437  0.19201  0.65854  1.0000
  C   C53       1.0  0.33105000000000007  0.15921999999999994  0.70252  1.0000
  C   C54       1.0  0.32204  0.11061000000000008  0.5557600000000001  1.0000
  C   C55       1.0  0.36776999999999993  0.04930999999999999  0.51068  1.0000
  C   C56       1.0  0.30029  0.011069999999999993  0.45704  1.0000
  C   C57       1.0  0.47891  0.029360000000000018  0.52211  1.0000
  C   C58       1.0  0.54915  0.06715000000000003  0.57645  1.0000
  C   C59       1.0  0.5059  0.12632  0.62391  1.0000
  C   C60       1.0  0.65833  0.04689999999999994  0.58648  1.0000
  C   C61       1.0  0.14527000000000004  0.04873000000000003  0.21911000000000003  1.0000
  C   C62       1.0  0.25414  0.07647000000000002  0.22287000000000007  1.0000
  C   C63       1.0  0.30967  0.05102999999999999  0.17515  1.0000
  C   C64       1.0  0.38570999999999994  0.10353  0.31519  1.0000
  C   C65       1.0  0.42619999999999997  0.15755  0.37482  1.0000
  C   C66       1.0  0.39578  0.23554  0.39028  1.0000
  C   C67       1.0  0.32832999999999996  0.26408  0.34907  1.0000
  C   C68       1.0  0.28186  0.21083999999999994  0.28967  1.0000
  C   C69       1.0  0.30244000000000004  0.34172  0.36499000000000004  1.0000
  C   C70       1.0  0.34168  0.39203999999999994  0.42204  1.0000
  C   C71       1.0  0.40563  0.3647500000000001  0.4637100000000001  1.0000
  C   C72       1.0  0.43352999999999997  0.2861399999999999  0.44849  1.0000
  C   C73       1.0  0.49737000000000003  0.25653000000000004  0.49017000000000005  1.0000
  C   C74       1.0  0.52715  0.17989  0.4738  1.0000
  C   C75       1.0  0.49226  0.13066  0.41605  1.0000
  C   C76       1.0  0.53189  0.30666  0.55173  1.0000
  C   C77       1.0  0.44604999999999995  0.41886  0.52352  1.0000
  C   C78       1.0  0.56297  0.43853  0.62027  1.0000
  C   C79       1.0  0.67736  0.43884  0.63928  1.0000
  C   C80       1.0  0.7255699999999999  0.48701999999999995  0.69554  1.0000
  C   C81       1.0  0.65984  0.53635  0.73116  1.0000
  C   C82       1.0  0.54664  0.5376899999999998  0.7106200000000001  1.0000
  C   C83       1.0  0.49707  0.48761  0.65542  1.0000
  C   C84       1.0  0.47637  0.5923399999999998  0.74715  1.0000
  C   C85       1.0  0.7985600000000002  0.61898  0.29036000000000006  1.0000
  C   C86       1.0  0.84605  0.48695  0.71814  1.0000
  C   C87       1.0  0.23482000000000003  0.59664  0.8125000000000001  1.0000
  C   C88       1.0  0.21687  0.67916  0.89613  1.0000
  C   C89       1.0  0.11754999999999999  0.6316  0.87287  1.0000
  C   C90       1.0  0.02996000000000003  0.6451500000000001  0.9061700000000001  1.0000
  C   C91       1.0  0.14756000000000005  0.74397  0.9777200000000003  1.0000
  C   C92       1.0  0.45326  0.79017  0.7759100000000002  1.0000
  C   C93       1.0  0.36987  0.85719  0.85197  1.0000
  C   C94       1.0  0.29071  0.9484599999999999  0.9089300000000001  1.0000
  C   C95       1.0  0.65707  0.6701299999999999  0.9172500000000001  1.0000
  C   C96       1.0  0.77562  0.74644  0.00201  1.0000
  C   C97       1.0  0.68309  0.78946  0.01774  1.0000
  C   C98       1.0  0.58072  0.7691400000000002  0.9786100000000001  1.0000
  C   C99       1.0  0.56275  0.8695099999999998  0.05181  1.0000
  C   C100      1.0  0.31812  0.9649799999999998  0.07293  1.0000
  C   C101      1.0  0.25606  0.9955299999999999  0.12313  1.0000
  C   C102      1.0  0.14649  0.9678199999999999  0.11897000000000002  1.0000
  C   C103      1.0  0.34736  0.91636  0.82535  1.0000
  C   C104      1.0  0.38398  0.90765  0.77098  1.0000
  C   C105      1.0  0.9727999999999999  0.9675699999999999  0.16227000000000003  1.0000
  C   C106      1.0  0.09066  0.9946899999999997  0.16666  1.0000
  C   C107      1.0  0.7453099999999999  0.83571  0.20588000000000006  1.0000
  C   C108      1.0  0.7241499999999998  0.8013499999999999  0.25194  1.0000
  C   C109      1.0  0.76525  0.7293999999999998  0.25064  1.0000
  C   C110      1.0  0.75016  0.69589  0.29402  1.0000
  C   C111      1.0  0.6940200000000001  0.7350099999999997  0.3398  1.0000
  C   C112      1.0  0.65564  0.8079999999999998  0.34146  1.0000
  C   C113      1.0  0.66896  0.84078  0.29748  1.0000
  C   C114      1.0  0.6779700000000001  0.8894  0.44425  1.0000
  C   C115      1.0  0.63224  0.9506899999999999  0.48932  1.0000
  C   C116      1.0  0.69972  0.98893  0.5429600000000001  1.0000
  C   C117      1.0  0.5211  0.9706399999999998  0.47789  1.0000
  C   C118      1.0  0.45086  0.93286  0.42355  1.0000
  C   C119      1.0  0.49411  0.87369  0.37609  1.0000
  C   C120      1.0  0.34168  0.9530999999999998  0.4135200000000001  1.0000
  N   N1        1.0  0.69183  0.86837  0.72192  1.0000
  N   N2        1.0  0.48582  0.61298  0.43699  1.0000
  N   N3        1.0  0.8691600000000002  0.42043  0.18109  1.0000
  N   N4        1.0  0.70983  0.34351999999999994  0.14231  1.0000
  N   N5        1.0  0.76619  0.26197  0.051890000000000006  1.0000
  N   N6        1.0  0.9487199999999999  0.29862999999999995  0.03977  1.0000
  N   N7        1.0  0.07075  0.39236  0.11049  1.0000
  N   N8        1.0  0.66741  0.12175  0.09523000000000002  1.0000
  N   N9        1.0  0.57766  0.20709  0.17189  1.0000
  N   N10       1.0  0.43447  0.28925  0.07318000000000001  1.0000
  N   N11       1.0  0.24363  0.31579  0.04867  1.0000
  N   N12       1.0  0.12077  0.23781  0.96803  1.0000
  N   N13       1.0  0.49506999999999995  0.17997999999999995  0.99909  1.0000
  N   N14       1.0  0.33022  0.1459  0.93642  1.0000
  N   N15       1.0  0.70253  0.02593  0.13733  1.0000
  N   N16       1.0  0.62826  0.041040000000000014  0.25895000000000007  1.0000
  N   N17       1.0  0.5622  0.15752  0.25221  1.0000
  N   N18       1.0  0.39418999999999993  0.14487999999999995  0.61017  1.0000
  N   N19       1.0  0.30818  0.13163  0.27808  1.0000
  N   N20       1.0  0.51419  0.3870299999999999  0.56301  1.0000
  N   N21       1.0  0.13085  0.57958  0.81891  1.0000
  N   N22       1.0  0.29018  0.65648  0.85769  1.0000
  N   N23       1.0  0.23381999999999997  0.73803  0.94811  1.0000
  N   N24       1.0  0.051289999999999954  0.70138  0.96023  1.0000
  N   N25       1.0  0.92926  0.6076399999999998  0.8895200000000001  1.0000
  N   N26       1.0  0.3325900000000001  0.8782499999999998  0.9047800000000001  1.0000
  N   N27       1.0  0.42235  0.7929199999999997  0.82811  1.0000
  N   N28       1.0  0.56554  0.7107499999999999  0.9268300000000002  1.0000
  N   N29       1.0  0.75638  0.6842100000000001  0.9513300000000001  1.0000
  N   N30       1.0  0.87924  0.7622  0.03198  1.0000
  N   N31       1.0  0.50494  0.82003  0.00091  1.0000
  N   N32       1.0  0.66979  0.8541  0.06358  1.0000
  N   N33       1.0  0.2974800000000001  0.9740799999999998  0.8626700000000003  1.0000
  N   N34       1.0  0.37175  0.9589699999999999  0.74106  1.0000
  N   N35       1.0  0.4378099999999999  0.84249  0.7478000000000002  1.0000
  N   N36       1.0  0.60582  0.8551200000000001  0.38983  1.0000
  O   O1        1.0  0.7773299999999997  0.7679699999999998  0.74777  1.0000
  O   O2        1.0  0.58446  0.96349  0.70119  1.0000
  O   O3        1.0  0.42617  0.71864  0.40872000000000014  1.0000
  O   O4        1.0  0.5766  0.51281  0.46112  1.0000
  O   O5        1.0  0.47751  0.37463  0.1979  1.0000
  O   O6        1.0  0.61797  0.3951899999999999  0.27496  1.0000
  O   O7        1.0  0.13182  0.39956999999999987  0.74695  1.0000
  O   O8        1.0  0.22752  0.42244  0.68044  1.0000
  O   O9        1.0  0.08297  0.52533  0.31646  1.0000
  O   O10       1.0  0.12094000000000005  0.50022  0.22615000000000005  1.0000
  O   O11       1.0  0.72719  0.09958  0.96671  1.0000
  O   O12       1.0  0.59371  9.000000000002073e-05  0.92814  1.0000
  O   O13       1.0  0.19429999999999994  0.19580999999999993  0.83082  1.0000
  O   O14       1.0  0.30039  0.09972  0.79485  1.0000
  O   O15       1.0  0.07729000000000007  0.00751000000000009  0.7946900000000002  1.0000
  O   O16       1.0  0.07822000000000004  0.08034000000000002  0.8874100000000001  1.0000
  O   O17       1.0  0.56103  0.15633999999999995  0.67287  1.0000
  O   O18       1.0  0.22669  0.13008000000000003  0.54739  1.0000
  O   O19       1.0  0.22267999999999996  0.23203999999999997  0.25223  1.0000
  O   O20       1.0  0.4155499999999999  0.03651  0.29882  1.0000
  O   O21       1.0  0.5738399999999998  0.2813599999999999  0.59128  1.0000
  O   O22       1.0  0.42341  0.4872  0.53889  1.0000
  O   O23       1.0  0.5225  0.62537  0.8021  1.0000
  O   O24       1.0  0.38204  0.60482  0.72504  1.0000
  O   O25       1.0  0.8681899999999999  0.6004399999999998  0.25305  1.0000
  O   O26       1.0  0.7724899999999999  0.57756  0.31956000000000007  1.0000
  O   O27       1.0  0.9170400000000001  0.4746699999999999  0.68354  1.0000
  O   O28       1.0  0.87907  0.49978  0.77385  1.0000
  O   O29       1.0  0.27281  0.9004199999999999  0.03329  1.0000
  O   O30       1.0  0.40629999999999994  0.99992  0.07186  1.0000
  O   O31       1.0  0.80571  0.8042  0.16918000000000002  1.0000
  O   O32       1.0  0.69962  0.90028  0.20516  1.0000
  O   O33       1.0  0.92272  0.9924899999999999  0.20531  1.0000
  O   O34       1.0  0.92179  0.9196599999999999  0.1126  1.0000
  O   O35       1.0  0.4389799999999999  0.8436599999999997  0.32713000000000003  1.0000
  O   O36       1.0  0.77332  0.86992  0.45261  1.0000
