data_image0
_chemical_formula_structural       Zn8H96C144N48O32
_chemical_formula_sum              "Zn8 H96 C144 N48 O32"
_cell_length_a       15.84801
_cell_length_b       17.19892
_cell_length_c       19.855990000000002
_cell_angle_alpha    89.98366999999999
_cell_angle_beta     90.0
_cell_angle_gamma    90.0

_space_group_name_H-M_alt    "P 1"
_space_group_IT_number       1

loop_
  _space_group_symop_operation_xyz
  'x, y, z'

loop_
  _atom_site_type_symbol
  _atom_site_label
  _atom_site_symmetry_multiplicity
  _atom_site_fract_x
  _atom_site_fract_y
  _atom_site_fract_z
  _atom_site_occupancy
  Zn  Zn1       1.0  0.52176  0.99371  0.21593  1.0000
  Zn  Zn2       1.0  0.97756  0.49346000000000007  0.28438  1.0000
  Zn  Zn3       1.0  0.52176  0.50629  0.7840700000000002  1.0000
  Zn  Zn4       1.0  0.97756  0.00654  0.71562  1.0000
  Zn  Zn5       1.0  0.47824  0.00629  0.7840700000000002  1.0000
  Zn  Zn6       1.0  0.02244  0.50654  0.71562  1.0000
  Zn  Zn7       1.0  0.47824  0.49371000000000004  0.21593  1.0000
  Zn  Zn8       1.0  0.02244  0.99346  0.28438  1.0000
  H   H1        1.0  0.41807  0.25312  0.11228  1.0000
  H   H2        1.0  0.37662  0.10014000000000003  0.27571  1.0000
  H   H3        1.0  0.36042  0.34479  0.20671  1.0000
  H   H4        1.0  0.22834  0.41981  0.23058  1.0000
  H   H5        1.0  0.09254  0.20677  0.26132  1.0000
  H   H6        1.0  0.22168  0.13091  0.2324  1.0000
  H   H7        1.0  0.69308  0.01061  0.11812000000000002  1.0000
  H   H8        1.0  0.5415999999999999  0.8982400000000003  0.97185  1.0000
  H   H9        1.0  0.61827  0.0013  0.90287  1.0000
  H   H10       1.0  0.72869  0.00892  0.81504  1.0000
  H   H11       1.0  0.918  0.94418  0.9595000000000001  1.0000
  H   H12       1.0  0.8062  0.9301  0.04818  1.0000
  H   H13       1.0  0.08163  0.75288  0.38748  1.0000
  H   H14       1.0  0.12334  0.59973  0.22428  1.0000
  H   H15       1.0  0.13973  0.8445000000000001  0.29337  1.0000
  H   H16       1.0  0.27177  0.91944  0.26995  1.0000
  H   H17       1.0  0.4076  0.70634  0.23899  1.0000
  H   H18       1.0  0.27836  0.63058  0.26783  1.0000
  H   H19       1.0  0.80759  0.5103000000000002  0.38209  1.0000
  H   H20       1.0  0.95873  0.39797  0.52866  1.0000
  H   H21       1.0  0.88048  0.50136  0.5978  1.0000
  H   H22       1.0  0.76858  0.50873  0.68459  1.0000
  H   H23       1.0  0.58178  0.44315  0.5383  1.0000
  H   H24       1.0  0.69505  0.43019  0.45076  1.0000
  H   H25       1.0  0.41807  0.24687000000000003  0.8877200000000001  1.0000
  H   H26       1.0  0.37662  0.39986  0.72429  1.0000
  H   H27       1.0  0.36042  0.15521000000000004  0.7932900000000002  1.0000
  H   H28       1.0  0.22834  0.08018000000000002  0.76942  1.0000
  H   H29       1.0  0.09254  0.29323  0.73867  1.0000
  H   H30       1.0  0.22168  0.36909  0.7676  1.0000
  H   H31       1.0  0.69308  0.48939  0.88188  1.0000
  H   H32       1.0  0.5415999999999999  0.60176  0.02815  1.0000
  H   H33       1.0  0.61827  0.49870000000000003  0.09713  1.0000
  H   H34       1.0  0.72869  0.49108  0.18496  1.0000
  H   H35       1.0  0.918  0.55582  0.0405  1.0000
  H   H36       1.0  0.8062  0.5699  0.95182  1.0000
  H   H37       1.0  0.08163  0.7471100000000003  0.61252  1.0000
  H   H38       1.0  0.12334  0.90026  0.77572  1.0000
  H   H39       1.0  0.13973  0.65549  0.7066200000000001  1.0000
  H   H40       1.0  0.27177  0.58055  0.73005  1.0000
  H   H41       1.0  0.4076  0.79366  0.76101  1.0000
  H   H42       1.0  0.27836  0.8694100000000002  0.73217  1.0000
  H   H43       1.0  0.80759  0.9897  0.61791  1.0000
  H   H44       1.0  0.95873  0.10203  0.47134000000000004  1.0000
  H   H45       1.0  0.88048  0.9986300000000001  0.4022  1.0000
  H   H46       1.0  0.76858  0.9912600000000001  0.31541  1.0000
  H   H47       1.0  0.58178  0.05685  0.4617  1.0000
  H   H48       1.0  0.69505  0.06981  0.54924  1.0000
  H   H49       1.0  0.58193  0.74687  0.8877200000000001  1.0000
  H   H50       1.0  0.62337  0.89986  0.72429  1.0000
  H   H51       1.0  0.63957  0.65521  0.7932900000000002  1.0000
  H   H52       1.0  0.77166  0.58018  0.76942  1.0000
  H   H53       1.0  0.90745  0.7932300000000001  0.73867  1.0000
  H   H54       1.0  0.77831  0.86909  0.7676  1.0000
  H   H55       1.0  0.30691  0.98939  0.88188  1.0000
  H   H56       1.0  0.4584  0.10176  0.02815  1.0000
  H   H57       1.0  0.38173  0.9987  0.09713  1.0000
  H   H58       1.0  0.2713  0.9910800000000001  0.18496  1.0000
  H   H59       1.0  0.08199  0.055820000000000015  0.0405  1.0000
  H   H60       1.0  0.1938  0.0699  0.95182  1.0000
  H   H61       1.0  0.91837  0.24711  0.61252  1.0000
  H   H62       1.0  0.87666  0.40026  0.77572  1.0000
  H   H63       1.0  0.86027  0.15549  0.7066200000000001  1.0000
  H   H64       1.0  0.72822  0.08055  0.73005  1.0000
  H   H65       1.0  0.59239  0.29366  0.76101  1.0000
  H   H66       1.0  0.72163  0.36942  0.73217  1.0000
  H   H67       1.0  0.19241  0.48969999999999997  0.61791  1.0000
  H   H68       1.0  0.04127  0.60203  0.47134000000000004  1.0000
  H   H69       1.0  0.11952  0.49862999999999996  0.4022  1.0000
  H   H70       1.0  0.23141  0.49127  0.31541  1.0000
  H   H71       1.0  0.41822  0.55685  0.4617  1.0000
  H   H72       1.0  0.30494  0.56981  0.54924  1.0000
  H   H73       1.0  0.58193  0.75312  0.11228  1.0000
  H   H74       1.0  0.62337  0.60013  0.27571  1.0000
  H   H75       1.0  0.63957  0.84479  0.20671  1.0000
  H   H76       1.0  0.77166  0.91981  0.23058  1.0000
  H   H77       1.0  0.90745  0.70677  0.26132  1.0000
  H   H78       1.0  0.77831  0.63091  0.2324  1.0000
  H   H79       1.0  0.30691  0.51061  0.11812000000000002  1.0000
  H   H80       1.0  0.4584  0.39824  0.97185  1.0000
  H   H81       1.0  0.38173  0.5013000000000001  0.90287  1.0000
  H   H82       1.0  0.2713  0.50892  0.81504  1.0000
  H   H83       1.0  0.08199  0.44418000000000013  0.9595000000000001  1.0000
  H   H84       1.0  0.1938  0.4301  0.04818  1.0000
  H   H85       1.0  0.91837  0.25289  0.38748  1.0000
  H   H86       1.0  0.87666  0.09973  0.22428  1.0000
  H   H87       1.0  0.86027  0.34451  0.29337  1.0000
  H   H88       1.0  0.72822  0.4194400000000001  0.26995  1.0000
  H   H89       1.0  0.59239  0.20634  0.23899  1.0000
  H   H90       1.0  0.72163  0.13058  0.26783  1.0000
  H   H91       1.0  0.19241  0.0103  0.38209  1.0000
  H   H92       1.0  0.04127  0.8979700000000003  0.52866  1.0000
  H   H93       1.0  0.11952  0.00136  0.5978  1.0000
  H   H94       1.0  0.23141  0.00873  0.68459  1.0000
  H   H95       1.0  0.41822  0.9431500000000002  0.5383  1.0000
  H   H96       1.0  0.30494  0.9301799999999999  0.45076  1.0000
  C   C1        1.0  0.42406  0.20354  0.14551  1.0000
  C   C2        1.0  0.40141  0.12573  0.22998  1.0000
  C   C3        1.0  0.29762  0.23440000000000003  0.21733000000000002  1.0000
  C   C4        1.0  0.30074  0.31552000000000013  0.21640000000000004  1.0000
  C   C5        1.0  0.22732  0.3567  0.23107999999999998  1.0000
  C   C6        1.0  0.15215  0.31794  0.2475  1.0000
  C   C7        1.0  0.15102  0.23641  0.24877000000000002  1.0000
  C   C8        1.0  0.22353  0.19414  0.23335999999999998  1.0000
  C   C9        1.0  0.07289  0.36261  0.26317  1.0000
  C   C10       1.0  0.64096  0.9808700000000001  0.09417  1.0000
  C   C11       1.0  0.56196  0.92319  0.01944  1.0000
  C   C12       1.0  0.70598  0.9635099999999999  0.9796900000000001  1.0000
  C   C13       1.0  0.68323  0.98591  0.9145600000000002  1.0000
  C   C14       1.0  0.74584  0.9912299999999999  0.8656900000000001  1.0000
  C   C15       1.0  0.83029  0.9757600000000001  0.8817900000000001  1.0000
  C   C16       1.0  0.85201  0.9552200000000001  0.94795  1.0000
  C   C17       1.0  0.78988  0.9481300000000001  0.99727  1.0000
  C   C18       1.0  0.89812  0.9816600000000001  0.82938  1.0000
  C   C19       1.0  0.07552  0.70348  0.3541  1.0000
  C   C20       1.0  0.09823  0.62552  0.26979  1.0000
  C   C21       1.0  0.20244  0.73404  0.28277  1.0000
  C   C22       1.0  0.19939  0.81516  0.28382  1.0000
  C   C23       1.0  0.27283  0.85634  0.26926  1.0000
  C   C24       1.0  0.34797  0.8176200000000002  0.2527  1.0000
  C   C25       1.0  0.34914  0.73608  0.25144  1.0000
  C   C26       1.0  0.27659  0.69381  0.26685  1.0000
  C   C27       1.0  0.42697  0.86253  0.23663  1.0000
  C   C28       1.0  0.8596  0.48045  0.40614  1.0000
  C   C29       1.0  0.9384  0.42277000000000003  0.48102  1.0000
  C   C30       1.0  0.79404  0.46335  0.52024  1.0000
  C   C31       1.0  0.81575  0.48580000000000007  0.58554  1.0000
  C   C32       1.0  0.75238  0.49081  0.63381  1.0000
  C   C33       1.0  0.66824  0.47474  0.6171  1.0000
  C   C34       1.0  0.64752  0.45442  0.55066  1.0000
  C   C35       1.0  0.71043  0.4479200000000001  0.50191  1.0000
  C   C36       1.0  0.59977  0.47974999999999995  0.66917  1.0000
  C   C37       1.0  0.42406  0.29646  0.85449  1.0000
  C   C38       1.0  0.40141  0.37427  0.77002  1.0000
  C   C39       1.0  0.29762  0.2656  0.78267  1.0000
  C   C40       1.0  0.30074  0.18448  0.7836  1.0000
  C   C41       1.0  0.22732  0.1433  0.76892  1.0000
  C   C42       1.0  0.15215  0.18206  0.7525  1.0000
  C   C43       1.0  0.15102  0.26359  0.7512300000000001  1.0000
  C   C44       1.0  0.22353  0.30586  0.76664  1.0000
  C   C45       1.0  0.07289  0.13738  0.73683  1.0000
  C   C46       1.0  0.64096  0.51913  0.9058300000000001  1.0000
  C   C47       1.0  0.56196  0.57681  0.98056  1.0000
  C   C48       1.0  0.70598  0.53649  0.02031  1.0000
  C   C49       1.0  0.68323  0.51409  0.08544  1.0000
  C   C50       1.0  0.74584  0.50877  0.13431  1.0000
  C   C51       1.0  0.83029  0.5242400000000003  0.11821000000000001  1.0000
  C   C52       1.0  0.85201  0.54478  0.05205  1.0000
  C   C53       1.0  0.78988  0.55187  0.00273  1.0000
  C   C54       1.0  0.89812  0.51834  0.17062000000000002  1.0000
  C   C55       1.0  0.07552  0.7965200000000002  0.6459  1.0000
  C   C56       1.0  0.09823  0.87447  0.73021  1.0000
  C   C57       1.0  0.20244  0.76596  0.71723  1.0000
  C   C58       1.0  0.19939  0.68484  0.71618  1.0000
  C   C59       1.0  0.27283  0.64365  0.73074  1.0000
  C   C60       1.0  0.34797  0.68237  0.7473  1.0000
  C   C61       1.0  0.34914  0.76392  0.74856  1.0000
  C   C62       1.0  0.27659  0.80619  0.73315  1.0000
  C   C63       1.0  0.42697  0.63747  0.76337  1.0000
  C   C64       1.0  0.8596  0.01955000000000001  0.59386  1.0000
  C   C65       1.0  0.9384  0.07722  0.51898  1.0000
  C   C66       1.0  0.79404  0.03665  0.47976  1.0000
  C   C67       1.0  0.81575  0.0142  0.41446000000000005  1.0000
  C   C68       1.0  0.75238  0.00919  0.36619  1.0000
  C   C69       1.0  0.66824  0.02525  0.3829  1.0000
  C   C70       1.0  0.64752  0.04557  0.4493400000000001  1.0000
  C   C71       1.0  0.71043  0.05208000000000001  0.49809  1.0000
  C   C72       1.0  0.59977  0.02025  0.33083  1.0000
  C   C73       1.0  0.57594  0.79646  0.85449  1.0000
  C   C74       1.0  0.59859  0.87427  0.77002  1.0000
  C   C75       1.0  0.70238  0.7656000000000001  0.78267  1.0000
  C   C76       1.0  0.69926  0.68448  0.7836  1.0000
  C   C77       1.0  0.77268  0.6433000000000002  0.76892  1.0000
  C   C78       1.0  0.84785  0.68205  0.7525  1.0000
  C   C79       1.0  0.84897  0.76358  0.7512300000000001  1.0000
  C   C80       1.0  0.7764699999999998  0.80586  0.76664  1.0000
  C   C81       1.0  0.92711  0.63738  0.73683  1.0000
  C   C82       1.0  0.35904  0.019130000000000008  0.9058300000000001  1.0000
  C   C83       1.0  0.43803  0.07681  0.98056  1.0000
  C   C84       1.0  0.29402  0.03649  0.02031  1.0000
  C   C85       1.0  0.31677  0.01409  0.08544  1.0000
  C   C86       1.0  0.25416  0.00877  0.13431  1.0000
  C   C87       1.0  0.1697  0.02424  0.11821000000000001  1.0000
  C   C88       1.0  0.14799  0.04478  0.05205  1.0000
  C   C89       1.0  0.21012  0.05187  0.00273  1.0000
  C   C90       1.0  0.10188  0.01834  0.17062000000000002  1.0000
  C   C91       1.0  0.92447  0.29652  0.6459  1.0000
  C   C92       1.0  0.90176  0.37447  0.73021  1.0000
  C   C93       1.0  0.79755  0.26596  0.71723  1.0000
  C   C94       1.0  0.8006099999999998  0.18484  0.71618  1.0000
  C   C95       1.0  0.72716  0.14366  0.73074  1.0000
  C   C96       1.0  0.65203  0.18237  0.7473  1.0000
  C   C97       1.0  0.65086  0.26392  0.74856  1.0000
  C   C98       1.0  0.7234099999999998  0.30619  0.73315  1.0000
  C   C99       1.0  0.57303  0.13747  0.76337  1.0000
  C   C100      1.0  0.14039  0.51955  0.59386  1.0000
  C   C101      1.0  0.0616  0.57722  0.51898  1.0000
  C   C102      1.0  0.20596  0.53664  0.47976  1.0000
  C   C103      1.0  0.18424  0.5142  0.41446000000000005  1.0000
  C   C104      1.0  0.24762  0.5091900000000003  0.36619  1.0000
  C   C105      1.0  0.33176  0.52525  0.3829  1.0000
  C   C106      1.0  0.35248  0.54557  0.4493400000000001  1.0000
  C   C107      1.0  0.28957  0.55208  0.49809  1.0000
  C   C108      1.0  0.40022  0.5202500000000002  0.33083  1.0000
  C   C109      1.0  0.57594  0.70354  0.14551  1.0000
  C   C110      1.0  0.59859  0.62572  0.22998  1.0000
  C   C111      1.0  0.70238  0.7344  0.21733000000000002  1.0000
  C   C112      1.0  0.69926  0.81552  0.21640000000000004  1.0000
  C   C113      1.0  0.77268  0.8567  0.23107999999999998  1.0000
  C   C114      1.0  0.84785  0.81794  0.2475  1.0000
  C   C115      1.0  0.84897  0.7364100000000002  0.24877000000000002  1.0000
  C   C116      1.0  0.7764699999999998  0.69413  0.23335999999999998  1.0000
  C   C117      1.0  0.92711  0.8626100000000002  0.26317  1.0000
  C   C118      1.0  0.35904  0.48087  0.09417  1.0000
  C   C119      1.0  0.43803  0.42319000000000007  0.01944  1.0000
  C   C120      1.0  0.29402  0.46351  0.9796900000000001  1.0000
  C   C121      1.0  0.31677  0.48591  0.9145600000000002  1.0000
  C   C122      1.0  0.25416  0.49123  0.8656900000000001  1.0000
  C   C123      1.0  0.1697  0.47576  0.8817900000000001  1.0000
  C   C124      1.0  0.14799  0.45522  0.94795  1.0000
  C   C125      1.0  0.21012  0.44813  0.99727  1.0000
  C   C126      1.0  0.10188  0.48166  0.82938  1.0000
  C   C127      1.0  0.92447  0.20348  0.3541  1.0000
  C   C128      1.0  0.90176  0.12552  0.26979  1.0000
  C   C129      1.0  0.79755  0.23404000000000003  0.28277  1.0000
  C   C130      1.0  0.8006099999999998  0.31516  0.28382  1.0000
  C   C131      1.0  0.72716  0.3563400000000001  0.26926  1.0000
  C   C132      1.0  0.65203  0.31763  0.2527  1.0000
  C   C133      1.0  0.65086  0.23608  0.25144  1.0000
  C   C134      1.0  0.7234099999999998  0.19381  0.26685  1.0000
  C   C135      1.0  0.57303  0.36253  0.23663  1.0000
  C   C136      1.0  0.14039  0.98045  0.40614  1.0000
  C   C137      1.0  0.0616  0.92277  0.48102  1.0000
  C   C138      1.0  0.20596  0.96335  0.52024  1.0000
  C   C139      1.0  0.18424  0.9858  0.58554  1.0000
  C   C140      1.0  0.24762  0.9908100000000001  0.63381  1.0000
  C   C141      1.0  0.33176  0.9747400000000002  0.6171  1.0000
  C   C142      1.0  0.35248  0.9544200000000002  0.55066  1.0000
  C   C143      1.0  0.28957  0.94792  0.50191  1.0000
  C   C144      1.0  0.40022  0.97975  0.66917  1.0000
  N   N1        1.0  0.48152  0.14828000000000005  0.14131  1.0000
  N   N2        1.0  0.46692  0.09951  0.19551  1.0000
  N   N3        1.0  0.37155  0.19122  0.19965  1.0000
  N   N4        1.0  0.51683  0.9276  0.07508  1.0000
  N   N5        1.0  0.56728  0.9643499999999999  0.12207000000000001  1.0000
  N   N6        1.0  0.6406  0.95582  0.028970000000000003  1.0000
  N   N7        1.0  0.01776  0.64847  0.35815  1.0000
  N   N8        1.0  0.0324  0.5995800000000002  0.30407  1.0000
  N   N9        1.0  0.12826  0.69096  0.30011  1.0000
  N   N10       1.0  0.98357  0.42682  0.42537  1.0000
  N   N11       1.0  0.9332  0.4635700000000001  0.37829  1.0000
  N   N12       1.0  0.8599  0.4556700000000001  0.47140000000000004  1.0000
  N   N13       1.0  0.48152  0.35172  0.85869  1.0000
  N   N14       1.0  0.46692  0.40049  0.80449  1.0000
  N   N15       1.0  0.37155  0.30878  0.80035  1.0000
  N   N16       1.0  0.51683  0.5724  0.9249200000000001  1.0000
  N   N17       1.0  0.56728  0.53565  0.8779299999999999  1.0000
  N   N18       1.0  0.6406  0.54418  0.97103  1.0000
  N   N19       1.0  0.01776  0.85152  0.64185  1.0000
  N   N20       1.0  0.0324  0.90042  0.69593  1.0000
  N   N21       1.0  0.12826  0.8090300000000002  0.69989  1.0000
  N   N22       1.0  0.98357  0.07318  0.57463  1.0000
  N   N23       1.0  0.9332  0.03643  0.62171  1.0000
  N   N24       1.0  0.8599  0.044330000000000015  0.5286  1.0000
  N   N25       1.0  0.51847  0.85172  0.85869  1.0000
  N   N26       1.0  0.53308  0.90049  0.80449  1.0000
  N   N27       1.0  0.62844  0.8087800000000002  0.80035  1.0000
  N   N28       1.0  0.48317  0.0724  0.9249200000000001  1.0000
  N   N29       1.0  0.43272  0.03565  0.8779299999999999  1.0000
  N   N30       1.0  0.3594  0.04418  0.97103  1.0000
  N   N31       1.0  0.98223  0.35153  0.64185  1.0000
  N   N32       1.0  0.9676  0.40042  0.69593  1.0000
  N   N33       1.0  0.87174  0.30903  0.69989  1.0000
  N   N34       1.0  0.01642  0.57318  0.57463  1.0000
  N   N35       1.0  0.06679  0.53643  0.62171  1.0000
  N   N36       1.0  0.14009  0.54433  0.5286  1.0000
  N   N37       1.0  0.51847  0.64828  0.14131  1.0000
  N   N38       1.0  0.53308  0.5995100000000001  0.19551  1.0000
  N   N39       1.0  0.62844  0.69122  0.19965  1.0000
  N   N40       1.0  0.48317  0.4276000000000001  0.07508  1.0000
  N   N41       1.0  0.43272  0.46435000000000004  0.12207000000000001  1.0000
  N   N42       1.0  0.3594  0.45582  0.028970000000000003  1.0000
  N   N43       1.0  0.98223  0.14847  0.35815  1.0000
  N   N44       1.0  0.9676  0.09958  0.30407  1.0000
  N   N45       1.0  0.87174  0.19097000000000006  0.30011  1.0000
  N   N46       1.0  0.01642  0.9268200000000002  0.42537  1.0000
  N   N47       1.0  0.06679  0.9635700000000001  0.37829  1.0000
  N   N48       1.0  0.14009  0.95566  0.47140000000000004  1.0000
  O   O1        1.0  0.00392  0.3282800000000001  0.26925  1.0000
  O   O2        1.0  0.08349  0.43758  0.26912  1.0000
  O   O3        1.0  0.87183  0.99597  0.76794  1.0000
  O   O4        1.0  0.97391  0.97273  0.8447900000000002  1.0000
  O   O5        1.0  0.49573  0.82832  0.22875000000000004  1.0000
  O   O6        1.0  0.41642  0.93765  0.2323  1.0000
  O   O7        1.0  0.62529  0.49598  0.73047  1.0000
  O   O8        1.0  0.52454  0.46873000000000004  0.65348  1.0000
  O   O9        1.0  0.00392  0.17172  0.73075  1.0000
  O   O10       1.0  0.08349  0.06242  0.73088  1.0000
  O   O11       1.0  0.87183  0.50403  0.23205999999999996  1.0000
  O   O12       1.0  0.97391  0.52727  0.15521  1.0000
  O   O13       1.0  0.49573  0.6716800000000003  0.77125  1.0000
  O   O14       1.0  0.41642  0.56235  0.7677  1.0000
  O   O15       1.0  0.62529  0.004020000000000001  0.26953  1.0000
  O   O16       1.0  0.52454  0.03127  0.34652  1.0000
  O   O17       1.0  0.99608  0.67171  0.73075  1.0000
  O   O18       1.0  0.91651  0.56242  0.73088  1.0000
  O   O19       1.0  0.12816  0.00403  0.23205999999999996  1.0000
  O   O20       1.0  0.02608  0.02727  0.15521  1.0000
  O   O21       1.0  0.50427  0.17168  0.77125  1.0000
  O   O22       1.0  0.58358  0.06235  0.7677  1.0000
  O   O23       1.0  0.37471  0.50402  0.26953  1.0000
  O   O24       1.0  0.47545  0.53127  0.34652  1.0000
  O   O25       1.0  0.99608  0.82828  0.26925  1.0000
  O   O26       1.0  0.91651  0.93757  0.26912  1.0000
  O   O27       1.0  0.12816  0.4959700000000001  0.76794  1.0000
  O   O28       1.0  0.02608  0.47273  0.8447900000000002  1.0000
  O   O29       1.0  0.50427  0.32832  0.22875000000000004  1.0000
  O   O30       1.0  0.58358  0.43765000000000004  0.2323  1.0000
  O   O31       1.0  0.37471  0.99598  0.73047  1.0000
  O   O32       1.0  0.47545  0.96873  0.65348  1.0000
