data_image0
_chemical_formula_structural       Cu16H128C160N96
_chemical_formula_sum              "Cu16 H128 C160 N96"
_cell_length_a       11.1812
_cell_length_b       25.456280000000003
_cell_length_c       25.45488
_cell_angle_alpha    87.24201
_cell_angle_beta     77.30496
_cell_angle_gamma    77.31766

_symmetry_space_group_name_H-M    'P 1'
_symmetry_Int_Tables_number       1

loop_
  _symmetry_equiv_pos_as_xyz
  'x,y,z'

loop_
  _atom_site_type_symbol
  _atom_site_label
  _atom_site_symmetry_multiplicity
  _atom_site_fract_x
  _atom_site_fract_y
  _atom_site_fract_z
  _atom_site_occupancy
  Cu  Cu1       1.0  0.49915  0.3213  0.7378900000000002  1.0000
  Cu  Cu2       1.0  0.5387  0.7018499999999998  0.7281000000000001  1.0000
  Cu  Cu3       1.0  0.5587600000000003  0.17838  0.76223  1.0000
  Cu  Cu4       1.0  0.9687100000000003  0.7981099999999999  0.77175  1.0000
  Cu  Cu5       1.0  0.32121999999999995  0.7378699999999999  0.17868000000000006  1.0000
  Cu  Cu6       1.0  0.7397499999999997  0.7283099999999999  0.7980500000000003  1.0000
  Cu  Cu7       1.0  0.23721999999999993  0.7623399999999999  0.32167  1.0000
  Cu  Cu8       1.0  0.2669099999999999  0.77162  0.70175  1.0000
  Cu  Cu9       1.0  0.5008  0.67873  0.26209  1.0000
  Cu  Cu10      1.0  0.46129  0.29816  0.27191  1.0000
  Cu  Cu11      1.0  0.4412299999999999  0.82162  0.23777  1.0000
  Cu  Cu12      1.0  0.031279999999999995  0.20186  0.22823  1.0000
  Cu  Cu13      1.0  0.6787599999999999  0.26213  0.82135  1.0000
  Cu  Cu14      1.0  0.26024000000000014  0.27169  0.20196  1.0000
  Cu  Cu15      1.0  0.76276  0.23765  0.6783500000000001  1.0000
  Cu  Cu16      1.0  0.7330999999999999  0.22837  0.29827  1.0000
  H   H1        1.0  0.09293000000000005  0.53307  0.71493  1.0000
  H   H2        1.0  0.19462999999999997  0.43607999999999997  0.7090200000000002  1.0000
  H   H3        1.0  0.06814000000000002  0.36538999999999994  0.71905  1.0000
  H   H4        1.0  0.73026  0.49044  0.7377000000000001  1.0000
  H   H5        1.0  0.90722  0.32734  0.7876800000000003  1.0000
  H   H6        1.0  0.66994  0.41586  0.69063  1.0000
  H   H7        1.0  0.9538  0.60899  0.77396  1.0000
  H   H8        1.0  0.6785499999999999  0.57509  0.6970000000000001  1.0000
  H   H9        1.0  0.3082199999999999  0.51878  0.77033  1.0000
  H   H10       1.0  0.0204599999999999  0.64559  0.8575000000000002  1.0000
  H   H11       1.0  0.9094200000000001  0.57651  0.90507  1.0000
  H   H12       1.0  0.9963600000000002  0.47934  0.88862  1.0000
  H   H13       1.0  0.05424999999999983  0.39747  0.8408500000000002  1.0000
  H   H14       1.0  0.41042  0.4362299999999999  0.78366  1.0000
  H   H15       1.0  0.4364899999999997  0.5852  0.77257  1.0000
  H   H16       1.0  0.08606999999999992  0.69194  0.7754600000000003  1.0000
  H   H17       1.0  0.3411100000000001  0.9670099999999999  0.78496  1.0000
  H   H18       1.0  0.33962000000000003  0.06401  0.79087  1.0000
  H   H19       1.0  0.15223999999999996  0.13461  0.78108  1.0000
  H   H20       1.0  0.9583500000000001  0.00961  0.7623300000000002  1.0000
  H   H21       1.0  0.02256999999999989  0.17256999999999997  0.7121500000000002  1.0000
  H   H22       1.0  0.77642  0.08413999999999999  0.80932  1.0000
  H   H23       1.0  0.3371300000000001  0.8907099999999998  0.7259800000000002  1.0000
  H   H24       1.0  0.9507900000000001  0.92483  0.80328  1.0000
  H   H25       1.0  0.59756  0.98117  0.72951  1.0000
  H   H26       1.0  0.5229000000000003  0.8545399999999997  0.6425400000000001  1.0000
  H   H27       1.0  0.39047  0.9236399999999999  0.59497  1.0000
  H   H28       1.0  0.36475  0.02078  0.61108  1.0000
  H   H29       1.0  0.29289  0.10277  0.65916  1.0000
  H   H30       1.0  0.6311299999999996  0.06372  0.7159300000000001  1.0000
  H   H31       1.0  0.7927599999999997  0.9151699999999999  0.72787  1.0000
  H   H32       1.0  0.55392  0.80785  0.7239600000000002  1.0000
  H   H33       1.0  0.12588000000000016  0.7147899999999998  0.96682  1.0000
  H   H34       1.0  0.13073000000000015  0.7090499999999997  0.06381  1.0000
  H   H35       1.0  0.9336199999999998  0.71903  0.13459  1.0000
  H   H36       1.0  0.72052  0.73775  0.00978  1.0000
  H   H37       1.0  0.73461  0.7878599999999999  0.17276  1.0000
  H   H38       1.0  0.58642  0.69074  0.08396  1.0000
  H   H39       1.0  0.06251999999999996  0.77402  0.8908400000000002  1.0000
  H   H40       1.0  0.7532599999999997  0.69698  0.9249500000000002  1.0000
  H   H41       1.0  0.32707  0.77047  0.98121  1.0000
  H   H42       1.0  0.1647  0.8574399999999999  0.85474  1.0000
  H   H43       1.0  0.9848199999999999  0.90487  0.924  1.0000
  H   H44       1.0  0.97543  0.8885599999999999  0.02112  1.0000
  H   H45       1.0  0.95199  0.8404999999999999  0.10296000000000001  1.0000
  H   H46       1.0  0.34718999999999994  0.78411  0.06375  1.0000
  H   H47       1.0  0.52036  0.7723699999999999  0.91508  1.0000
  H   H48       1.0  0.27739  0.77573  0.808  1.0000
  H   H49       1.0  0.8087  0.78482  0.53277  1.0000
  H   H50       1.0  0.9037199999999999  0.7908399999999999  0.4357600000000001  1.0000
  H   H51       1.0  0.7866500000000006  0.78109  0.36534  1.0000
  H   H52       1.0  0.46782  0.76236  0.4905600000000001  1.0000
  H   H53       1.0  0.6945500000000001  0.7122799999999998  0.32738  1.0000
  H   H54       1.0  0.3601799999999999  0.80941  0.41594000000000003  1.0000
  H   H55       1.0  0.728  0.7260299999999997  0.6091600000000001  1.0000
  H   H56       1.0  0.3759100000000001  0.80308  0.57504  1.0000
  H   H57       1.0  0.07871000000000013  0.7295499999999998  0.51885  1.0000
  H   H58       1.0  0.8778699999999998  0.64264  0.64565  1.0000
  H   H59       1.0  0.8143700000000001  0.59498  0.5766  1.0000
  H   H60       1.0  0.88515  0.61122  0.47940000000000005  1.0000
  H   H61       1.0  0.8955499999999998  0.65882  0.39743  1.0000
  H   H62       1.0  0.19394000000000003  0.7163899999999999  0.43629000000000007  1.0000
  H   H63       1.0  0.20831999999999992  0.72778  0.58493  1.0000
  H   H64       1.0  0.8620799999999994  0.72393  0.6922300000000001  1.0000
  H   H65       1.0  0.9070899999999998  0.46692  0.28508  1.0000
  H   H66       1.0  0.80538  0.56391  0.291  1.0000
  H   H67       1.0  0.9318700000000001  0.6346  0.28097  1.0000
  H   H68       1.0  0.26977  0.50957  0.2623  1.0000
  H   H69       1.0  0.09275000000000001  0.67264  0.21231  1.0000
  H   H70       1.0  0.3301200000000001  0.58412  0.30934  1.0000
  H   H71       1.0  0.04623999999999998  0.39101  0.22604  1.0000
  H   H72       1.0  0.32147  0.42491  0.30299  1.0000
  H   H73       1.0  0.69182  0.48121999999999987  0.22967  1.0000
  H   H74       1.0  0.97956  0.35439  0.14251  1.0000
  H   H75       1.0  0.09062000000000009  0.4234699999999999  0.09495  1.0000
  H   H76       1.0  0.003680000000000032  0.52065  0.11138  1.0000
  H   H77       1.0  0.9457199999999998  0.60254  0.15917  1.0000
  H   H78       1.0  0.5896  0.56373  0.21631000000000006  1.0000
  H   H79       1.0  0.56353  0.41481  0.22745  1.0000
  H   H80       1.0  0.91393  0.30804  0.22456  1.0000
  H   H81       1.0  0.6588700000000001  0.03298  0.21506000000000003  1.0000
  H   H82       1.0  0.66036  0.93598  0.20913000000000004  1.0000
  H   H83       1.0  0.8477700000000001  0.8653699999999999  0.21889000000000006  1.0000
  H   H84       1.0  0.0416200000000001  0.9903899999999999  0.23768000000000003  1.0000
  H   H85       1.0  0.9774099999999996  0.82742  0.28786  1.0000
  H   H86       1.0  0.22353999999999993  0.9158599999999999  0.1907  1.0000
  H   H87       1.0  0.66286  0.10929  0.27398  1.0000
  H   H88       1.0  0.04920000000000001  0.07517  0.19671  1.0000
  H   H89       1.0  0.40246  0.01881  0.2705  1.0000
  H   H90       1.0  0.47712  0.14546  0.35744  1.0000
  H   H91       1.0  0.60947  0.07637  0.40505  1.0000
  H   H92       1.0  0.6352100000000002  0.9792299999999998  0.38895  1.0000
  H   H93       1.0  0.70712  0.89721  0.34086000000000005  1.0000
  H   H94       1.0  0.36887000000000003  0.93628  0.28408  1.0000
  H   H95       1.0  0.20728000000000002  0.08481  0.27213  1.0000
  H   H96       1.0  0.44606000000000007  0.19214999999999993  0.27603  1.0000
  H   H97       1.0  0.8740900000000001  0.28521  0.03321  1.0000
  H   H98       1.0  0.86918  0.29096  0.93622  1.0000
  H   H99       1.0  0.06624000000000001  0.28099  0.86542  1.0000
  H   H100      1.0  0.27943  0.26223  0.9902  1.0000
  H   H101      1.0  0.26533999999999996  0.21215  0.82725  1.0000
  H   H102      1.0  0.41350000000000003  0.3093099999999999  0.91602  1.0000
  H   H103      1.0  0.9374  0.226  0.1092  1.0000
  H   H104      1.0  0.24672000000000005  0.303  0.07504  1.0000
  H   H105      1.0  0.67289  0.22953999999999994  0.0188  1.0000
  H   H106      1.0  0.8353100000000001  0.14255  0.14526  1.0000
  H   H107      1.0  0.015200000000000002  0.09514  0.07599  1.0000
  H   H108      1.0  0.024519999999999972  0.11142999999999997  0.97887  1.0000
  H   H109      1.0  0.048009999999999935  0.1595  0.89706  1.0000
  H   H110      1.0  0.65281  0.21591  0.93622  1.0000
  H   H111      1.0  0.47956  0.22763999999999995  0.08495000000000003  1.0000
  H   H112      1.0  0.72262  0.22427  0.192  1.0000
  H   H113      1.0  0.19132  0.21518999999999994  0.46722  1.0000
  H   H114      1.0  0.09630000000000001  0.20911  0.56423  1.0000
  H   H115      1.0  0.21333000000000002  0.21889  0.63466  1.0000
  H   H116      1.0  0.5321600000000001  0.23765  0.5094500000000001  1.0000
  H   H117      1.0  0.3054599999999999  0.28774  0.67261  1.0000
  H   H118      1.0  0.6398400000000001  0.19061  0.58403  1.0000
  H   H119      1.0  0.27198  0.27395  0.39085000000000003  1.0000
  H   H120      1.0  0.6240899999999999  0.19694  0.42498  1.0000
  H   H121      1.0  0.92132  0.27043  0.48117000000000004  1.0000
  H   H122      1.0  0.12207999999999995  0.35736  0.35436  1.0000
  H   H123      1.0  0.18567  0.40497999999999995  0.4234200000000001  1.0000
  H   H124      1.0  0.11485000000000006  0.38876  0.52061  1.0000
  H   H125      1.0  0.10439000000000002  0.34117999999999993  0.60258  1.0000
  H   H126      1.0  0.80602  0.28364  0.56372  1.0000
  H   H127      1.0  0.79167  0.27223  0.41508  1.0000
  H   H128      1.0  0.13793  0.27605999999999997  0.30777  1.0000
  C   C1        1.0  0.9035700000000001  0.51822  0.72592  1.0000
  C   C2        1.0  0.037109999999999886  0.5026799999999999  0.7185200000000003  1.0000
  C   C3        1.0  0.09284999999999997  0.44815  0.71541  1.0000
  C   C4        1.0  0.02312999999999998  0.40783  0.72102  1.0000
  C   C5        1.0  0.89068  0.4244699999999999  0.7266300000000001  1.0000
  C   C6        1.0  0.8322499999999999  0.47888  0.7287000000000001  1.0000
  C   C7        1.0  0.8280799999999999  0.3411999999999999  0.7689200000000002  1.0000
  C   C8        1.0  0.70335  0.3878  0.72007  1.0000
  C   C9        1.0  0.8747  0.61423  0.75462  1.0000
  C   C10       1.0  0.7268800000000001  0.5955299999999999  0.71907  1.0000
  C   C11       1.0  0.15919000000000016  0.4922899999999999  0.82754  1.0000
  C   C12       1.0  0.22407999999999995  0.53112  0.80158  1.0000
  C   C13       1.0  0.17424  0.58553  0.8119  1.0000
  C   C14       1.0  0.05687000000000003  0.60323  0.84817  1.0000
  C   C15       1.0  0.9967399999999997  0.56358  0.8755900000000001  1.0000
  C   C16       1.0  0.04464999999999991  0.50896  0.86665  1.0000
  C   C17       1.0  0.15167  0.39437  0.8215600000000001  1.0000
  C   C18       1.0  0.33439  0.41521  0.79182  1.0000
  C   C19       1.0  0.3661400000000001  0.6193599999999999  0.76475  1.0000
  C   C20       1.0  0.18561  0.67473  0.76753  1.0000
  C   C21       1.0  0.14787000000000006  0.98179  0.77401  1.0000
  C   C22       1.0  0.25844999999999985  0.99736  0.78135  1.0000
  C   C23       1.0  0.25641  0.05188  0.78448  1.0000
  C   C24       1.0  0.15193999999999994  0.09216999999999999  0.7789500000000003  1.0000
  C   C25       1.0  0.041919999999999964  0.07549  0.77329  1.0000
  C   C26       1.0  0.03996000000000005  0.02109  0.77122  1.0000
  C   C27       1.0  0.93853  0.15875  0.73104  1.0000
  C   C28       1.0  0.81143  0.11219  0.7799200000000001  1.0000
  C   C29       1.0  0.24383999999999997  0.88568  0.74558  1.0000
  C   C30       1.0  0.04162999999999995  0.90447  0.78108  1.0000
  C   C31       1.0  0.47937  0.007789999999999998  0.67223  1.0000
  C   C32       1.0  0.5567599999999999  0.96891  0.6983  1.0000
  C   C33       1.0  0.5712200000000001  0.9145099999999999  0.68811  1.0000
  C   C34       1.0  0.5076799999999999  0.89688  0.6518700000000001  1.0000
  C   C35       1.0  0.43550000000000016  0.9365599999999997  0.62441  1.0000
  C   C36       1.0  0.4202699999999999  0.99117  0.63322  1.0000
  C   C37       1.0  0.3679999999999999  0.10576  0.67843  1.0000
  C   C38       1.0  0.54211  0.08476  0.7079400000000001  1.0000
  C   C39       1.0  0.7496299999999999  0.88073  0.7353200000000001  1.0000
  C   C40       1.0  0.62795  0.8251499999999999  0.73217  1.0000
  C   C41       1.0  0.9216900000000006  0.72596  0.98174  1.0000
  C   C42       1.0  0.03969999999999998  0.7185299999999999  0.99725  1.0000
  C   C43       1.0  0.041039999999999986  0.71549  0.05176  1.0000
  C   C44       1.0  0.9311100000000001  0.72117  0.09214000000000001  1.0000
  C   C45       1.0  0.8153800000000001  0.7268  0.07552  1.0000
  C   C46       1.0  0.81114  0.7288199999999999  0.02114  1.0000
  C   C47       1.0  0.6696  0.76897  0.15884  1.0000
  C   C48       1.0  0.59165  0.72008  0.11217000000000002  1.0000
  C   C49       1.0  0.9888900000000003  0.75446  0.88568  1.0000
  C   C50       1.0  0.8220300000000001  0.71908  0.90451  1.0000
  C   C51       1.0  0.15158000000000013  0.8276699999999998  0.00794  1.0000
  C   C52       1.0  0.25505  0.80169  0.96899  1.0000
  C   C53       1.0  0.2590700000000001  0.8118899999999999  0.9146  1.0000
  C   C54       1.0  0.1591000000000001  0.8480999999999999  0.8970700000000001  1.0000
  C   C55       1.0  0.05948999999999987  0.87548  0.9368300000000003  1.0000
  C   C56       1.0  0.05327000000000003  0.86663  0.99143  1.0000
  C   C57       1.0  0.046450000000000054  0.82125  0.10587000000000002  1.0000
  C   C58       1.0  0.25019  0.79198  0.08484  1.0000
  C   C59       1.0  0.4846699999999998  0.76476  0.8807  1.0000
  C   C60       1.0  0.3596600000000001  0.76766  0.8252400000000001  1.0000
  C   C61       1.0  0.6297900000000002  0.77403  0.51816  1.0000
  C   C62       1.0  0.7560199999999999  0.78134  0.50252  1.0000
  C   C63       1.0  0.80833  0.7844799999999998  0.44796  1.0000
  C   C64       1.0  0.7438200000000001  0.77901  0.40778  1.0000
  C   C65       1.0  0.6169999999999998  0.77341  0.42451  1.0000
  C   C66       1.0  0.5608800000000003  0.7713199999999999  0.47894  1.0000
  C   C67       1.0  0.59673  0.7311499999999999  0.34125  1.0000
  C   C68       1.0  0.42313  0.78002  0.38786  1.0000
  C   C69       1.0  0.62963  0.7454699999999999  0.61424  1.0000
  C   C70       1.0  0.44630999999999993  0.78104  0.59549  1.0000
  C   C71       1.0  0.9868800000000003  0.6723299999999998  0.4923  1.0000
  C   C72       1.0  0.025670000000000106  0.6983499999999999  0.53114  1.0000
  C   C73       1.0  0.9860200000000006  0.68811  0.58555  1.0000
  C   C74       1.0  0.9048599999999998  0.6519  0.60328  1.0000
  C   C75       1.0  0.87226  0.62442  0.56364  1.0000
  C   C76       1.0  0.9114100000000003  0.63324  0.50901  1.0000
  C   C77       1.0  0.9735900000000001  0.6781699999999999  0.39434  1.0000
  C   C78       1.0  0.12611  0.70819  0.41527  1.0000
  C   C79       1.0  0.13056  0.73539  0.61928  1.0000
  C   C80       1.0  0.95334  0.73218  0.6748900000000001  1.0000
  C   C81       1.0  0.09645000000000006  0.48177999999999993  0.27408  1.0000
  C   C82       1.0  0.9629000000000001  0.49732  0.28148  1.0000
  C   C83       1.0  0.90716  0.55184  0.28461  1.0000
  C   C84       1.0  0.9768800000000006  0.59216  0.279  1.0000
  C   C85       1.0  0.10933999999999998  0.57553  0.27338  1.0000
  C   C86       1.0  0.16777999999999998  0.52112  0.27131  1.0000
  C   C87       1.0  0.1718999999999999  0.65879  0.23108000000000006  1.0000
  C   C88       1.0  0.2966800000000001  0.6122  0.27992  1.0000
  C   C89       1.0  0.12532999999999997  0.38576  0.24538  1.0000
  C   C90       1.0  0.27315  0.40447  0.28093  1.0000
  C   C91       1.0  0.8408099999999997  0.5077  0.17246  1.0000
  C   C92       1.0  0.77595  0.46887  0.19842  1.0000
  C   C93       1.0  0.82579  0.41446  0.18811000000000005  1.0000
  C   C94       1.0  0.94315  0.39676  0.15182  1.0000
  C   C95       1.0  0.003280000000000072  0.4364099999999999  0.12441  1.0000
  C   C96       1.0  0.95538  0.49102999999999997  0.13335  1.0000
  C   C97       1.0  0.8483099999999999  0.60563  0.17845  1.0000
  C   C98       1.0  0.6655900000000001  0.58477  0.20818000000000003  1.0000
  C   C99       1.0  0.63388  0.38063  0.23526  1.0000
  C   C100      1.0  0.8144  0.32526  0.23248  1.0000
  C   C101      1.0  0.85212  0.01821  0.22600000000000003  1.0000
  C   C102      1.0  0.74154  0.00263  0.21866  1.0000
  C   C103      1.0  0.7435800000000002  0.9481099999999999  0.21552  1.0000
  C   C104      1.0  0.84805  0.90782  0.22104  1.0000
  C   C105      1.0  0.95807  0.9245  0.22671000000000002  1.0000
  C   C106      1.0  0.96002  0.9788999999999999  0.22878  1.0000
  C   C107      1.0  0.06144000000000002  0.84124  0.26898  1.0000
  C   C108      1.0  0.18855000000000013  0.8877999999999998  0.22009  1.0000
  C   C109      1.0  0.75614  0.11431999999999998  0.2544  1.0000
  C   C110      1.0  0.9583500000000001  0.09551999999999998  0.2189  1.0000
  C   C111      1.0  0.52063  0.9922  0.32778  1.0000
  C   C112      1.0  0.44324  0.03108  0.30171  1.0000
  C   C113      1.0  0.42879  0.08548  0.31189  1.0000
  C   C114      1.0  0.49233  0.10312  0.34813  1.0000
  C   C115      1.0  0.56448  0.06344  0.3756  1.0000
  C   C116      1.0  0.5797000000000002  0.00883  0.3668  1.0000
  C   C117      1.0  0.6319899999999998  0.8942299999999999  0.32159  1.0000
  C   C118      1.0  0.45789  0.9152399999999999  0.29207  1.0000
  C   C119      1.0  0.25038  0.11924999999999998  0.26467  1.0000
  C   C120      1.0  0.37204000000000004  0.17484  0.26784  1.0000
  C   C121      1.0  0.07828  0.27402  0.01826  1.0000
  C   C122      1.0  0.96025  0.28146  0.00276  1.0000
  C   C123      1.0  0.9588799999999998  0.28451  0.9482600000000002  1.0000
  C   C124      1.0  0.06878999999999998  0.27884  0.90786  1.0000
  C   C125      1.0  0.18453000000000003  0.27322  0.9244700000000001  1.0000
  C   C126      1.0  0.18879999999999994  0.27117  0.97885  1.0000
  C   C127      1.0  0.3303499999999998  0.23103999999999994  0.8411600000000002  1.0000
  C   C128      1.0  0.4082699999999999  0.27995  0.8878300000000002  1.0000
  C   C129      1.0  0.011099999999999992  0.24553  0.11433  1.0000
  C   C130      1.0  0.17795000000000002  0.28092  0.09548  1.0000
  C   C131      1.0  0.8483800000000001  0.17233  0.99206  1.0000
  C   C132      1.0  0.74492  0.19830999999999996  0.03102  1.0000
  C   C133      1.0  0.7409  0.18811  0.08541000000000003  1.0000
  C   C134      1.0  0.84088  0.1519  0.10293000000000001  1.0000
  C   C135      1.0  0.9405  0.12452  0.06318  1.0000
  C   C136      1.0  0.9467  0.13337  0.00858  1.0000
  C   C137      1.0  0.9535599999999999  0.17875  0.89413  1.0000
  C   C138      1.0  0.74982  0.20804  0.91515  1.0000
  C   C139      1.0  0.5153  0.23524  0.11933  1.0000
  C   C140      1.0  0.64034  0.23233999999999994  0.17476000000000003  1.0000
  C   C141      1.0  0.37019999999999986  0.22598  0.4818400000000001  1.0000
  C   C142      1.0  0.24397999999999997  0.21864999999999998  0.49748000000000003  1.0000
  C   C143      1.0  0.19168  0.21548999999999993  0.55203  1.0000
  C   C144      1.0  0.25617  0.22097  0.59222  1.0000
  C   C145      1.0  0.38297000000000003  0.22658  0.57549  1.0000
  C   C146      1.0  0.43910000000000005  0.22869  0.52106  1.0000
  C   C147      1.0  0.4032600000000001  0.26884  0.65874  1.0000
  C   C148      1.0  0.57684  0.21995999999999996  0.61214  1.0000
  C   C149      1.0  0.37034999999999996  0.25451999999999997  0.38576000000000005  1.0000
  C   C150      1.0  0.55369  0.21898  0.40452  1.0000
  C   C151      1.0  0.01311999999999997  0.32765  0.5077  1.0000
  C   C152      1.0  0.97434  0.30163  0.46887  1.0000
  C   C153      1.0  0.013969999999999956  0.31188  0.41446000000000005  1.0000
  C   C154      1.0  0.09513999999999999  0.34809  0.3967300000000001  1.0000
  C   C155      1.0  0.12773999999999994  0.37556  0.43638  1.0000
  C   C156      1.0  0.0886  0.36673  0.491  1.0000
  C   C157      1.0  0.026370000000000036  0.32182  0.60568  1.0000
  C   C158      1.0  0.87387  0.2918  0.58474  1.0000
  C   C159      1.0  0.8694199999999999  0.26461  0.38072000000000006  1.0000
  C   C160      1.0  0.04666000000000004  0.26780999999999994  0.32512  1.0000
  N   N1        1.0  0.8132499999999999  0.38636  0.73704  1.0000
  N   N2        1.0  0.6513300000000001  0.34744  0.7424100000000002  1.0000
  N   N3        1.0  0.7304099999999999  0.31805999999999995  0.7731600000000001  1.0000
  N   N4        1.0  0.84004  0.57242  0.73293  1.0000
  N   N5        1.0  0.6925000000000001  0.64719  0.7335  1.0000
  N   N6        1.0  0.7838699999999998  0.65903  0.75645  1.0000
  N   N7        1.0  0.23861999999999994  0.6239  0.7829000000000002  1.0000
  N   N8        1.0  0.38897000000000004  0.66379  0.73875  1.0000
  N   N9        1.0  0.27491  0.69889  0.7406600000000001  1.0000
  N   N10       1.0  0.21148000000000017  0.4376499999999999  0.81614  1.0000
  N   N11       1.0  0.34558  0.36280999999999997  0.78265  1.0000
  N   N12       1.0  0.23142999999999989  0.34942999999999996  0.8014500000000001  1.0000
  N   N13       1.0  0.93687  0.11360999999999999  0.7629300000000002  1.0000
  N   N14       1.0  0.7414800000000001  0.15261  0.7576400000000001  1.0000
  N   N15       1.0  0.822  0.18194999999999997  0.72684  1.0000
  N   N16       1.0  0.1456399999999999  0.92756  0.76718  1.0000
  N   N17       1.0  0.07330999999999999  0.8528  0.7666400000000001  1.0000
  N   N18       1.0  0.19948999999999997  0.84092  0.74372  1.0000
  N   N19       1.0  0.64503  0.8760899999999999  0.71704  1.0000
  N   N20       1.0  0.7911099999999998  0.8362799999999999  0.76124  1.0000
  N   N21       1.0  0.71444  0.80104  0.7591100000000001  1.0000
  N   N22       1.0  0.46569999999999995  0.06241  0.6836700000000001  1.0000
  N   N23       1.0  0.4915500000000001  0.1371  0.71741  1.0000
  N   N24       1.0  0.3826499999999999  0.15057  0.6987800000000001  1.0000
  N   N25       1.0  0.6999900000000003  0.7371099999999998  0.11367  1.0000
  N   N26       1.0  0.49925000000000014  0.7423399999999999  0.15257  1.0000
  N   N27       1.0  0.54882  0.77314  0.18198  1.0000
  N   N28       1.0  0.9123800000000002  0.73283  0.92754  1.0000
  N   N29       1.0  0.8391300000000002  0.7335799999999999  0.8528600000000001  1.0000
  N   N30       1.0  0.9425099999999996  0.7564199999999998  0.84096  1.0000
  N   N31       1.0  0.36173  0.78293  0.8761400000000001  1.0000
  N   N32       1.0  0.5520399999999998  0.7388599999999997  0.83622  1.0000
  N   N33       1.0  0.4731699999999999  0.74083  0.8010600000000002  1.0000
  N   N34       1.0  0.14943000000000004  0.8161799999999999  0.06254  1.0000
  N   N35       1.0  0.20918000000000006  0.78242  0.13717  1.0000
  N   N36       1.0  0.08158  0.8009  0.15066  1.0000
  N   N37       1.0  0.5499700000000003  0.763  0.38644  1.0000
  N   N38       1.0  0.39358000000000004  0.75773  0.34743  1.0000
  N   N39       1.0  0.5033999999999998  0.72699  0.31805  1.0000
  N   N40       1.0  0.5733699999999998  0.76713  0.57239  1.0000
  N   N41       1.0  0.42624999999999985  0.76662  0.6471500000000001  1.0000
  N   N42       1.0  0.54053  0.7436599999999998  0.65902  1.0000
  N   N43       1.0  0.021450000000000028  0.7170399999999999  0.62394  1.0000
  N   N44       1.0  0.12752000000000008  0.76135  0.66372  1.0000
  N   N45       1.0  0.01562999999999999  0.7592  0.6989700000000001  1.0000
  N   N46       1.0  0.027809999999999915  0.68368  0.4376600000000001  1.0000
  N   N47       1.0  0.12805000000000005  0.7174399999999999  0.36288  1.0000
  N   N48       1.0  0.03301000000000003  0.69846  0.34945  1.0000
  N   N49       1.0  0.18675999999999998  0.61363  0.26296  1.0000
  N   N50       1.0  0.34867999999999993  0.65256  0.25757  1.0000
  N   N51       1.0  0.26957  0.68193  0.22683000000000003  1.0000
  N   N52       1.0  0.15998  0.42758  0.26708  1.0000
  N   N53       1.0  0.3075300000000001  0.35280999999999996  0.26649  1.0000
  N   N54       1.0  0.21615999999999994  0.34097  0.24355000000000002  1.0000
  N   N55       1.0  0.7614099999999999  0.37609  0.21711000000000005  1.0000
  N   N56       1.0  0.6110400000000001  0.33621  0.26125  1.0000
  N   N57       1.0  0.7250799999999998  0.3011  0.25934  1.0000
  N   N58       1.0  0.78852  0.56233  0.18386000000000002  1.0000
  N   N59       1.0  0.65438  0.63717  0.21736  1.0000
  N   N60       1.0  0.7685300000000002  0.6505499999999999  0.19856  1.0000
  N   N61       1.0  0.06311000000000008  0.8863799999999998  0.23708  1.0000
  N   N62       1.0  0.2585000000000001  0.8473699999999998  0.24238  1.0000
  N   N63       1.0  0.17797000000000013  0.8180399999999998  0.27318  1.0000
  N   N64       1.0  0.8543399999999999  0.07244  0.23281  1.0000
  N   N65       1.0  0.9266900000000001  0.14718  0.23335  1.0000
  N   N66       1.0  0.80051  0.15907  0.25626  1.0000
  N   N67       1.0  0.35496  0.12389999999999997  0.28296  1.0000
  N   N68       1.0  0.20888000000000007  0.16370999999999997  0.23877  1.0000
  N   N69       1.0  0.28554000000000007  0.19895  0.2409  1.0000
  N   N70       1.0  0.5342999999999999  0.93758  0.31634  1.0000
  N   N71       1.0  0.50845  0.86291  0.28258  1.0000
  N   N72       1.0  0.6173299999999999  0.84942  0.30123  1.0000
  N   N73       1.0  0.2999299999999999  0.26292  0.88633  1.0000
  N   N74       1.0  0.5006899999999999  0.25767  0.8474400000000002  1.0000
  N   N75       1.0  0.45114000000000004  0.22686  0.81804  1.0000
  N   N76       1.0  0.08760999999999998  0.26715  0.07246  1.0000
  N   N77       1.0  0.16086  0.26642  0.14713  1.0000
  N   N78       1.0  0.057460000000000046  0.24358999999999995  0.15905  1.0000
  N   N79       1.0  0.63825  0.21707  0.12387000000000002  1.0000
  N   N80       1.0  0.44795999999999997  0.26114  0.16381  1.0000
  N   N81       1.0  0.5268499999999999  0.25916  0.19896000000000005  1.0000
  N   N82       1.0  0.8505600000000001  0.18383999999999998  0.9374600000000002  1.0000
  N   N83       1.0  0.7908600000000002  0.21757999999999994  0.86282  1.0000
  N   N84       1.0  0.91845  0.19909999999999997  0.84933  1.0000
  N   N85       1.0  0.45  0.23698999999999998  0.61356  1.0000
  N   N86       1.0  0.60641  0.24225  0.6525600000000001  1.0000
  N   N87       1.0  0.4966  0.273  0.68195  1.0000
  N   N88       1.0  0.42662  0.23288  0.42761  1.0000
  N   N89       1.0  0.57374  0.23338  0.3528500000000001  1.0000
  N   N90       1.0  0.45944999999999997  0.25632  0.34098000000000006  1.0000
  N   N91       1.0  0.9785499999999999  0.28295  0.37606  1.0000
  N   N92       1.0  0.8724600000000001  0.23866  0.33627  1.0000
  N   N93       1.0  0.98436  0.24080999999999994  0.30102000000000007  1.0000
  N   N94       1.0  0.9721699999999999  0.31631  0.56235  1.0000
  N   N95       1.0  0.8719299999999999  0.28254  0.63712  1.0000
  N   N96       1.0  0.9669799999999998  0.30152  0.65056  1.0000
