data_image0
_chemical_formula_structural       Zn12Cr6H96C168N12O74
_chemical_formula_sum              "Zn12 Cr6 H96 C168 N12 O74"
_cell_length_a       19.48031
_cell_length_b       19.48414
_cell_length_c       35.6699
_cell_angle_alpha    89.98851
_cell_angle_beta     90.01294
_cell_angle_gamma    119.95961999999999

_space_group_name_H-M_alt    "P 1"
_space_group_IT_number       1

loop_
  _space_group_symop_operation_xyz
  'x, y, z'

loop_
  _atom_site_type_symbol
  _atom_site_label
  _atom_site_symmetry_multiplicity
  _atom_site_fract_x
  _atom_site_fract_y
  _atom_site_fract_z
  _atom_site_occupancy
  Zn  Zn1       1.0  0.9553300000000001  0.47752999999999995  0.96792  1.0000
  Zn  Zn2       1.0  0.9555100000000001  0.47833999999999993  0.53235  1.0000
  Zn  Zn3       1.0  0.47805000000000003  0.9553999999999999  0.03202  1.0000
  Zn  Zn4       1.0  0.47687999999999997  0.9554099999999999  0.46761  1.0000
  Zn  Zn5       1.0  0.52309  0.47830999999999996  0.96792  1.0000
  Zn  Zn6       1.0  0.04453000000000001  0.52162  0.46763  1.0000
  Zn  Zn7       1.0  0.52188  0.04471999999999999  0.96762  1.0000
  Zn  Zn8       1.0  0.4778200000000001  0.52233  0.46762000000000004  1.0000
  Zn  Zn9       1.0  0.52309  0.04458  0.53239  1.0000
  Zn  Zn10      1.0  0.5222299999999999  0.47769999999999996  0.53238  1.0000
  Zn  Zn11      1.0  0.04466999999999995  0.5224799999999999  0.03209  1.0000
  Zn  Zn12      1.0  0.47689000000000004  0.52168  0.032  1.0000
  Cr  Cr1       1.0  0.43867  0.71926  0.24982999999999997  1.0000
  Cr  Cr2       1.0  0.56142  0.28089  0.75023  1.0000
  Cr  Cr3       1.0  0.7195300000000001  0.43872  0.75006  1.0000
  Cr  Cr4       1.0  0.28062999999999994  0.5613699999999999  0.24993999999999997  1.0000
  Cr  Cr5       1.0  0.71937  0.2807199999999999  0.75009  1.0000
  Cr  Cr6       1.0  0.2809  0.71952  0.24990999999999997  1.0000
  H   H1        1.0  0.8307900000000001  0.66169  0.37927  1.0000
  H   H2        1.0  0.51861  0.75937  0.00099  1.0000
  H   H3        1.0  0.65286  0.56027  0.58747  1.0000
  H   H4        1.0  0.53532  0.68207  0.34541  1.0000
  H   H5        1.0  0.31795000000000007  0.46489  0.15444  1.0000
  H   H6        1.0  0.31468000000000007  0.4599399999999999  0.34615  1.0000
  H   H7        1.0  0.8309100000000001  0.66176  0.1208  1.0000
  H   H8        1.0  0.92302  0.6241299999999999  0.40985  1.0000
  H   H9        1.0  0.33827  0.16912  0.12076999999999999  1.0000
  H   H10       1.0  0.1691100000000001  0.83079  0.62071  1.0000
  H   H11       1.0  0.8308700000000001  0.16917  0.37928  1.0000
  H   H12       1.0  0.5400500000000001  0.68539  0.15364  1.0000
  H   H13       1.0  0.24065  0.48139  0.49898  1.0000
  H   H14       1.0  0.9069100000000001  0.55878  0.5884  1.0000
  H   H15       1.0  0.92302  0.29878999999999994  0.09021  1.0000
  H   H16       1.0  0.9231200000000002  0.62418  0.09017  1.0000
  H   H17       1.0  0.43952999999999987  0.34733999999999987  0.91266  1.0000
  H   H18       1.0  0.85336  0.31811  0.84546  1.0000
  H   H19       1.0  0.44144  0.34809  0.58847  1.0000
  H   H20       1.0  0.9075400000000001  0.5605  0.9126500000000001  1.0000
  H   H21       1.0  0.24063  0.48133  0.00094  1.0000
  H   H22       1.0  0.16906999999999991  0.83087  0.87918  1.0000
  H   H23       1.0  0.56045  0.90769  0.41256  1.0000
  H   H24       1.0  0.09230999999999999  0.65295  0.41253  1.0000
  H   H25       1.0  0.34712  0.9077  0.08736  1.0000
  H   H26       1.0  0.34717  0.43961  0.4125  1.0000
  H   H27       1.0  0.8309000000000001  0.16912  0.1208  1.0000
  H   H28       1.0  0.5585500000000001  0.6518  0.41152  1.0000
  H   H29       1.0  0.53549  0.8534  0.15448  1.0000
  H   H30       1.0  0.65185  0.5588999999999997  0.91165  1.0000
  H   H31       1.0  0.34799000000000013  0.90681  0.41144  1.0000
  H   H32       1.0  0.5185400000000001  0.7593  0.4989199999999999  1.0000
  H   H33       1.0  0.14701000000000003  0.46476  0.34551  1.0000
  H   H34       1.0  0.70123  0.077  0.0902  1.0000
  H   H35       1.0  0.2987399999999999  0.92299  0.9097900000000001  1.0000
  H   H36       1.0  0.7593599999999999  0.51866  0.9990500000000001  1.0000
  H   H37       1.0  0.6852400000000001  0.54008  0.65388  1.0000
  H   H38       1.0  0.3146399999999998  0.8548599999999997  0.15372  1.0000
  H   H39       1.0  0.24073  0.75932  0.49895  1.0000
  H   H40       1.0  0.75937  0.51861  0.50102  1.0000
  H   H41       1.0  0.07685000000000002  0.37581  0.90982  1.0000
  H   H42       1.0  0.09308  0.44126  0.41153  1.0000
  H   H43       1.0  0.16923  0.33831  0.62073  1.0000
  H   H44       1.0  0.2989  0.37579  0.59018  1.0000
  H   H45       1.0  0.07704000000000004  0.7012  0.59014  1.0000
  H   H46       1.0  0.9077100000000001  0.34715  0.58743  1.0000
  H   H47       1.0  0.62415  0.92308  0.90984  1.0000
  H   H48       1.0  0.7011400000000001  0.62423  0.09022  1.0000
  H   H49       1.0  0.37578000000000006  0.29882  0.09018  1.0000
  H   H50       1.0  0.68234  0.14687  0.65459  1.0000
  H   H51       1.0  0.46455  0.31803  0.65467  1.0000
  H   H52       1.0  0.46007  0.14547  0.65376  1.0000
  H   H53       1.0  0.8531900000000001  0.53541  0.65447  1.0000
  H   H54       1.0  0.33835  0.16923  0.3793  1.0000
  H   H55       1.0  0.6242099999999999  0.7011699999999998  0.90983  1.0000
  H   H56       1.0  0.66174  0.83087  0.87923  1.0000
  H   H57       1.0  0.14549000000000006  0.68547  0.34625  1.0000
  H   H58       1.0  0.6529200000000001  0.09252  0.9126400000000001  1.0000
  H   H59       1.0  0.65205  0.09311  0.58855  1.0000
  H   H60       1.0  0.48146  0.2407  0.50107  1.0000
  H   H61       1.0  0.66165  0.83077  0.6207  1.0000
  H   H62       1.0  0.6241700000000001  0.70112  0.59016  1.0000
  H   H63       1.0  0.43962000000000007  0.09233  0.5875  1.0000
  H   H64       1.0  0.56064  0.65277  0.08734  1.0000
  H   H65       1.0  0.85493  0.54043  0.8463  1.0000
  H   H66       1.0  0.54024  0.85481  0.34626  1.0000
  H   H67       1.0  0.46462  0.1467  0.84538  1.0000
  H   H68       1.0  0.46016000000000007  0.31477  0.84634  1.0000
  H   H69       1.0  0.6855600000000001  0.14536  0.84623  1.0000
  H   H70       1.0  0.4814  0.24063000000000004  0.9990200000000001  1.0000
  H   H71       1.0  0.70122  0.07703  0.40982  1.0000
  H   H72       1.0  0.62411  0.92297  0.5901  1.0000
  H   H73       1.0  0.9066400000000001  0.34804  0.9116000000000001  1.0000
  H   H74       1.0  0.37585000000000013  0.07690999999999998  0.09016  1.0000
  H   H75       1.0  0.07697000000000007  0.7012  0.90978  1.0000
  H   H76       1.0  0.29882  0.37575  0.9097699999999999  1.0000
  H   H77       1.0  0.16905  0.33823  0.87919  1.0000
  H   H78       1.0  0.85475  0.31474  0.65374  1.0000
  H   H79       1.0  0.92295  0.29876  0.40985  1.0000
  H   H80       1.0  0.09322999999999998  0.65182  0.08846  1.0000
  H   H81       1.0  0.55878  0.90686  0.08844  1.0000
  H   H82       1.0  0.7593100000000003  0.24069000000000002  0.99901  1.0000
  H   H83       1.0  0.37583000000000005  0.29889  0.40984  1.0000
  H   H84       1.0  0.077  0.37587  0.59015  1.0000
  H   H85       1.0  0.14683999999999994  0.6819199999999999  0.15452  1.0000
  H   H86       1.0  0.24068000000000006  0.75932  0.00098  1.0000
  H   H87       1.0  0.44136  0.09335  0.9114500000000001  1.0000
  H   H88       1.0  0.09233  0.43938  0.0874  1.0000
  H   H89       1.0  0.14521  0.45959  0.15372  1.0000
  H   H90       1.0  0.68221  0.53538  0.84557  1.0000
  H   H91       1.0  0.3179  0.85322  0.34535  1.0000
  H   H92       1.0  0.37589000000000006  0.07704  0.4099  1.0000
  H   H93       1.0  0.29876000000000014  0.92293  0.59017  1.0000
  H   H94       1.0  0.75926  0.24065  0.50104  1.0000
  H   H95       1.0  0.34822000000000003  0.44121  0.08842  1.0000
  H   H96       1.0  0.70112  0.6241999999999999  0.40983  1.0000
  C   C1        1.0  0.5461000000000001  0.9023  0.9749500000000001  1.0000
  C   C2        1.0  0.40774000000000005  0.59626  0.1963  1.0000
  C   C3        1.0  0.10572000000000005  0.61138  0.10419  1.0000
  C   C4        1.0  0.72249  0.5698  0.04276  1.0000
  C   C5        1.0  0.57302  0.42296  0.84104  1.0000
  C   C6        1.0  0.27743  0.84726  0.95726  1.0000
  C   C7        1.0  0.2570399999999998  0.8669899999999998  0.5771  1.0000
  C   C8        1.0  0.4928299999999999  0.86526  0.1406  1.0000
  C   C9        1.0  0.44970999999999994  0.22482999999999995  0.02552  1.0000
  C   C10       1.0  0.13298  0.74292  0.57707  1.0000
  C   C11       1.0  0.90232  0.54605  0.47502  1.0000
  C   C12       1.0  0.43023  0.15268  0.04271  1.0000
  C   C13       1.0  0.59258  0.40388  0.80377  1.0000
  C   C14       1.0  0.18872  0.59644  0.30367  1.0000
  C   C15       1.0  0.63078  0.13387  0.85972  1.0000
  C   C16       1.0  0.74295  0.61003  0.07718  1.0000
  C   C17       1.0  0.8943900000000002  0.5059  0.60417  1.0000
  C   C18       1.0  0.8473  0.56975  0.45733999999999997  1.0000
  C   C19       1.0  0.13380000000000006  0.50297  0.14026  1.0000
  C   C20       1.0  0.36939  0.8663  0.14022  1.0000
  C   C21       1.0  0.4918600000000001  0.38693  0.89638  1.0000
  C   C22       1.0  0.42294000000000004  0.57289  0.34084  1.0000
  C   C23       1.0  0.61155  0.506  0.89588  1.0000
  C   C24       1.0  0.15265999999999993  0.4301799999999999  0.95725  1.0000
  C   C25       1.0  0.8152200000000001  0.18479  0.40594  1.0000
  C   C26       1.0  0.22486  0.44969  0.52548  1.0000
  C   C27       1.0  0.86623  0.36946  0.64023  1.0000
  C   C28       1.0  0.8472800000000001  0.27748  0.04273  1.0000
  C   C29       1.0  0.64378  0.0977  0.47501  1.0000
  C   C30       1.0  0.49275  0.62763  0.35931  1.0000
  C   C31       1.0  0.42298  0.85026  0.15907  1.0000
  C   C32       1.0  0.86518  0.37254  0.85939  1.0000
  C   C33       1.0  0.22481000000000004  0.44965  0.97443  1.0000
  C   C34       1.0  0.7751100000000001  0.22482  0.47454  1.0000
  C   C35       1.0  0.50588  0.8944  0.10418  1.0000
  C   C36       1.0  0.867  0.25704  0.42292  1.0000
  C   C37       1.0  0.15272999999999995  0.43024  0.54266  1.0000
  C   C38       1.0  0.61325  0.50812  0.60381  1.0000
  C   C39       1.0  0.13489  0.62744  0.14061  1.0000
  C   C40       1.0  0.84732  0.56982  0.04274  1.0000
  C   C41       1.0  0.45389000000000007  0.0977  0.025  1.0000
  C   C42       1.0  0.4942000000000001  0.38848  0.60429  1.0000
  C   C43       1.0  0.43028000000000005  0.15276  0.4574  1.0000
  C   C44       1.0  0.10568000000000001  0.49418000000000006  0.39576  1.0000
  C   C45       1.0  0.50826  0.6131999999999999  0.10359  1.0000
  C   C46       1.0  0.89492  0.50826  0.89634  1.0000
  C   C47       1.0  0.6438  0.09771  0.02504  1.0000
  C   C48       1.0  0.37244  0.50737  0.14054  1.0000
  C   C49       1.0  0.6278200000000003  0.13495  0.64071  1.0000
  C   C50       1.0  0.5961  0.40789  0.69654  1.0000
  C   C51       1.0  0.7429  0.60998  0.4229  1.0000
  C   C52       1.0  0.13293  0.74299  0.92282  1.0000
  C   C53       1.0  0.40385  0.59228  0.30354  1.0000
  C   C54       1.0  0.86704  0.60995  0.4229  1.0000
  C   C55       1.0  0.72247  0.56977  0.45733999999999997  1.0000
  C   C56       1.0  0.25696  0.86702  0.92282  1.0000
  C   C57       1.0  0.27751000000000003  0.84726  0.54265  1.0000
  C   C58       1.0  0.7429900000000003  0.13296  0.07715  1.0000
  C   C59       1.0  0.57696  0.42721999999999993  0.65921  1.0000
  C   C60       1.0  0.4942000000000001  0.10575  0.8957  1.0000
  C   C61       1.0  0.135  0.50731  0.35937  1.0000
  C   C62       1.0  0.54604  0.90227  0.52491  1.0000
  C   C63       1.0  0.25701  0.38994  0.9228  1.0000
  C   C64       1.0  0.09772000000000002  0.45393  0.52497  1.0000
  C   C65       1.0  0.5057599999999999  0.6114699999999997  0.39573  1.0000
  C   C66       1.0  0.18848  0.59224  0.19638  1.0000
  C   C67       1.0  0.5697900000000001  0.84731  0.95729  1.0000
  C   C68       1.0  0.44975000000000004  0.22489  0.47457  1.0000
  C   C69       1.0  0.15006999999999993  0.5771999999999998  0.34095  1.0000
  C   C70       1.0  0.45399000000000006  0.35625  0.47505  1.0000
  C   C71       1.0  0.54607  0.64378  0.97486  1.0000
  C   C72       1.0  0.4272  0.85006  0.34086  1.0000
  C   C73       1.0  0.8152600000000002  0.18474  0.09413  1.0000
  C   C74       1.0  0.50717  0.3724099999999999  0.64074  1.0000
  C   C75       1.0  0.43021  0.27747  0.04272  1.0000
  C   C76       1.0  0.38997000000000004  0.257  0.07715  1.0000
  C   C77       1.0  0.15271  0.72252  0.95726  1.0000
  C   C78       1.0  0.39006  0.25713  0.42292  1.0000
  C   C79       1.0  0.13395000000000007  0.63073  0.35976  1.0000
  C   C80       1.0  0.22481999999999996  0.77516  0.9744599999999999  1.0000
  C   C81       1.0  0.8115200000000001  0.40383  0.6963  1.0000
  C   C82       1.0  0.18484000000000006  0.36956  0.59408  1.0000
  C   C83       1.0  0.45392  0.35622  0.02512  1.0000
  C   C84       1.0  0.27757  0.43024  0.54266  1.0000
  C   C85       1.0  0.35619000000000006  0.90227  0.52498  1.0000
  C   C86       1.0  0.35627  0.45396  0.52497  1.0000
  C   C87       1.0  0.5730899999999999  0.1502  0.65913  1.0000
  C   C88       1.0  0.09776  0.64379  0.52493  1.0000
  C   C89       1.0  0.81519  0.6304399999999998  0.40592  1.0000
  C   C90       1.0  0.6437600000000002  0.54605  0.47502999999999995  1.0000
  C   C91       1.0  0.10505  0.61331  0.39628  1.0000
  C   C92       1.0  0.38674  0.49183  0.39618  1.0000
  C   C93       1.0  0.59257  0.18876999999999994  0.69643  1.0000
  C   C94       1.0  0.50727  0.13488  0.85928  1.0000
  C   C95       1.0  0.38854  0.49418000000000006  0.10414  1.0000
  C   C96       1.0  0.40413  0.81189  0.19641  1.0000
  C   C97       1.0  0.5698  0.72253  0.9572799999999999  1.0000
  C   C98       1.0  0.85029  0.42748  0.8409  1.0000
  C   C99       1.0  0.8950200000000001  0.3868  0.60369  1.0000
  C   C100      1.0  0.74294  0.13298  0.4229  1.0000
  C   C101      1.0  0.6100400000000001  0.743  0.9228600000000001  1.0000
  C   C102      1.0  0.37236  0.86514  0.35927  1.0000
  C   C103      1.0  0.36938  0.50326  0.35964  1.0000
  C   C104      1.0  0.55025  0.77512  0.52543  1.0000
  C   C105      1.0  0.9022600000000001  0.35616  0.02508  1.0000
  C   C106      1.0  0.86519  0.49288  0.64058  1.0000
  C   C107      1.0  0.90232  0.54611  0.02508  1.0000
  C   C108      1.0  0.45396  0.09772999999999997  0.47509  1.0000
  C   C109      1.0  0.6305700000000001  0.49676  0.64038  1.0000
  C   C110      1.0  0.72246  0.15271  0.45733999999999997  1.0000
  C   C111      1.0  0.1847  0.81525  0.9058399999999999  1.0000
  C   C112      1.0  0.61334  0.10512  0.89626  1.0000
  C   C113      1.0  0.13287  0.38996  0.9228300000000002  1.0000
  C   C114      1.0  0.61001  0.86709  0.9228600000000001  1.0000
  C   C115      1.0  0.6099299999999998  0.8669899999999998  0.57705  1.0000
  C   C116      1.0  0.72251  0.15271  0.04271  1.0000
  C   C117      1.0  0.13299000000000002  0.39003999999999994  0.57711  1.0000
  C   C118      1.0  0.61166  0.10562  0.60431  1.0000
  C   C119      1.0  0.18476  0.81517  0.59405  1.0000
  C   C120      1.0  0.62773  0.49286  0.85948  1.0000
  C   C121      1.0  0.42724000000000006  0.57722  0.15898  1.0000
  C   C122      1.0  0.6305  0.81528  0.9058900000000001  1.0000
  C   C123      1.0  0.86626  0.4970200000000001  0.85976  1.0000
  C   C124      1.0  0.84724  0.27749  0.45738  1.0000
  C   C125      1.0  0.10504000000000004  0.49166000000000004  0.1037  1.0000
  C   C126      1.0  0.5503100000000001  0.77518  0.9744800000000001  1.0000
  C   C127      1.0  0.60994  0.74287  0.57708  1.0000
  C   C128      1.0  0.22487  0.77515  0.52546  1.0000
  C   C129      1.0  0.8152799999999998  0.6305099999999998  0.09414  1.0000
  C   C130      1.0  0.90225  0.35618  0.4750599999999999  1.0000
  C   C131      1.0  0.89423  0.38851  0.89583  1.0000
  C   C132      1.0  0.8501000000000001  0.423  0.65902  1.0000
  C   C133      1.0  0.36951000000000017  0.18472  0.09412  1.0000
  C   C134      1.0  0.5697199999999999  0.7224299999999998  0.54262  1.0000
  C   C135      1.0  0.8671000000000001  0.61003  0.07717  1.0000
  C   C136      1.0  0.5034  0.13399  0.6403  1.0000
  C   C137      1.0  0.5961200000000001  0.18839  0.8036  1.0000
  C   C138      1.0  0.77515  0.22483999999999996  0.02553  1.0000
  C   C139      1.0  0.49684000000000006  0.8661799999999998  0.35971  1.0000
  C   C140      1.0  0.5081799999999999  0.8950199999999998  0.39624  1.0000
  C   C141      1.0  0.40782  0.81165  0.30353  1.0000
  C   C142      1.0  0.09772000000000003  0.64383  0.9748899999999999  1.0000
  C   C143      1.0  0.39001  0.1329  0.07714  1.0000
  C   C144      1.0  0.3696  0.18484  0.40596  1.0000
  C   C145      1.0  0.57715  0.14983  0.84086  1.0000
  C   C146      1.0  0.8670500000000001  0.25701  0.07716  1.0000
  C   C147      1.0  0.35617  0.45388  0.9749  1.0000
  C   C148      1.0  0.64382  0.54609  0.02506  1.0000
  C   C149      1.0  0.35615000000000013  0.90228  0.97486  1.0000
  C   C150      1.0  0.27748  0.43017  0.95723  1.0000
  C   C151      1.0  0.77517  0.5503  0.47451999999999994  1.0000
  C   C152      1.0  0.18469  0.36947  0.9058399999999999  1.0000
  C   C153      1.0  0.8117600000000003  0.40793  0.8036  1.0000
  C   C154      1.0  0.49194  0.10503  0.60378  1.0000
  C   C155      1.0  0.15275000000000002  0.72248  0.54261  1.0000
  C   C156      1.0  0.49685  0.63066  0.14013  1.0000
  C   C157      1.0  0.6303999999999998  0.8151599999999998  0.59404  1.0000
  C   C158      1.0  0.39008  0.13301  0.42295  1.0000
  C   C159      1.0  0.50336  0.3694999999999999  0.85985  1.0000
  C   C160      1.0  0.3867800000000001  0.89505  0.10366  1.0000
  C   C161      1.0  0.14995  0.57262  0.15907  1.0000
  C   C162      1.0  0.54603  0.64375  0.52495  1.0000
  C   C163      1.0  0.43028000000000005  0.27757  0.45737000000000005  1.0000
  C   C164      1.0  0.38841  0.89436  0.39568  1.0000
  C   C165      1.0  0.56973  0.84724  0.54259  1.0000
  C   C166      1.0  0.09766999999999998  0.45389  0.9749  1.0000
  C   C167      1.0  0.25712999999999997  0.39001999999999987  0.57711  1.0000
  C   C168      1.0  0.77517  0.55033  0.02556  1.0000
  N   N1        1.0  0.90832  0.45343  0.58599  1.0000
  N   N2        1.0  0.54518  0.45356  0.91408  1.0000
  N   N3        1.0  0.4533400000000001  0.54509  0.41389  1.0000
  N   N4        1.0  0.45492  0.54654  0.08592  1.0000
  N   N5        1.0  0.45343  0.90834  0.08595  1.0000
  N   N6        1.0  0.54663  0.45485  0.58613  1.0000
  N   N7        1.0  0.9082  0.45489  0.91404  1.0000
  N   N8        1.0  0.45479  0.90833  0.41388  1.0000
  N   N9        1.0  0.54526  0.09163  0.58612  1.0000
  N   N10       1.0  0.09179000000000004  0.54503  0.08597  1.0000
  N   N11       1.0  0.54666  0.09181999999999998  0.91392  1.0000
  N   N12       1.0  0.09166  0.5466  0.41393  1.0000
  O   O1        1.0  0.40557999999999994  0.44443  0.54476  1.0000
  O   O2        1.0  0.54  0.34340999999999994  0.78536  1.0000
  O   O3        1.0  0.5175899999999998  0.6317099999999998  0.49179  1.0000
  O   O4        1.0  0.03846999999999999  0.59463  0.9553599999999999  1.0000
  O   O5        1.0  0.55567  0.96104  0.54477  1.0000
  O   O6        1.0  0.3428499999999999  0.5397199999999999  0.28545  1.0000
  O   O7        1.0  0.36832000000000004  0.4823799999999999  0.49182  1.0000
  O   O8        1.0  0.8855099999999999  0.5170499999999999  0.9921200000000001  1.0000
  O   O9        1.0  0.5175800000000002  0.88608  0.49178  1.0000
  O   O10       1.0  0.63171  0.51763  0.50818  1.0000
  O   O11       1.0  0.33637000000000006  0.78446  0.29211  1.0000
  O   O12       1.0  0.55194  0.33653  0.70804  1.0000
  O   O13       1.0  0.11413  0.48228  0.4918  1.0000
  O   O14       1.0  0.6667100000000001  0.33341  0.75037  1.0000
  O   O15       1.0  0.11449000000000006  0.48296  0.00788  1.0000
  O   O16       1.0  0.21608000000000013  0.55225  0.29236  1.0000
  O   O17       1.0  0.11399000000000005  0.63156  0.4918  1.0000
  O   O18       1.0  0.55615  0.9616300000000001  0.9554999999999999  1.0000
  O   O19       1.0  0.44379  0.0383  0.04441  1.0000
  O   O20       1.0  0.03896000000000003  0.59464  0.54476  1.0000
  O   O21       1.0  0.19619  0.53962  0.21493  1.0000
  O   O22       1.0  0.40556000000000003  0.4439  0.9554999999999999  1.0000
  O   O23       1.0  0.19708000000000006  0.65735  0.2855  1.0000
  O   O24       1.0  0.34374000000000005  0.804  0.21494  1.0000
  O   O25       1.0  0.3333699999999999  0.6666499999999997  0.24963999999999997  1.0000
  O   O26       1.0  0.44432  0.03895  0.45524  1.0000
  O   O27       1.0  0.9610400000000001  0.40531  0.45524  1.0000
  O   O28       1.0  0.8858900000000001  0.5177  0.5082  1.0000
  O   O29       1.0  0.3685200000000001  0.88556  0.00784  1.0000
  O   O30       1.0  0.40522000000000014  0.96147  0.95523  1.0000
  O   O31       1.0  0.8854200000000001  0.3684  0.99211  1.0000
  O   O32       1.0  0.44444  0.40554  0.45527  1.0000
  O   O33       1.0  0.21625999999999995  0.664  0.20748  1.0000
  O   O34       1.0  0.96111  0.55547  0.4553  1.0000
  O   O35       1.0  0.63179  0.51703  0.99208  1.0000
  O   O36       1.0  0.7841  0.448  0.70756  1.0000
  O   O37       1.0  0.48306000000000004  0.36861999999999995  0.99216  1.0000
  O   O38       1.0  0.44800000000000006  0.66367  0.29206  1.0000
  O   O39       1.0  0.55619  0.5947  0.9552099999999999  1.0000
  O   O40       1.0  0.03838000000000005  0.44384  0.95537  1.0000
  O   O41       1.0  0.5521  0.2162  0.79254  1.0000
  O   O42       1.0  0.44815  0.78411  0.20752  1.0000
  O   O43       1.0  0.8032800000000002  0.34299  0.7145  1.0000
  O   O44       1.0  0.59446  0.55558  0.45524  1.0000
  O   O45       1.0  0.63145  0.11448  0.99208  1.0000
  O   O46       1.0  0.9615500000000001  0.40537  0.04458  1.0000
  O   O47       1.0  0.66426  0.44791  0.79253  1.0000
  O   O48       1.0  0.48241000000000006  0.11392  0.50823  1.0000
  O   O49       1.0  0.44376000000000004  0.4053  0.04474  1.0000
  O   O50       1.0  0.9616400000000002  0.5562  0.0446  1.0000
  O   O51       1.0  0.5946900000000002  0.03844  0.0446  1.0000
  O   O52       1.0  0.11454999999999996  0.63159  0.00788  1.0000
  O   O53       1.0  0.33603999999999995  0.55231  0.20748  1.0000
  O   O54       1.0  0.3682100000000001  0.48293  0.00788  1.0000
  O   O55       1.0  0.48298  0.11463  0.99202  1.0000
  O   O56       1.0  0.6565  0.1963  0.78507  1.0000
  O   O57       1.0  0.6571900000000003  0.46044  0.71459  1.0000
  O   O58       1.0  0.51702  0.88538  0.00792  1.0000
  O   O59       1.0  0.59441  0.5561  0.04442  1.0000
  O   O60       1.0  0.6319000000000001  0.11417  0.50821  1.0000
  O   O61       1.0  0.51694  0.63137  0.00782  1.0000
  O   O62       1.0  0.7838  0.33609  0.79255  1.0000
  O   O63       1.0  0.36808  0.88581  0.49179  1.0000
  O   O64       1.0  0.54014  0.19738  0.71454  1.0000
  O   O65       1.0  0.03891000000000004  0.44451  0.54471  1.0000
  O   O66       1.0  0.55558  0.59447  0.54473  1.0000
  O   O67       1.0  0.48243  0.3683  0.5082  1.0000
  O   O68       1.0  0.80418  0.46055  0.78498  1.0000
  O   O69       1.0  0.8860100000000001  0.36842  0.5082  1.0000
  O   O70       1.0  0.40557000000000004  0.9610599999999999  0.5447  1.0000
  O   O71       1.0  0.46026999999999985  0.8030999999999998  0.2854  1.0000
  O   O72       1.0  0.4603400000000001  0.65659  0.21481  1.0000
  O   O73       1.0  0.66397  0.21575999999999995  0.70788  1.0000
  O   O74       1.0  0.5944  0.03891999999999999  0.45531  1.0000
