data_image0
_chemical_formula_structural       Co8H128C128N96O16
_chemical_formula_sum              "Co8 H128 C128 N96 O16"
_cell_length_a       17.26801
_cell_length_b       23.70122
_cell_length_c       23.70802
_cell_angle_alpha    109.97129
_cell_angle_beta     90.03089
_cell_angle_gamma    90.04298

_space_group_name_H-M_alt    "P 1"
_space_group_IT_number       1

loop_
  _space_group_symop_operation_xyz
  'x, y, z'

loop_
  _atom_site_type_symbol
  _atom_site_label
  _atom_site_symmetry_multiplicity
  _atom_site_fract_x
  _atom_site_fract_y
  _atom_site_fract_z
  _atom_site_occupancy
  Co  Co1       1.0  0.6870000000000002  0.012900000000000064  0.9870600000000003  1.0000
  Co  Co2       1.0  0.18601  0.48696  0.51309  1.0000
  Co  Co3       1.0  0.8140700000000002  0.51294  0.4869600000000001  1.0000
  Co  Co4       1.0  0.3125500000000001  0.98719  0.01295  1.0000
  Co  Co5       1.0  0.49984  0.49999  0.99971  1.0000
  Co  Co6       1.0  6.999999999999993e-05  0.49999  0.0001  1.0000
  Co  Co7       1.0  0.9999  0.9996100000000001  0.50005  1.0000
  Co  Co8       1.0  0.5000700000000001  0.00013000000000000395  0.4996900000000001  1.0000
  H   H1        1.0  0.8717800000000002  0.42224000000000006  0.01192  1.0000
  H   H2        1.0  0.07263  0.39055  0.90946  1.0000
  H   H3        1.0  0.050530000000000026  0.28066000000000013  0.8737200000000003  1.0000
  H   H4        1.0  0.78959  0.3455200000000001  0.0091  1.0000
  H   H5        1.0  0.51126  0.83149  0.9971600000000002  1.0000
  H   H6        1.0  0.9339600000000001  0.23995000000000002  0.9134800000000001  1.0000
  H   H7        1.0  0.7581900000000001  0.27843  0.08207  1.0000
  H   H8        1.0  0.6944  0.28618  0.02613  1.0000
  H   H9        1.0  0.8052000000000002  0.13824  0.01102  1.0000
  H   H10       1.0  0.79353  0.91442  0.9281100000000001  1.0000
  H   H11       1.0  0.79927  0.8036400000000001  0.89777  1.0000
  H   H12       1.0  0.68669  0.74795  0.9227  1.0000
  H   H13       1.0  0.5738000000000002  0.91824  0.0005  1.0000
  H   H14       1.0  0.50703  0.76413  0.07699000000000002  1.0000
  H   H15       1.0  0.43701  0.76758  0.02172  1.0000
  H   H16       1.0  0.56349  0.63639  0.03724  1.0000
  H   H17       1.0  0.37089  0.07748000000000003  0.48833000000000004  1.0000
  H   H18       1.0  0.57242  0.10962  0.59031  1.0000
  H   H19       1.0  0.55005  0.21936000000000003  0.62602  1.0000
  H   H20       1.0  0.2904  0.15412000000000006  0.4891600000000001  1.0000
  H   H21       1.0  0.011430000000000003  0.6694500000000002  0.50384  1.0000
  H   H22       1.0  0.43284  0.25991  0.58678  1.0000
  H   H23       1.0  0.25784  0.22055  0.41793  1.0000
  H   H24       1.0  0.19321  0.2138400000000001  0.4741900000000001  1.0000
  H   H25       1.0  0.3044  0.36136000000000007  0.48902  1.0000
  H   H26       1.0  0.29399  0.58482  0.5709300000000002  1.0000
  H   H27       1.0  0.29965  0.6959600000000001  0.6027900000000002  1.0000
  H   H28       1.0  0.18745  0.75248  0.5783900000000001  1.0000
  H   H29       1.0  0.07442000000000003  0.58161  0.49879000000000007  1.0000
  H   H30       1.0  0.006680000000000002  0.73619  0.4227  1.0000
  H   H31       1.0  0.9375  0.73247  0.47797  1.0000
  H   H32       1.0  0.06434  0.86316  0.46303  1.0000
  H   H33       1.0  0.6293100000000003  0.48812  0.07744  1.0000
  H   H34       1.0  0.42815  0.58995  0.10934  1.0000
  H   H35       1.0  0.4505500000000001  0.62571  0.21917  1.0000
  H   H36       1.0  0.71104  0.48976  0.15338000000000002  1.0000
  H   H37       1.0  0.9883  0.5048  0.6694  1.0000
  H   H38       1.0  0.56714  0.58637  0.2599  1.0000
  H   H39       1.0  0.74409  0.41663  0.22011000000000003  1.0000
  H   H40       1.0  0.8074500000000002  0.47313  0.21314  1.0000
  H   H41       1.0  0.69622  0.48926  0.36105  1.0000
  H   H42       1.0  0.70595  0.57169  0.5846100000000001  1.0000
  H   H43       1.0  0.69936  0.60262  0.6955800000000001  1.0000
  H   H44       1.0  0.81143  0.57849  0.75197  1.0000
  H   H45       1.0  0.92534  0.49907  0.58217  1.0000
  H   H46       1.0  0.99348  0.4226700000000001  0.7360900000000001  1.0000
  H   H47       1.0  0.06184  0.4786  0.73267  1.0000
  H   H48       1.0  0.93569  0.46267  0.86308  1.0000
  H   H49       1.0  0.12866  0.011520000000000018  0.42213000000000006  1.0000
  H   H50       1.0  0.9272400000000001  0.90918  0.38986  1.0000
  H   H51       1.0  0.94955  0.87355  0.28037  1.0000
  H   H52       1.0  0.21065  0.009120000000000003  0.34593  1.0000
  H   H53       1.0  0.48909  0.9966900000000002  0.83156  1.0000
  H   H54       1.0  0.06605  0.91358  0.23986000000000005  1.0000
  H   H55       1.0  0.24244  0.08228  0.27873  1.0000
  H   H56       1.0  0.30611  0.02628  0.28640000000000004  1.0000
  H   H57       1.0  0.19478  0.0112  0.13843  1.0000
  H   H58       1.0  0.20631  0.92822  0.9145200000000001  1.0000
  H   H59       1.0  0.20062  0.89767  0.8037100000000001  1.0000
  H   H60       1.0  0.31323  0.92256  0.74806  1.0000
  H   H61       1.0  0.4260500000000001  0.0008899999999999839  0.91849  1.0000
  H   H62       1.0  0.49433  0.07762000000000005  0.7643100000000002  1.0000
  H   H63       1.0  0.5632  0.02228000000000002  0.76786  1.0000
  H   H64       1.0  0.43656  0.03779000000000002  0.6369900000000001  1.0000
  H   H65       1.0  0.12826  0.57782  0.9881  1.0000
  H   H66       1.0  0.9273800000000001  0.60946  0.09053  1.0000
  H   H67       1.0  0.9494000000000001  0.71937  0.12626  1.0000
  H   H68       1.0  0.21033000000000004  0.6544900000000002  0.99087  1.0000
  H   H69       1.0  0.48914000000000013  0.16805  0.00208  1.0000
  H   H70       1.0  0.06609  0.7601100000000001  0.08669  1.0000
  H   H71       1.0  0.24188  0.7215500000000001  0.9179800000000002  1.0000
  H   H72       1.0  0.3056400000000001  0.71376  0.97393  1.0000
  H   H73       1.0  0.19506  0.86179  0.98902  1.0000
  H   H74       1.0  0.20675000000000002  0.08583  0.07204  1.0000
  H   H75       1.0  0.201  0.19669  0.10211  1.0000
  H   H76       1.0  0.31374  0.25217  0.07715  1.0000
  H   H77       1.0  0.42622  0.08159  0.9992200000000001  1.0000
  H   H78       1.0  0.49375  0.23560000000000006  0.9230200000000001  1.0000
  H   H79       1.0  0.56399  0.23230000000000006  0.9775400000000001  1.0000
  H   H80       1.0  0.4364600000000001  0.36232  0.9619  1.0000
  H   H81       1.0  0.6293  0.9227900000000001  0.5116000000000002  1.0000
  H   H82       1.0  0.42778  0.8905200000000001  0.40964  1.0000
  H   H83       1.0  0.4501400000000001  0.78077  0.3740600000000001  1.0000
  H   H84       1.0  0.7099600000000003  0.84672  0.51071  1.0000
  H   H85       1.0  0.9883600000000001  0.33059000000000005  0.49562  1.0000
  H   H86       1.0  0.5669400000000002  0.7402  0.41345  1.0000
  H   H87       1.0  0.74223  0.7791000000000001  0.58265  1.0000
  H   H88       1.0  0.80709  0.78665  0.52674  1.0000
  H   H89       1.0  0.69617  0.6380800000000001  0.5101000000000001  1.0000
  H   H90       1.0  0.70578  0.41494  0.42872  1.0000
  H   H91       1.0  0.69932  0.30391  0.39729  1.0000
  H   H92       1.0  0.81135  0.24724  0.4212  1.0000
  H   H93       1.0  0.92534  0.41732  0.50106  1.0000
  H   H94       1.0  0.9935400000000001  0.26401000000000013  0.57714  1.0000
  H   H95       1.0  0.062240000000000004  0.26699  0.52151  1.0000
  H   H96       1.0  0.9356400000000001  0.13665  0.53743  1.0000
  H   H97       1.0  0.3703400000000001  0.51166  0.9220200000000001  1.0000
  H   H98       1.0  0.57188  0.41001  0.8906  1.0000
  H   H99       1.0  0.55008  0.3742300000000001  0.7808100000000001  1.0000
  H   H100      1.0  0.28933  0.50995  0.8456000000000001  1.0000
  H   H101      1.0  0.0117  0.49545  0.33065  1.0000
  H   H102      1.0  0.43276  0.4131600000000001  0.73987  1.0000
  H   H103      1.0  0.25621  0.5829  0.77942  1.0000
  H   H104      1.0  0.19278  0.52637  0.78619  1.0000
  H   H105      1.0  0.30431  0.51119  0.63881  1.0000
  H   H106      1.0  0.29424  0.42899000000000004  0.41552  1.0000
  H   H107      1.0  0.3000500000000001  0.3972  0.30446  1.0000
  H   H108      1.0  0.18814  0.42163  0.24791000000000002  1.0000
  H   H109      1.0  0.07448000000000002  0.5011200000000001  0.41798000000000013  1.0000
  H   H110      1.0  0.007100000000000002  0.57734  0.26413  1.0000
  H   H111      1.0  0.93813  0.52157  0.26751  1.0000
  H   H112      1.0  0.06462  0.53695  0.13703  1.0000
  H   H113      1.0  0.87145  0.98829  0.57778  1.0000
  H   H114      1.0  0.0728  0.09052000000000002  0.60974  1.0000
  H   H115      1.0  0.05046  0.12630999999999998  0.71957  1.0000
  H   H116      1.0  0.78914  0.9909800000000002  0.6544600000000002  1.0000
  H   H117      1.0  0.5109800000000002  0.003229999999999999  0.16842  1.0000
  H   H118      1.0  0.93376  0.08661000000000002  0.7603  1.0000
  H   H119      1.0  0.7577900000000002  0.91769  0.72133  1.0000
  H   H120      1.0  0.6941  0.9738100000000001  0.7137100000000001  1.0000
  H   H121      1.0  0.80529  0.98877  0.86147  1.0000
  H   H122      1.0  0.79375  0.07185  0.08553  1.0000
  H   H123      1.0  0.79938  0.10233000000000003  0.19634000000000001  1.0000
  H   H124      1.0  0.68677  0.07733  0.25192  1.0000
  H   H125      1.0  0.57393  0.9993100000000001  0.08143  1.0000
  H   H126      1.0  0.5060800000000002  0.92246  0.23546  1.0000
  H   H127      1.0  0.43688  0.97787  0.23223000000000002  1.0000
  H   H128      1.0  0.56397  0.96259  0.36321  1.0000
  C   C1        1.0  0.9101800000000002  0.38976000000000005  0.98159  1.0000
  C   C2        1.0  0.8946  0.32867  0.96479  1.0000
  C   C3        1.0  0.02277  0.37196000000000007  0.92451  1.0000
  C   C4        1.0  0.00995  0.31059000000000003  0.9051000000000001  1.0000
  C   C5        1.0  0.9454100000000001  0.28739  0.92545  1.0000
  C   C6        1.0  0.8124800000000002  0.2570799999999999  0.9952800000000002  1.0000
  C   C7        1.0  0.74109  0.2585  0.034510000000000006  1.0000
  C   C8        1.0  0.7430400000000003  0.14496  0.01249  1.0000
  C   C9        1.0  0.7457100000000002  0.88936  0.9375700000000001  1.0000
  C   C10       1.0  0.74832  0.82734  0.9209600000000001  1.0000
  C   C11       1.0  0.6864400000000003  0.79613  0.93395  1.0000
  C   C12       1.0  0.62351  0.8919100000000001  0.9784300000000001  1.0000
  C   C13       1.0  0.62255  0.82958  0.96454  1.0000
  C   C14       1.0  0.55474  0.74819  0.9895000000000002  1.0000
  C   C15       1.0  0.48769000000000007  0.74354  0.030060000000000003  1.0000
  C   C16       1.0  0.50417  0.63493  0.022480000000000007  1.0000
  C   C17       1.0  0.4093000000000001  0.11017  0.51845  1.0000
  C   C18       1.0  0.39387  0.17122  0.5351  1.0000
  C   C19       1.0  0.52238  0.12818000000000004  0.57542  1.0000
  C   C20       1.0  0.5093100000000003  0.18943000000000004  0.5947800000000001  1.0000
  C   C21       1.0  0.44461  0.21258  0.57457  1.0000
  C   C22       1.0  0.31056  0.24344000000000002  0.50615  1.0000
  C   C23       1.0  0.24016  0.24111000000000002  0.4654000000000001  1.0000
  C   C24       1.0  0.24235  0.35431000000000007  0.48771  1.0000
  C   C25       1.0  0.24595  0.6101700000000002  0.56238  1.0000
  C   C26       1.0  0.24882  0.6723200000000001  0.5792900000000001  1.0000
  C   C27       1.0  0.18762000000000006  0.7040300000000002  0.56608  1.0000
  C   C28       1.0  0.12419000000000001  0.60777  0.52141  1.0000
  C   C29       1.0  0.12358000000000001  0.67019  0.5357700000000001  1.0000
  C   C30       1.0  0.05585000000000001  0.75117  0.51014  1.0000
  C   C31       1.0  0.9884400000000001  0.75625  0.46982000000000007  1.0000
  C   C32       1.0  0.00486  0.8652  0.4773700000000001  1.0000
  C   C33       1.0  0.59084  0.5183100000000002  0.10982  1.0000
  C   C34       1.0  0.6060600000000003  0.53438  0.17092  1.0000
  C   C35       1.0  0.47825  0.57514  0.12788  1.0000
  C   C36       1.0  0.49084000000000005  0.59404  0.18926000000000004  1.0000
  C   C37       1.0  0.55568  0.5739200000000001  0.2124  1.0000
  C   C38       1.0  0.68979  0.50451  0.24216  1.0000
  C   C39       1.0  0.76059  0.46427  0.24037  1.0000
  C   C40       1.0  0.7584800000000003  0.48709  0.35405000000000003  1.0000
  C   C41       1.0  0.75346  0.5625600000000002  0.6100000000000001  1.0000
  C   C42       1.0  0.7505600000000002  0.5795  0.67201  1.0000
  C   C43       1.0  0.81192  0.56654  0.7037400000000001  1.0000
  C   C44       1.0  0.87576  0.52158  0.60825  1.0000
  C   C45       1.0  0.8763900000000002  0.53607  0.67051  1.0000
  C   C46       1.0  0.94306  0.50937  0.75149  1.0000
  C   C47       1.0  0.01138  0.46985  0.7564500000000001  1.0000
  C   C48       1.0  0.99517  0.47747  0.86534  1.0000
  C   C49       1.0  0.09019  0.9813800000000003  0.38966000000000006  1.0000
  C   C50       1.0  0.10543000000000005  0.9649500000000001  0.32866  1.0000
  C   C51       1.0  0.97729  0.9242600000000002  0.37161  1.0000
  C   C52       1.0  0.99002  0.90514  0.31039000000000005  1.0000
  C   C53       1.0  0.0548  0.9253500000000001  0.28723  1.0000
  C   C54       1.0  0.188  0.99521  0.25718  1.0000
  C   C55       1.0  0.25935  0.03467999999999999  0.25871  1.0000
  C   C56       1.0  0.25698  0.012650000000000003  0.14519  1.0000
  C   C57       1.0  0.25411  0.9377  0.88951  1.0000
  C   C58       1.0  0.25155  0.9210200000000001  0.82748  1.0000
  C   C59       1.0  0.31343  0.9339500000000002  0.7962500000000002  1.0000
  C   C60       1.0  0.37641  0.97861  0.89207  1.0000
  C   C61       1.0  0.37740000000000007  0.96466  0.82977  1.0000
  C   C62       1.0  0.44568  0.9897800000000001  0.74866  1.0000
  C   C63       1.0  0.5125  0.030470000000000042  0.7437800000000001  1.0000
  C   C64       1.0  0.49594  0.023119999999999988  0.63512  1.0000
  C   C65       1.0  0.08986  0.61027  0.01848  1.0000
  C   C66       1.0  0.10540000000000002  0.67137  0.03529  1.0000
  C   C67       1.0  0.97729  0.62805  0.07554  1.0000
  C   C68       1.0  0.9900600000000002  0.6894400000000002  0.09494000000000001  1.0000
  C   C69       1.0  0.05459  0.7126600000000001  0.07461  1.0000
  C   C70       1.0  0.18759  0.74295  0.00479  1.0000
  C   C71       1.0  0.25901  0.74149  0.96555  1.0000
  C   C72       1.0  0.25720000000000004  0.8551  0.9876  1.0000
  C   C73       1.0  0.2544700000000001  0.11083000000000003  0.0624  1.0000
  C   C74       1.0  0.25196  0.17288  0.07889000000000002  1.0000
  C   C75       1.0  0.31397  0.20396000000000003  0.06589  1.0000
  C   C76       1.0  0.37669  0.10806  0.02148  1.0000
  C   C77       1.0  0.37785000000000013  0.17037  0.03529  1.0000
  C   C78       1.0  0.4462700000000001  0.25179  0.01089  1.0000
  C   C79       1.0  0.5129400000000002  0.25639  0.96983  1.0000
  C   C80       1.0  0.4960300000000001  0.36496  0.97674  1.0000
  C   C81       1.0  0.59064  0.8902  0.48143000000000014  1.0000
  C   C82       1.0  0.6061700000000001  0.82905  0.4649600000000001  1.0000
  C   C83       1.0  0.47793  0.87214  0.42462000000000005  1.0000
  C   C84       1.0  0.49087000000000003  0.8107600000000001  0.40524000000000004  1.0000
  C   C85       1.0  0.55541  0.78765  0.42569000000000007  1.0000
  C   C86       1.0  0.68966  0.7575300000000001  0.4948100000000001  1.0000
  C   C87       1.0  0.76014  0.75917  0.53521  1.0000
  C   C88       1.0  0.75825  0.6453999999999999  0.51249  1.0000
  C   C89       1.0  0.7535800000000002  0.38957  0.43762000000000006  1.0000
  C   C90       1.0  0.75049  0.32739  0.42061  1.0000
  C   C91       1.0  0.81188  0.29565  0.43345  1.0000
  C   C92       1.0  0.87545  0.39148  0.47837  1.0000
  C   C93       1.0  0.87621  0.32903  0.46386  1.0000
  C   C94       1.0  0.9436100000000001  0.24797000000000002  0.48956000000000005  1.0000
  C   C95       1.0  0.011370000000000003  0.24333  0.52998  1.0000
  C   C96       1.0  0.9951300000000001  0.13445  0.52267  1.0000
  C   C97       1.0  0.40892  0.48151000000000005  0.88954  1.0000
  C   C98       1.0  0.39348  0.46479  0.82847  1.0000
  C   C99       1.0  0.52177  0.42465000000000014  0.8718600000000001  1.0000
  C   C100      1.0  0.50879  0.405  0.81055  1.0000
  C   C101      1.0  0.44458000000000003  0.4258100000000001  0.78724  1.0000
  C   C102      1.0  0.31053  0.49531000000000003  0.7570300000000001  1.0000
  C   C103      1.0  0.23956000000000002  0.53526  0.75902  1.0000
  C   C104      1.0  0.24199000000000004  0.51236  0.6455500000000001  1.0000
  C   C105      1.0  0.24639  0.43752  0.39007  1.0000
  C   C106      1.0  0.24909000000000003  0.4205  0.32805  1.0000
  C   C107      1.0  0.18797  0.43369  0.29623  1.0000
  C   C108      1.0  0.12427  0.47861000000000015  0.3921300000000001  1.0000
  C   C109      1.0  0.12378000000000002  0.46415000000000006  0.32987000000000005  1.0000
  C   C110      1.0  0.05673  0.49047000000000013  0.24890000000000007  1.0000
  C   C111      1.0  0.9887500000000001  0.53022  0.24379  1.0000
  C   C112      1.0  0.00506  0.52242  0.13477  1.0000
  C   C113      1.0  0.91028  0.018430000000000026  0.61027  1.0000
  C   C114      1.0  0.8944300000000001  0.0354  0.67141  1.0000
  C   C115      1.0  0.02276  0.07537999999999999  0.62821  1.0000
  C   C116      1.0  0.009730000000000003  0.09503000000000004  0.68966  1.0000
  C   C117      1.0  0.94529  0.07457999999999998  0.71278  1.0000
  C   C118      1.0  0.81233  0.004630000000000014  0.74269  1.0000
  C   C119      1.0  0.7409  0.9653100000000002  0.74127  1.0000
  C   C120      1.0  0.7430900000000003  0.98733  0.8549000000000001  1.0000
  C   C121      1.0  0.74591  0.062390000000000015  0.11055  1.0000
  C   C122      1.0  0.7484400000000002  0.07904  0.17256  1.0000
  C   C123      1.0  0.68656  0.06602  0.20374  1.0000
  C   C124      1.0  0.62358  0.02147  0.10789  1.0000
  C   C125      1.0  0.62257  0.03536999999999999  0.1702  1.0000
  C   C126      1.0  0.5544400000000003  0.010270000000000022  0.25142000000000003  1.0000
  C   C127      1.0  0.4876  0.9695300000000002  0.25618  1.0000
  C   C128      1.0  0.50447  0.9772100000000001  0.36504  1.0000
  N   N1        1.0  0.68778  0.10356000000000001  0.00192  1.0000
  N   N2        1.0  0.6178200000000003  0.13212  0.00659  1.0000
  N   N3        1.0  0.6294500000000001  0.19059  0.02018  1.0000
  N   N4        1.0  0.70852  0.19909000000000002  0.023200000000000002  1.0000
  N   N5        1.0  0.8267300000000002  0.3114800000000001  0.98838  1.0000
  N   N6        1.0  0.9739500000000001  0.41279000000000005  0.96356  1.0000
  N   N7        1.0  0.68344  0.92223  0.9660200000000001  1.0000
  N   N8        1.0  0.55819  0.80398  0.98321  1.0000
  N   N9        1.0  0.4635600000000001  0.68193  0.01878  1.0000
  N   N10       1.0  0.39084000000000013  0.6617500000000001  0.99717  1.0000
  N   N11       1.0  0.38969000000000004  0.6036100000000002  0.9888  1.0000
  N   N12       1.0  0.46011000000000013  0.58597  0.004360000000000001  1.0000
  N   N13       1.0  0.18756000000000006  0.39597  0.49853  1.0000
  N   N14       1.0  0.11746000000000001  0.36773  0.4934300000000001  1.0000
  N   N15       1.0  0.12814  0.30913  0.47938  1.0000
  N   N16       1.0  0.20732  0.30018000000000006  0.4761000000000001  1.0000
  N   N17       1.0  0.32674  0.18846  0.51084  1.0000
  N   N18       1.0  0.47339  0.08715999999999997  0.53649  1.0000
  N   N19       1.0  0.18388000000000004  0.57714  0.53334  1.0000
  N   N20       1.0  0.05949000000000001  0.6957700000000002  0.51697  1.0000
  N   N21       1.0  0.9644700000000002  0.8180900000000001  0.48136  1.0000
  N   N22       1.0  0.8919400000000001  0.83807  0.50288  1.0000
  N   N23       1.0  0.8906600000000002  0.8961  0.51157  1.0000
  N   N24       1.0  0.9608100000000002  0.9140600000000001  0.49601000000000006  1.0000
  N   N25       1.0  0.81342  0.49817000000000017  0.39568  1.0000
  N   N26       1.0  0.88326  0.49321000000000004  0.3670900000000001  1.0000
  N   N27       1.0  0.8721500000000002  0.47878  0.30861000000000005  1.0000
  N   N28       1.0  0.79318  0.47531  0.29982000000000003  1.0000
  N   N29       1.0  0.67405  0.51027  0.18755  1.0000
  N   N30       1.0  0.5271  0.53652  0.08686000000000002  1.0000
  N   N31       1.0  0.81602  0.53352  0.57713  1.0000
  N   N32       1.0  0.94067  0.51747  0.6963100000000001  1.0000
  N   N33       1.0  0.03554000000000001  0.48128  0.81816  1.0000
  N   N34       1.0  0.10828  0.5027000000000001  0.8379100000000002  1.0000
  N   N35       1.0  0.10980000000000002  0.51134  0.8959500000000001  1.0000
  N   N36       1.0  0.03965000000000001  0.49602000000000007  0.9140300000000001  1.0000
  N   N37       1.0  0.31231  0.002200000000000003  0.10382  1.0000
  N   N38       1.0  0.38218000000000013  0.0069000000000000025  0.13241  1.0000
  N   N39       1.0  0.37069  0.020340000000000018  0.19079000000000004  1.0000
  N   N40       1.0  0.29172  0.02340000000000001  0.19929000000000002  1.0000
  N   N41       1.0  0.1736  0.98856  0.31166  1.0000
  N   N42       1.0  0.02608  0.9633900000000001  0.41285  1.0000
  N   N43       1.0  0.31664  0.9662600000000002  0.92244  1.0000
  N   N44       1.0  0.44179  0.9835200000000001  0.8043200000000001  1.0000
  N   N45       1.0  0.5362700000000002  0.019089999999999975  0.68219  1.0000
  N   N46       1.0  0.60875  0.99721  0.66231  1.0000
  N   N47       1.0  0.61034  0.98875  0.6042  1.0000
  N   N48       1.0  0.54016  0.004610000000000008  0.58633  1.0000
  N   N49       1.0  0.3127  0.89643  0.9981500000000001  1.0000
  N   N50       1.0  0.38245  0.8678000000000001  0.9934800000000001  1.0000
  N   N51       1.0  0.37075000000000014  0.80934  0.97994  1.0000
  N   N52       1.0  0.29167000000000004  0.8009  0.97689  1.0000
  N   N53       1.0  0.17322000000000004  0.68853  0.01161  1.0000
  N   N54       1.0  0.02610000000000001  0.58721  0.036500000000000005  1.0000
  N   N55       1.0  0.31686  0.07785  0.034  1.0000
  N   N56       1.0  0.4423800000000001  0.19563  0.01641  1.0000
  N   N57       1.0  0.53676  0.31791  0.98048  1.0000
  N   N58       1.0  0.6090300000000001  0.33795000000000003  0.0023800000000000006  1.0000
  N   N59       1.0  0.6101900000000002  0.3959500000000001  0.01119  1.0000
  N   N60       1.0  0.54013  0.4138300000000001  0.9956300000000002  1.0000
  N   N61       1.0  0.81355  0.60404  0.50193  1.0000
  N   N62       1.0  0.8833500000000002  0.6327  0.50711  1.0000
  N   N63       1.0  0.872  0.6912500000000001  0.52104  1.0000
  N   N64       1.0  0.7928000000000002  0.69978  0.52408  1.0000
  N   N65       1.0  0.6736200000000002  0.81225  0.48936  1.0000
  N   N66       1.0  0.52675  0.91298  0.4636200000000001  1.0000
  N   N67       1.0  0.81592  0.42232  0.4665900000000001  1.0000
  N   N68       1.0  0.94075  0.30362  0.4825  1.0000
  N   N69       1.0  0.03563  0.18172  0.51911  1.0000
  N   N70       1.0  0.10832000000000003  0.16196000000000002  0.49760000000000004  1.0000
  N   N71       1.0  0.10954  0.10383  0.4885  1.0000
  N   N72       1.0  0.039410000000000014  0.08572000000000007  0.5037400000000001  1.0000
  N   N73       1.0  0.18713000000000005  0.50118  0.6038400000000002  1.0000
  N   N74       1.0  0.11715  0.50633  0.6322800000000001  1.0000
  N   N75       1.0  0.12799000000000005  0.52069  0.6907200000000001  1.0000
  N   N76       1.0  0.20695  0.52409  0.69967  1.0000
  N   N77       1.0  0.32659000000000005  0.48969  0.8115100000000001  1.0000
  N   N78       1.0  0.47284  0.46376  0.91252  1.0000
  N   N79       1.0  0.18408  0.46668000000000004  0.42318000000000006  1.0000
  N   N80       1.0  0.05968  0.4829800000000001  0.30416  1.0000
  N   N81       1.0  0.9647  0.51869  0.18199  1.0000
  N   N82       1.0  0.89202  0.49722000000000005  0.16218  1.0000
  N   N83       1.0  0.89054  0.48839  0.10411000000000001  1.0000
  N   N84       1.0  0.96071  0.5037  0.08601000000000002  1.0000
  N   N85       1.0  0.68799  0.9979400000000003  0.8963400000000001  1.0000
  N   N86       1.0  0.61796  0.99327  0.86772  1.0000
  N   N87       1.0  0.6294700000000002  0.9796600000000004  0.80932  1.0000
  N   N88       1.0  0.70852  0.97662  0.80078  1.0000
  N   N89       1.0  0.8266500000000002  0.011520000000000037  0.6883600000000001  1.0000
  N   N90       1.0  0.9737700000000001  0.036570000000000054  0.5874300000000001  1.0000
  N   N91       1.0  0.6835800000000002  0.03384  0.07758  1.0000
  N   N92       1.0  0.55822  0.016540000000000016  0.19573000000000004  1.0000
  N   N93       1.0  0.46384  0.9807700000000004  0.31784000000000007  1.0000
  N   N94       1.0  0.3914100000000001  0.0023700000000000058  0.33777000000000007  1.0000
  N   N95       1.0  0.39018  0.011080000000000008  0.3957300000000001  1.0000
  N   N96       1.0  0.46025  0.99584  0.41377000000000014  1.0000
  O   O1        1.0  0.85333  0.21208  0.97473  1.0000
  O   O2        1.0  0.60134  0.70696  0.96853  1.0000
  O   O3        1.0  0.3490600000000001  0.2894900000000001  0.52949  1.0000
  O   O4        1.0  0.10305000000000003  0.79215  0.53041  1.0000
  O   O5        1.0  0.65116  0.52762  0.28813  1.0000
  O   O6        1.0  0.8951  0.52799  0.7916000000000001  1.0000
  O   O7        1.0  0.1471  0.97437  0.21206000000000003  1.0000
  O   O8        1.0  0.3993000000000001  0.9686300000000001  0.70723  1.0000
  O   O9        1.0  0.14678  0.7879600000000001  0.02534000000000001  1.0000
  O   O10       1.0  0.39977  0.29308  0.03273  1.0000
  O   O11       1.0  0.6507700000000001  0.7117100000000001  0.47198  1.0000
  O   O12       1.0  0.89584  0.2074900000000001  0.46977000000000013  1.0000
  O   O13       1.0  0.35003  0.4737  0.71136  1.0000
  O   O14       1.0  0.10464  0.47152  0.20863  1.0000
  O   O15       1.0  0.85334  0.02504  0.78772  1.0000
  O   O16       1.0  0.60094  0.0313  0.29278  1.0000
