data_image0
_chemical_formula_structural       Ni12H72C120N48
_chemical_formula_sum              "Ni12 H72 C120 N48"
_cell_length_a       18.58906
_cell_length_b       18.58906
_cell_length_c       18.58891
_cell_angle_alpha    90.0
_cell_angle_beta     90.0
_cell_angle_gamma    90.0

_space_group_name_H-M_alt    "P 1"
_space_group_IT_number       1

loop_
  _space_group_symop_operation_xyz
  'x, y, z'

loop_
  _atom_site_type_symbol
  _atom_site_label
  _atom_site_symmetry_multiplicity
  _atom_site_fract_x
  _atom_site_fract_y
  _atom_site_fract_z
  _atom_site_occupancy
  Ni  Ni1       1.0  0.9999799999999999  0.62435  0.50011  1.0000
  Ni  Ni2       1.0  0.9999900000000002  0.37555  0.50011  1.0000
  Ni  Ni3       1.0  0.49978  0.9999900000000002  0.62454  1.0000
  Ni  Ni4       1.0  0.49978  0.9999900000000002  0.37556  1.0000
  Ni  Ni5       1.0  0.62439  0.49984000000000006  1e-05  1.0000
  Ni  Ni6       1.0  0.37531  0.49983  1e-05  1.0000
  Ni  Ni7       1.0  0.62437  0.9999900000000002  0.50011  1.0000
  Ni  Ni8       1.0  0.37543  0.0  0.50012  1.0000
  Ni  Ni9       1.0  0.9999799999999999  0.49987999999999994  0.37547  1.0000
  Ni  Ni10      1.0  0.9999799999999999  0.49989  0.62462  1.0000
  Ni  Ni11      1.0  0.49973000000000006  0.62442  1e-05  1.0000
  Ni  Ni12      1.0  0.49977  0.37546  1e-05  1.0000
  H   H1        1.0  0.8687200000000002  0.71879  0.55466  1.0000
  H   H2        1.0  0.13136  0.2812  0.55462  1.0000
  H   H3        1.0  0.1313  0.71877  0.44542  1.0000
  H   H4        1.0  0.86864  0.28114  0.4454000000000001  1.0000
  H   H5        1.0  0.5546  0.8685900000000001  0.7189  1.0000
  H   H6        1.0  0.55461  0.13135  0.28118  1.0000
  H   H7        1.0  0.44534  0.13137  0.71885  1.0000
  H   H8        1.0  0.44532  0.86869  0.28122  1.0000
  H   H9        1.0  0.7186  0.5545  0.86845  1.0000
  H   H10       1.0  0.28097  0.55462  0.13145  1.0000
  H   H11       1.0  0.71857  0.44545  0.13155  1.0000
  H   H12       1.0  0.28105  0.44534  0.86859  1.0000
  H   H13       1.0  0.71882  0.86876  0.44537000000000004  1.0000
  H   H14       1.0  0.28109  0.13142  0.44541000000000003  1.0000
  H   H15       1.0  0.71878  0.13122  0.55466  1.0000
  H   H16       1.0  0.2811  0.86861  0.55465  1.0000
  H   H17       1.0  0.8686000000000001  0.55462  0.28114  1.0000
  H   H18       1.0  0.13143  0.5546  0.71891  1.0000
  H   H19       1.0  0.13135  0.4453500000000001  0.28117  1.0000
  H   H20       1.0  0.86855  0.4453500000000001  0.7189  1.0000
  H   H21       1.0  0.55472  0.71899  0.13111  1.0000
  H   H22       1.0  0.55474  0.28088  0.86886  1.0000
  H   H23       1.0  0.44537  0.71865  0.86865  1.0000
  H   H24       1.0  0.44541  0.28124  0.13141  1.0000
  H   H25       1.0  0.13138  0.28118  0.44543  1.0000
  H   H26       1.0  0.8687099999999999  0.71881  0.44537999999999994  1.0000
  H   H27       1.0  0.86866  0.28116  0.55464  1.0000
  H   H28       1.0  0.13129  0.71875  0.55463  1.0000
  H   H29       1.0  0.44533000000000006  0.13131  0.28122  1.0000
  H   H30       1.0  0.44533000000000006  0.8686300000000001  0.71885  1.0000
  H   H31       1.0  0.55461  0.86865  0.28117  1.0000
  H   H32       1.0  0.55459  0.13141  0.71889  1.0000
  H   H33       1.0  0.28104  0.44534  0.13141  1.0000
  H   H34       1.0  0.71857  0.44545  0.86846  1.0000
  H   H35       1.0  0.28097  0.55462  0.8685599999999999  1.0000
  H   H36       1.0  0.71861  0.5545  0.13155  1.0000
  H   H37       1.0  0.28111  0.1314  0.55464  1.0000
  H   H38       1.0  0.71879  0.8687800000000001  0.55468  1.0000
  H   H39       1.0  0.28107  0.8685900000000001  0.4454000000000001  1.0000
  H   H40       1.0  0.71881  0.13124  0.44539  1.0000
  H   H41       1.0  0.13141  0.44536000000000003  0.71889  1.0000
  H   H42       1.0  0.86861  0.44533000000000006  0.28117  1.0000
  H   H43       1.0  0.86854  0.55461  0.71893  1.0000
  H   H44       1.0  0.13137  0.55461  0.28115  1.0000
  H   H45       1.0  0.44541  0.28124  0.86859  1.0000
  H   H46       1.0  0.44537  0.71865  0.13136  1.0000
  H   H47       1.0  0.55474  0.28088  0.13115  1.0000
  H   H48       1.0  0.55472  0.71899  0.8688899999999999  1.0000
  H   H49       1.0  0.77101  0.77103  0.60764  1.0000
  H   H50       1.0  0.22896999999999998  0.22898  0.60762  1.0000
  H   H51       1.0  0.22895  0.77103  0.39239  1.0000
  H   H52       1.0  0.77101  0.22895  0.39239  1.0000
  H   H53       1.0  0.60763  0.7711  0.77106  1.0000
  H   H54       1.0  0.60763  0.22887  0.22897999999999996  1.0000
  H   H55       1.0  0.3924  0.229  0.77099  1.0000
  H   H56       1.0  0.39237  0.771  0.229  1.0000
  H   H57       1.0  0.77102  0.60767  0.77109  1.0000
  H   H58       1.0  0.22893000000000002  0.60762  0.229  1.0000
  H   H59       1.0  0.77101  0.39231  0.22895  1.0000
  H   H60       1.0  0.22898  0.39239  0.77099  1.0000
  H   H61       1.0  0.77102  0.77104  0.39238  1.0000
  H   H62       1.0  0.22896  0.22896999999999998  0.39239  1.0000
  H   H63       1.0  0.771  0.22896  0.60762  1.0000
  H   H64       1.0  0.22896  0.77102  0.60762  1.0000
  H   H65       1.0  0.77103  0.60768  0.22891999999999998  1.0000
  H   H66       1.0  0.22894000000000003  0.60761  0.77101  1.0000
  H   H67       1.0  0.22896999999999998  0.39238  0.22902  1.0000
  H   H68       1.0  0.771  0.39232  0.77107  1.0000
  H   H69       1.0  0.60764  0.77111  0.22895  1.0000
  H   H70       1.0  0.60762  0.22888  0.77103  1.0000
  H   H71       1.0  0.39238  0.77099  0.77101  1.0000
  H   H72       1.0  0.39239  0.22899  0.22903  1.0000
  C   C1        1.0  0.87755  0.67257  0.58873  1.0000
  C   C2        1.0  0.12247000000000001  0.3274  0.58868  1.0000
  C   C3        1.0  0.12242000000000001  0.67254  0.41137  1.0000
  C   C4        1.0  0.8775199999999999  0.32735  0.41135  1.0000
  C   C5        1.0  0.58863  0.8775299999999999  0.67268  1.0000
  C   C6        1.0  0.58863  0.12243  0.32741  1.0000
  C   C7        1.0  0.41127  0.12248  0.67265  1.0000
  C   C8        1.0  0.41125  0.87755  0.32742  1.0000
  C   C9        1.0  0.67246  0.58861  0.8775100000000001  1.0000
  C   C10       1.0  0.32721  0.58863  0.12251  1.0000
  C   C11       1.0  0.67247  0.41129  0.12253  1.0000
  C   C12       1.0  0.32726  0.41129  0.87749  1.0000
  C   C13       1.0  0.67258  0.8776000000000002  0.41134  1.0000
  C   C14       1.0  0.32731  0.12248999999999999  0.41138  1.0000
  C   C15       1.0  0.67256  0.12239  0.58871  1.0000
  C   C16       1.0  0.32731  0.87751  0.5887  1.0000
  C   C17       1.0  0.87751  0.58867  0.32735  1.0000
  C   C18       1.0  0.12248999999999999  0.58864  0.6727  1.0000
  C   C19       1.0  0.12246  0.41129  0.32739  1.0000
  C   C20       1.0  0.87748  0.41128  0.6727  1.0000
  C   C21       1.0  0.58864  0.67266  0.12235000000000001  1.0000
  C   C22       1.0  0.58864  0.32723  0.87763  1.0000
  C   C23       1.0  0.41125  0.67249  0.87753  1.0000
  C   C24       1.0  0.41128  0.3274  0.12253  1.0000
  C   C25       1.0  0.12247000000000001  0.32739  0.41138  1.0000
  C   C26       1.0  0.87755  0.67258  0.41133  1.0000
  C   C27       1.0  0.8775199999999999  0.32737  0.58871  1.0000
  C   C28       1.0  0.12242000000000001  0.67254  0.58869  1.0000
  C   C29       1.0  0.41126  0.12244  0.32743  1.0000
  C   C30       1.0  0.41126  0.8775199999999999  0.67265  1.0000
  C   C31       1.0  0.58864  0.8775600000000001  0.3274  1.0000
  C   C32       1.0  0.58862  0.12246  0.67267  1.0000
  C   C33       1.0  0.32725  0.41128  0.12252  1.0000
  C   C34       1.0  0.67246  0.4113  0.87748  1.0000
  C   C35       1.0  0.32721  0.58862  0.8775  1.0000
  C   C36       1.0  0.67247  0.58862  0.12249999999999998  1.0000
  C   C37       1.0  0.32732  0.12248999999999999  0.58869  1.0000
  C   C38       1.0  0.67257  0.87761  0.58873  1.0000
  C   C39       1.0  0.32729  0.87751  0.41136  1.0000
  C   C40       1.0  0.67257  0.12239  0.41136  1.0000
  C   C41       1.0  0.12248999999999999  0.41131  0.67269  1.0000
  C   C42       1.0  0.87751  0.41127  0.32737  1.0000
  C   C43       1.0  0.87748  0.58866  0.67272  1.0000
  C   C44       1.0  0.12246  0.58865  0.32737  1.0000
  C   C45       1.0  0.41129  0.32741  0.87748  1.0000
  C   C46       1.0  0.41124  0.67249  0.12247999999999999  1.0000
  C   C47       1.0  0.58865  0.32722  0.12238  1.0000
  C   C48       1.0  0.58864  0.67266  0.8776599999999999  1.0000
  C   C49       1.0  0.77923  0.68604  0.68606  1.0000
  C   C50       1.0  0.84159  0.65185  0.65191  1.0000
  C   C51       1.0  0.22075000000000003  0.31399  0.686  1.0000
  C   C52       1.0  0.15841  0.34815  0.65186  1.0000
  C   C53       1.0  0.2207  0.68601  0.31401  1.0000
  C   C54       1.0  0.15835  0.65183  0.34818  1.0000
  C   C55       1.0  0.77923  0.31393  0.31398  1.0000
  C   C56       1.0  0.84159  0.3481  0.34816  1.0000
  C   C57       1.0  0.68602  0.7793  0.68606  1.0000
  C   C58       1.0  0.65184  0.84166  0.65191  1.0000
  C   C59       1.0  0.68602  0.22066  0.31399  1.0000
  C   C60       1.0  0.65184  0.15831  0.34816  1.0000
  C   C61       1.0  0.31398  0.22076000000000004  0.686  1.0000
  C   C62       1.0  0.34811  0.15841  0.65186  1.0000
  C   C63       1.0  0.31395  0.77925  0.314  1.0000
  C   C64       1.0  0.34809  0.84161  0.34817  1.0000
  C   C65       1.0  0.68598  0.68605  0.77932  1.0000
  C   C66       1.0  0.65178  0.65186  0.84167  1.0000
  C   C67       1.0  0.31394  0.686  0.22078  1.0000
  C   C68       1.0  0.34806  0.6518  0.15842  1.0000
  C   C69       1.0  0.68599  0.31391  0.22073  1.0000
  C   C70       1.0  0.65178  0.34806  0.15838  1.0000
  C   C71       1.0  0.31398  0.31399  0.77921  1.0000
  C   C72       1.0  0.3481  0.34814  0.84156  1.0000
  C   C73       1.0  0.68603  0.77932  0.31396  1.0000
  C   C74       1.0  0.65185  0.84168  0.34814  1.0000
  C   C75       1.0  0.31397  0.22073999999999996  0.31402  1.0000
  C   C76       1.0  0.3481  0.15839  0.34819  1.0000
  C   C77       1.0  0.68601  0.22068  0.68603  1.0000
  C   C78       1.0  0.65183  0.15833  0.65189  1.0000
  C   C79       1.0  0.31396  0.77922  0.68602  1.0000
  C   C80       1.0  0.3481  0.84158  0.65187  1.0000
  C   C81       1.0  0.77925  0.68605  0.31396  1.0000
  C   C82       1.0  0.84161  0.65186  0.34814  1.0000
  C   C83       1.0  0.22072000000000003  0.68601  0.68601  1.0000
  C   C84       1.0  0.15838  0.65182  0.65187  1.0000
  C   C85       1.0  0.22073  0.31398  0.31402  1.0000
  C   C86       1.0  0.15839  0.34813  0.34819  1.0000
  C   C87       1.0  0.77921  0.31394  0.68604  1.0000
  C   C88       1.0  0.84157  0.34811  0.65189  1.0000
  C   C89       1.0  0.68599  0.68606  0.22068999999999997  1.0000
  C   C90       1.0  0.65178  0.65187  0.15834  1.0000
  C   C91       1.0  0.68598  0.31392  0.77928  1.0000
  C   C92       1.0  0.65178  0.34806  0.84164  1.0000
  C   C93       1.0  0.31395  0.68599  0.77924  1.0000
  C   C94       1.0  0.34807  0.65179  0.84159  1.0000
  C   C95       1.0  0.31397  0.31398  0.22080999999999998  1.0000
  C   C96       1.0  0.3481  0.34814  0.15845  1.0000
  C   C97       1.0  0.74783  0.74787  0.65605  1.0000
  C   C98       1.0  0.25217  0.25218  0.65601  1.0000
  C   C99       1.0  0.25213  0.74783  0.344  1.0000
  C   C100      1.0  0.74783  0.2521  0.34398  1.0000
  C   C101      1.0  0.65601  0.74789  0.74789  1.0000
  C   C102      1.0  0.65601  0.25207  0.25216  1.0000
  C   C103      1.0  0.344  0.25218  0.74781  1.0000
  C   C104      1.0  0.34396  0.74782  0.25218  1.0000
  C   C105      1.0  0.7478  0.65605  0.7479  1.0000
  C   C106      1.0  0.25212  0.65601  0.2522  1.0000
  C   C107      1.0  0.7478  0.34392  0.25215  1.0000
  C   C108      1.0  0.25217  0.344  0.74781  1.0000
  C   C109      1.0  0.74784  0.74788  0.34396  1.0000
  C   C110      1.0  0.25216  0.25216  0.34401  1.0000
  C   C111      1.0  0.74781  0.25212  0.65603  1.0000
  C   C112      1.0  0.25215  0.74782  0.65601  1.0000
  C   C113      1.0  0.74782  0.65606  0.25212  1.0000
  C   C114      1.0  0.25214  0.656  0.74782  1.0000
  C   C115      1.0  0.25215  0.34398  0.25221  1.0000
  C   C116      1.0  0.74779  0.34393  0.74787  1.0000
  C   C117      1.0  0.65602  0.7479  0.25213  1.0000
  C   C118      1.0  0.656  0.25209  0.74785  1.0000
  C   C119      1.0  0.34398  0.7478  0.74784  1.0000
  C   C120      1.0  0.34399  0.25216  0.25221  1.0000
  N   N1        1.0  0.93008  0.62485  0.57324  1.0000
  N   N2        1.0  0.0699  0.37508  0.57321  1.0000
  N   N3        1.0  0.0699  0.62482  0.4269  1.0000
  N   N4        1.0  0.9300700000000001  0.37504  0.42689  1.0000
  N   N5        1.0  0.57301  0.9300700000000001  0.62501  1.0000
  N   N6        1.0  0.57301  0.06991  0.37511  1.0000
  N   N7        1.0  0.42676  0.0699  0.62499  1.0000
  N   N8        1.0  0.42675  0.9300999999999999  0.37512  1.0000
  N   N9        1.0  0.6248  0.57305  0.9300800000000001  1.0000
  N   N10       1.0  0.37484  0.57305  0.06993  1.0000
  N   N11       1.0  0.62481  0.4268  0.06993  1.0000
  N   N12       1.0  0.37489  0.42682  0.9300800000000001  1.0000
  N   N13       1.0  0.62484  0.93009  0.42692  1.0000
  N   N14       1.0  0.37496  0.06992  0.42694  1.0000
  N   N15       1.0  0.62482  0.06989  0.57319  1.0000
  N   N16       1.0  0.37496  0.93009  0.57319  1.0000
  N   N17       1.0  0.93006  0.57307  0.37502  1.0000
  N   N18       1.0  0.06991  0.57305  0.62506  1.0000
  N   N19       1.0  0.0699  0.42683  0.37505  1.0000
  N   N20       1.0  0.9300700000000001  0.42682  0.62506  1.0000
  N   N21       1.0  0.57304  0.62493  0.06986  1.0000
  N   N22       1.0  0.57306  0.37493  0.93013  1.0000
  N   N23       1.0  0.4267  0.6248  0.9300900000000001  1.0000
  N   N24       1.0  0.42673  0.37507  0.06994  1.0000
  N   N25       1.0  0.06991  0.37507  0.42691  1.0000
  N   N26       1.0  0.9300700000000001  0.62485  0.42687  1.0000
  N   N27       1.0  0.93008  0.37505  0.57323  1.0000
  N   N28       1.0  0.06989  0.62482  0.57321  1.0000
  N   N29       1.0  0.42676  0.0699  0.37513  1.0000
  N   N30       1.0  0.42675  0.93009  0.62499  1.0000
  N   N31       1.0  0.57302  0.93008  0.3751  1.0000
  N   N32       1.0  0.573  0.06992  0.625  1.0000
  N   N33       1.0  0.37489  0.42681  0.06993  1.0000
  N   N34       1.0  0.6248  0.42681  0.9300800000000001  1.0000
  N   N35       1.0  0.37484  0.57304  0.9300800000000001  1.0000
  N   N36       1.0  0.6248  0.57305  0.06993  1.0000
  N   N37       1.0  0.37497  0.06991  0.57318  1.0000
  N   N38       1.0  0.62483  0.9300999999999999  0.5732  1.0000
  N   N39       1.0  0.37495  0.93008  0.42693  1.0000
  N   N40       1.0  0.62483  0.0699  0.42693  1.0000
  N   N41       1.0  0.0699  0.42684  0.62505  1.0000
  N   N42       1.0  0.9300700000000001  0.42681  0.37504  1.0000
  N   N43       1.0  0.93005  0.57307  0.62508  1.0000
  N   N44       1.0  0.06991  0.57305  0.37504  1.0000
  N   N45       1.0  0.42674  0.37507  0.93007  1.0000
  N   N46       1.0  0.42669  0.6248  0.06992  1.0000
  N   N47       1.0  0.57306  0.37493  0.06988  1.0000
  N   N48       1.0  0.57304  0.62492  0.9301500000000001  1.0000
