data_image0
_chemical_formula_structural       Cu4H72C120N16O32
_chemical_formula_sum              "Cu4 H72 C120 N16 O32"
_cell_length_a       14.70349
_cell_length_b       16.74683
_cell_length_c       17.84481
_cell_angle_alpha    117.96252000000001
_cell_angle_beta     114.42486
_cell_angle_gamma    89.96122

_space_group_name_H-M_alt    "P 1"
_space_group_IT_number       1

loop_
  _space_group_symop_operation_xyz
  'x, y, z'

loop_
  _atom_site_type_symbol
  _atom_site_label
  _atom_site_symmetry_multiplicity
  _atom_site_fract_x
  _atom_site_fract_y
  _atom_site_fract_z
  _atom_site_occupancy
  Cu  Cu1       1.0  0.5  0.5  0.5  1.0000
  Cu  Cu2       1.0  9.497421348001935e-18  0.5  0.5  1.0000
  Cu  Cu3       1.0  0.0  0.0  0.5  1.0000
  Cu  Cu4       1.0  0.5  9.999999999992867e-06  0.5  1.0000
  H   H1        1.0  0.7011700000000001  0.45007  0.53172  1.0000
  H   H2        1.0  0.43443000000000004  0.3773500000000001  0.20018000000000005  1.0000
  H   H3        1.0  0.8045800000000001  0.36157000000000006  0.6004200000000001  1.0000
  H   H4        1.0  0.86935  0.49863  0.059000000000000004  1.0000
  H   H5        1.0  0.69887  0.22274000000000008  0.6770300000000002  1.0000
  H   H6        1.0  0.7906200000000001  0.22874000000000005  0.6377900000000002  1.0000
  H   H7        1.0  0.5593  0.30017  0.65301  1.0000
  H   H8        1.0  0.46357  0.38955  0.58007  1.0000
  H   H9        1.0  0.44006000000000006  0.28708  0.04509  1.0000
  H   H10       1.0  0.83034  0.58201  0.53139  1.0000
  H   H11       1.0  0.76712  0.3237  0.20207  1.0000
  H   H12       1.0  0.7959  0.73903  0.60019  1.0000
  H   H13       1.0  0.18987000000000004  0.06076000000000001  0.05953000000000001  1.0000
  H   H14       1.0  0.97858  0.95469  0.67742  1.0000
  H   H15       1.0  0.84736  0.90931  0.63752  1.0000
  H   H16       1.0  0.09399000000000007  0.85323  0.65312  1.0000
  H   H17       1.0  0.11668999999999999  0.69109  0.58031  1.0000
  H   H18       1.0  0.60707  0.25863  0.04606  1.0000
  H   H19       1.0  0.29883  0.54994  0.46828  1.0000
  H   H20       1.0  0.56557  0.62266  0.79983  1.0000
  H   H21       1.0  0.19541000000000006  0.63844  0.3995900000000001  1.0000
  H   H22       1.0  0.13064  0.50137  0.941  1.0000
  H   H23       1.0  0.30113  0.77727  0.32298000000000004  1.0000
  H   H24       1.0  0.20937000000000006  0.77127  0.3622200000000001  1.0000
  H   H25       1.0  0.4407  0.69983  0.347  1.0000
  H   H26       1.0  0.53643  0.61046  0.41993  1.0000
  H   H27       1.0  0.55993  0.71292  0.95491  1.0000
  H   H28       1.0  0.16966000000000006  0.41799  0.46861  1.0000
  H   H29       1.0  0.23287000000000005  0.6763  0.79793  1.0000
  H   H30       1.0  0.20410000000000006  0.26097  0.39982  1.0000
  H   H31       1.0  0.81013  0.93925  0.94048  1.0000
  H   H32       1.0  0.021420000000000012  0.04530999999999998  0.32258  1.0000
  H   H33       1.0  0.15264000000000005  0.09069000000000003  0.3624800000000001  1.0000
  H   H34       1.0  0.9060100000000002  0.14678  0.34689  1.0000
  H   H35       1.0  0.8833100000000003  0.30892  0.41969  1.0000
  H   H36       1.0  0.39292  0.74137  0.95394  1.0000
  H   H37       1.0  0.79893  0.91824  0.4680800000000001  1.0000
  H   H38       1.0  0.06546000000000016  0.17733000000000015  0.7995300000000002  1.0000
  H   H39       1.0  0.6957500000000001  0.76122  0.39967000000000014  1.0000
  H   H40       1.0  0.6307000000000001  0.4397300000000001  0.9410600000000002  1.0000
  H   H41       1.0  0.8015499999999999  0.54583  0.32319  1.0000
  H   H42       1.0  0.70998  0.59118  0.36267  1.0000
  H   H43       1.0  0.9410900000000001  0.64715  0.34706  1.0000
  H   H44       1.0  0.03656000000000002  0.8092400000000001  0.41958000000000006  1.0000
  H   H45       1.0  0.06000000000000002  0.24205  0.95464  1.0000
  H   H46       1.0  0.66967  0.05052  0.46856  1.0000
  H   H47       1.0  0.7330200000000001  0.12192000000000003  0.79792  1.0000
  H   H48       1.0  0.70377  0.13866  0.3995  1.0000
  H   H49       1.0  0.31009  0.0012600000000000029  0.94017  1.0000
  H   H50       1.0  0.5204600000000001  0.27672000000000013  0.3217700000000001  1.0000
  H   H51       1.0  0.6519600000000002  0.27176  0.3622  1.0000
  H   H52       1.0  0.40549  0.19983  0.34656  1.0000
  H   H53       1.0  0.38319  0.11075000000000003  0.41978  1.0000
  H   H54       1.0  0.89304  0.21314  0.95392  1.0000
  H   H55       1.0  0.20107  0.08175999999999994  0.53192  1.0000
  H   H56       1.0  0.93454  0.82268  0.20047  1.0000
  H   H57       1.0  0.30425000000000013  0.23877999999999994  0.60033  1.0000
  H   H58       1.0  0.3693  0.56027  0.05894  1.0000
  H   H59       1.0  0.19845000000000004  0.4541799999999999  0.67681  1.0000
  H   H60       1.0  0.29002  0.40883  0.63734  1.0000
  H   H61       1.0  0.05890000000000001  0.35286  0.65295  1.0000
  H   H62       1.0  0.96344  0.19076000000000004  0.58042  1.0000
  H   H63       1.0  0.94  0.75796  0.04536  1.0000
  H   H64       1.0  0.33033  0.94949  0.53144  1.0000
  H   H65       1.0  0.26698  0.8780900000000001  0.20208  1.0000
  H   H66       1.0  0.29623  0.86134  0.60051  1.0000
  H   H67       1.0  0.68991  0.99875  0.059840000000000004  1.0000
  H   H68       1.0  0.47953000000000007  0.72328  0.6782300000000001  1.0000
  H   H69       1.0  0.3480400000000002  0.7282400000000001  0.6378000000000001  1.0000
  H   H70       1.0  0.59451  0.80018  0.65344  1.0000
  H   H71       1.0  0.61681  0.88925  0.58023  1.0000
  H   H72       1.0  0.10696  0.78686  0.04609  1.0000
  C   C1        1.0  0.80629  0.37339  0.854  1.0000
  C   C2        1.0  0.58966  0.45968  0.37883  1.0000
  C   C3        1.0  0.67237  0.4164300000000001  0.55962  1.0000
  C   C4        1.0  0.50677  0.36515  0.19943  1.0000
  C   C5        1.0  0.5965200000000003  0.40157  0.28738  1.0000
  C   C6        1.0  0.7295000000000003  0.36625  0.59757  1.0000
  C   C7        1.0  0.92498  0.49938  0.03346  1.0000
  C   C8        1.0  0.9271  0.37379  0.80068  1.0000
  C   C9        1.0  0.9036500000000001  0.44189000000000006  0.9380600000000001  1.0000
  C   C10       1.0  0.74981  0.26986  0.67641  1.0000
  C   C11       1.0  0.59277  0.33118  0.62576  1.0000
  C   C12       1.0  0.68958  0.32254  0.6316  1.0000
  C   C13       1.0  0.023810000000000015  0.55763  0.09411  1.0000
  C   C14       1.0  0.5394100000000001  0.38192000000000004  0.5864800000000001  1.0000
  C   C15       1.0  0.51024  0.31451000000000007  0.11273000000000002  1.0000
  C   C16       1.0  0.04784999999999996  0.9808599999999998  0.85434  1.0000
  C   C17       1.0  0.78896  0.41935000000000006  0.3795500000000001  1.0000
  C   C18       1.0  0.88718  0.64349  0.55932  1.0000
  C   C19       1.0  0.69367  0.33512  0.20042  1.0000
  C   C20       1.0  0.69096  0.38635  0.28784  1.0000
  C   C21       1.0  0.8681100000000003  0.73157  0.59729  1.0000
  C   C22       1.0  0.10859999999999999  0.03434  0.03379  1.0000
  C   C23       1.0  0.87355  0.9265899999999999  0.80027  1.0000
  C   C24       1.0  0.03443000000000006  0.9962099999999999  0.9382200000000002  1.0000
  C   C25       1.0  0.92684  0.9067899999999999  0.67648  1.0000
  C   C26       1.0  0.03312999999999997  0.79495  0.62569  1.0000
  C   C27       1.0  0.9421800000000001  0.8093699999999998  0.63156  1.0000
  C   C28       1.0  0.07040000000000005  0.036730000000000006  0.09436000000000001  1.0000
  C   C29       1.0  0.04714000000000004  0.70496  0.5864700000000002  1.0000
  C   C30       1.0  0.60386  0.29891  0.11325  1.0000
  C   C31       1.0  0.19370000000000007  0.62662  0.14601  1.0000
  C   C32       1.0  0.4103400000000001  0.54033  0.62117  1.0000
  C   C33       1.0  0.32763  0.58357  0.4403800000000001  1.0000
  C   C34       1.0  0.49323000000000017  0.6348500000000001  0.8005800000000002  1.0000
  C   C35       1.0  0.40348000000000006  0.59844  0.71262  1.0000
  C   C36       1.0  0.2705  0.63375  0.40243  1.0000
  C   C37       1.0  0.07501000000000001  0.50063  0.96654  1.0000
  C   C38       1.0  0.07289000000000004  0.62621  0.19933000000000006  1.0000
  C   C39       1.0  0.09634000000000002  0.55812  0.06195000000000001  1.0000
  C   C40       1.0  0.25019  0.73014  0.3236  1.0000
  C   C41       1.0  0.4072300000000001  0.66883  0.37425  1.0000
  C   C42       1.0  0.31042  0.6774600000000001  0.3684100000000001  1.0000
  C   C43       1.0  0.97618  0.4423700000000001  0.9059000000000003  1.0000
  C   C44       1.0  0.46059  0.61808  0.41352  1.0000
  C   C45       1.0  0.48976  0.68549  0.88727  1.0000
  C   C46       1.0  0.95214  0.019139999999999994  0.14566  1.0000
  C   C47       1.0  0.21104000000000014  0.58066  0.6204500000000002  1.0000
  C   C48       1.0  0.11282  0.35651  0.44068  1.0000
  C   C49       1.0  0.30633000000000005  0.6648800000000001  0.7995800000000001  1.0000
  C   C50       1.0  0.3090300000000001  0.61365  0.71217  1.0000
  C   C51       1.0  0.13189  0.26843  0.40271  1.0000
  C   C52       1.0  0.8914000000000004  0.9656599999999999  0.9662100000000002  1.0000
  C   C53       1.0  0.12645  0.07342  0.19973  1.0000
  C   C54       1.0  0.9655600000000001  0.0037900000000000017  0.06179  1.0000
  C   C55       1.0  0.07315000000000005  0.09321  0.32353  1.0000
  C   C56       1.0  0.9668699999999999  0.20506  0.37431  1.0000
  C   C57       1.0  0.05782000000000001  0.19063  0.36845  1.0000
  C   C58       1.0  0.9296000000000002  0.9632699999999998  0.90565  1.0000
  C   C59       1.0  0.95286  0.29505000000000003  0.4135300000000001  1.0000
  C   C60       1.0  0.39613  0.70109  0.88675  1.0000
  C   C61       1.0  0.6938400000000002  0.51957  0.14614  1.0000
  C   C62       1.0  0.91014  0.08062000000000012  0.6208100000000001  1.0000
  C   C63       1.0  0.8278300000000001  0.85674  0.4402900000000001  1.0000
  C   C64       1.0  0.9932100000000001  0.16556999999999994  0.80029  1.0000
  C   C65       1.0  0.9034800000000003  0.11391000000000011  0.7123600000000002  1.0000
  C   C66       1.0  0.7708200000000001  0.7687100000000001  0.4024900000000001  1.0000
  C   C67       1.0  0.5750500000000001  0.4659900000000002  0.9665900000000002  1.0000
  C   C68       1.0  0.57312  0.57343  0.19951000000000002  1.0000
  C   C69       1.0  0.59646  0.50405  0.06206  1.0000
  C   C70       1.0  0.75058  0.59362  0.32385  1.0000
  C   C71       1.0  0.9075700000000001  0.70539  0.37427  1.0000
  C   C72       1.0  0.81078  0.69098  0.36849  1.0000
  C   C73       1.0  0.47608  0.46333  0.90579  1.0000
  C   C74       1.0  0.9608  0.79532  0.4133600000000001  1.0000
  C   C75       1.0  0.9898400000000002  0.20169000000000015  0.8870400000000003  1.0000
  C   C76       1.0  0.45186999999999994  0.1261  0.14563  1.0000
  C   C77       1.0  0.7110900000000002  0.03973999999999998  0.62054  1.0000
  C   C78       1.0  0.61276  0.08413000000000001  0.44068  1.0000
  C   C79       1.0  0.80652  0.13466000000000006  0.7995700000000001  1.0000
  C   C80       1.0  0.8091900000000002  0.09825000000000009  0.71211  1.0000
  C   C81       1.0  0.63164  0.13414  0.40254  1.0000
  C   C82       1.0  0.39138  0.0005400000000000391  0.96611  1.0000
  C   C83       1.0  0.6263300000000003  0.12629  0.19973  1.0000
  C   C84       1.0  0.46541  0.05784000000000001  0.06174000000000001  1.0000
  C   C85       1.0  0.57261  0.23012000000000002  0.3232300000000001  1.0000
  C   C86       1.0  0.46651000000000004  0.16912  0.37415  1.0000
  C   C87       1.0  0.5574700000000001  0.17774000000000006  0.3683400000000001  1.0000
  C   C88       1.0  0.4297  0.9424699999999999  0.90561  1.0000
  C   C89       1.0  0.4527200000000001  0.11849  0.41359  1.0000
  C   C90       1.0  0.8963000000000001  0.1857700000000001  0.8866900000000002  1.0000
  C   C91       1.0  0.3061600000000001  0.4804300000000001  0.85386  1.0000
  C   C92       1.0  0.08986000000000002  0.91938  0.37919  1.0000
  C   C93       1.0  0.1721700000000001  0.14326  0.55971  1.0000
  C   C94       1.0  0.0067900000000000035  0.83444  0.19972000000000004  1.0000
  C   C95       1.0  0.09652000000000005  0.88609  0.28764  1.0000
  C   C96       1.0  0.2291800000000001  0.23129000000000002  0.5975200000000002  1.0000
  C   C97       1.0  0.4249500000000001  0.53402  0.03341  1.0000
  C   C98       1.0  0.42688  0.42657  0.80049  1.0000
  C   C99       1.0  0.40354  0.49595  0.93795  1.0000
  C   C100      1.0  0.24941000000000005  0.40638  0.67616  1.0000
  C   C101      1.0  0.0924300000000001  0.29461000000000004  0.6257300000000001  1.0000
  C   C102      1.0  0.18922000000000005  0.3090200000000001  0.6315200000000001  1.0000
  C   C103      1.0  0.52391  0.53668  0.09421000000000002  1.0000
  C   C104      1.0  0.03920000000000001  0.20468000000000003  0.5866500000000001  1.0000
  C   C105      1.0  0.010150000000000013  0.79832  0.11296000000000003  1.0000
  C   C106      1.0  0.54813  0.87391  0.85437  1.0000
  C   C107      1.0  0.2889100000000002  0.96027  0.3794700000000001  1.0000
  C   C108      1.0  0.38724  0.91588  0.55933  1.0000
  C   C109      1.0  0.19347  0.8653400000000001  0.20043  1.0000
  C   C110      1.0  0.19081  0.90175  0.2879  1.0000
  C   C111      1.0  0.3683600000000001  0.86586  0.59747  1.0000
  C   C112      1.0  0.60862  0.9994599999999999  0.03389  1.0000
  C   C113      1.0  0.37367000000000006  0.87372  0.80028  1.0000
  C   C114      1.0  0.53459  0.94216  0.93826  1.0000
  C   C115      1.0  0.4273900000000001  0.76989  0.67677  1.0000
  C   C116      1.0  0.53349  0.83089  0.62585  1.0000
  C   C117      1.0  0.4425300000000002  0.8222600000000001  0.6316600000000002  1.0000
  C   C118      1.0  0.5703  0.05754  0.09439  1.0000
  C   C119      1.0  0.54728  0.8815099999999999  0.58642  1.0000
  C   C120      1.0  0.1037  0.81424  0.11331  1.0000
  N   N1        1.0  0.827  0.3346000000000001  0.7754000000000002  1.0000
  N   N2        1.0  0.5785000000000002  0.42414  0.55402  1.0000
  N   N3        1.0  0.94856  0.9407900000000001  0.7754000000000002  1.0000
  N   N4        1.0  0.9754900000000001  0.63021  0.55381  1.0000
  N   N5        1.0  0.17299  0.6654  0.2246  1.0000
  N   N6        1.0  0.42150000000000015  0.57586  0.4459900000000001  1.0000
  N   N7        1.0  0.051440000000000013  0.05921  0.2246  1.0000
  N   N8        1.0  0.024509999999999987  0.3698  0.44619  1.0000
  N   N9        1.0  0.67325  0.55943  0.22482000000000005  1.0000
  N   N10       1.0  0.92172  0.87002  0.44594  1.0000
  N   N11       1.0  0.55118  0.16513000000000003  0.22449000000000002  1.0000
  N   N12       1.0  0.52451  0.07642000000000002  0.44628  1.0000
  N   N13       1.0  0.32675  0.44057  0.77518  1.0000
  N   N14       1.0  0.07828000000000003  0.12998  0.55406  1.0000
  N   N15       1.0  0.4488200000000001  0.83488  0.77552  1.0000
  N   N16       1.0  0.47549  0.92359  0.55373  1.0000
  O   O1        1.0  0.5124499999999999  0.42485  0.38094  1.0000
  O   O2        1.0  0.72391  0.3542000000000001  0.8506800000000002  1.0000
  O   O3        1.0  0.6530200000000003  0.53611  0.44435  1.0000
  O   O4        1.0  0.9627399999999999  0.35439  0.7449  1.0000
  O   O5        1.0  0.86857  0.4560100000000001  0.38181  1.0000
  O   O6        1.0  0.12708000000000003  0.99708  0.85143  1.0000
  O   O7        1.0  0.7908  0.40822  0.44482  1.0000
  O   O8        1.0  0.7821800000000001  0.88991  0.7440000000000001  1.0000
  O   O9        1.0  0.48754000000000025  0.5751600000000001  0.6190600000000003  1.0000
  O   O10       1.0  0.27609  0.64581  0.14932  1.0000
  O   O11       1.0  0.34698  0.46388999999999997  0.55565  1.0000
  O   O12       1.0  0.03726  0.64561  0.25511  1.0000
  O   O13       1.0  0.13143  0.54399  0.61819  1.0000
  O   O14       1.0  0.8729100000000002  0.0029200000000000254  0.14857000000000004  1.0000
  O   O15       1.0  0.20919  0.59178  0.55518  1.0000
  O   O16       1.0  0.21782  0.11010000000000002  0.256  1.0000
  O   O17       1.0  0.98772  0.04414000000000002  0.61896  1.0000
  O   O18       1.0  0.7762300000000001  0.50365  0.14935  1.0000
  O   O19       1.0  0.84635  0.09111000000000004  0.55504  1.0000
  O   O20       1.0  0.53756  0.61009  0.25535  1.0000
  O   O21       1.0  0.6315700000000001  0.07436000000000016  0.6184100000000002  1.0000
  O   O22       1.0  0.37263  0.145  0.14872  1.0000
  O   O23       1.0  0.7091  0.9633199999999998  0.55525  1.0000
  O   O24       1.0  0.71779  0.14623  0.25602  1.0000
  O   O25       1.0  0.012270000000000008  0.9558700000000001  0.38104  1.0000
  O   O26       1.0  0.22375999999999996  0.49636  0.85065  1.0000
  O   O27       1.0  0.15365  0.9088900000000002  0.44496000000000013  1.0000
  O   O28       1.0  0.46244000000000013  0.38992000000000004  0.7446600000000002  1.0000
  O   O29       1.0  0.36843000000000004  0.92565  0.38160000000000005  1.0000
  O   O30       1.0  0.62737  0.855  0.85128  1.0000
  O   O31       1.0  0.2909  0.03667999999999998  0.44475  1.0000
  O   O32       1.0  0.28221000000000007  0.8537700000000001  0.7439800000000002  1.0000
