data_image0
_chemical_formula_structural       Ni4H112C164N24O16
_chemical_formula_sum              "Ni4 H112 C164 N24 O16"
_cell_length_a       8.78884
_cell_length_b       16.18549
_cell_length_c       31.3582
_cell_angle_alpha    90.0185
_cell_angle_beta     90.01207
_cell_angle_gamma    92.43657

_space_group_name_H-M_alt    "P 1"
_space_group_IT_number       1

loop_
  _space_group_symop_operation_xyz
  'x, y, z'

loop_
  _atom_site_type_symbol
  _atom_site_label
  _atom_site_symmetry_multiplicity
  _atom_site_fract_x
  _atom_site_fract_y
  _atom_site_fract_z
  _atom_site_occupancy
  Ni  Ni1       1.0  0.3224899999999999  0.01868  0.33439  1.0000
  Ni  Ni2       1.0  0.8225499999999997  0.51868  0.16563  1.0000
  Ni  Ni3       1.0  0.67751  0.98131  0.66561  1.0000
  Ni  Ni4       1.0  0.17745999999999998  0.48132  0.8343699999999997  1.0000
  H   H1        1.0  0.47509999999999997  0.21288  0.4642199999999999  1.0000
  H   H2        1.0  0.02621  0.61842  0.44165  1.0000
  H   H3        1.0  0.29958  0.92804  0.86914  1.0000
  H   H4        1.0  0.69818  0.0005400000000000002  0.34326  1.0000
  H   H5        1.0  0.85378  0.09868  0.05681  1.0000
  H   H6        1.0  0.51311  0.9540900000000002  0.20312  1.0000
  H   H7        1.0  0.5322  0.76494  0.29833  1.0000
  H   H8        1.0  0.08572  0.87684  0.18025999999999995  1.0000
  H   H9        1.0  0.63113  0.37462  0.88572  1.0000
  H   H10       1.0  0.04981  0.02801  0.65535  1.0000
  H   H11       1.0  0.8336699999999999  0.53387  0.44897  1.0000
  H   H12       1.0  0.41348  0.62298  0.6801499999999998  1.0000
  H   H13       1.0  0.28799  0.15685  0.9298  1.0000
  H   H14       1.0  0.23347  0.036600000000000014  0.72818  1.0000
  H   H15       1.0  0.5248999999999999  0.78712  0.53578  1.0000
  H   H16       1.0  0.0012199999999999982  0.87513  0.10432  1.0000
  H   H17       1.0  0.05798999999999999  0.00638  0.53733  1.0000
  H   H18       1.0  0.9738  0.38157  0.55835  1.0000
  H   H19       1.0  0.21165999999999993  0.23600000000000004  0.46695  1.0000
  H   H20       1.0  0.48989999999999995  0.6582  0.49387  1.0000
  H   H21       1.0  0.25739  0.64318  0.88604  1.0000
  H   H22       1.0  0.13128  0.74507  0.40805  1.0000
  H   H23       1.0  0.86879  0.12524  0.38567  1.0000
  H   H24       1.0  0.99878  0.12486000000000001  0.89568  1.0000
  H   H25       1.0  0.5481499999999999  0.52787  0.84456  1.0000
  H   H26       1.0  0.26775  0.46404  0.22826  1.0000
  H   H27       1.0  0.36888  0.62538  0.11427999999999998  1.0000
  H   H28       1.0  0.08213  0.59555  0.56532  1.0000
  H   H29       1.0  0.2884199999999999  0.26394  0.96696  1.0000
  H   H30       1.0  0.48688999999999993  0.04590000000000002  0.7968799999999998  1.0000
  H   H31       1.0  0.9854699999999998  0.54558  0.70322  1.0000
  H   H32       1.0  0.80167  0.49934  0.84334  1.0000
  H   H33       1.0  0.12198  0.72232  0.60879  1.0000
  H   H34       1.0  0.71303  0.42596  0.70675  1.0000
  H   H35       1.0  0.86873  0.25492  0.5919499999999999  1.0000
  H   H36       1.0  0.64634  0.40139  0.5568199999999998  1.0000
  H   H37       1.0  0.87803  0.2776700000000001  0.39121  1.0000
  H   H38       1.0  0.75728  0.14310000000000006  0.6138499999999998  1.0000
  H   H39       1.0  0.37814  0.77773  0.10875  1.0000
  H   H40       1.0  0.010019999999999987  0.84185  0.99386  1.0000
  H   H41       1.0  0.45185  0.4721200000000001  0.15544  1.0000
  H   H42       1.0  0.6314299999999999  0.24513  0.09198  1.0000
  H   H43       1.0  0.23095  0.9905000000000002  0.23622  1.0000
  H   H44       1.0  0.35367  0.59861  0.44318  1.0000
  H   H45       1.0  0.78612  0.07391  0.2068  1.0000
  H   H46       1.0  0.6350500000000001  0.6679100000000002  0.24341  1.0000
  H   H47       1.0  0.44234  0.49366  0.03738  1.0000
  H   H48       1.0  0.21387999999999993  0.92608  0.7931999999999998  1.0000
  H   H49       1.0  0.70043  0.07196  0.13086  1.0000
  H   H50       1.0  0.55767  0.50633  0.96262  1.0000
  H   H51       1.0  0.03268999999999999  0.2650700000000001  0.20155  1.0000
  H   H52       1.0  0.11799999999999998  0.10028  0.40991  1.0000
  H   H53       1.0  0.91429  0.12315  0.81974  1.0000
  H   H54       1.0  0.014530000000000005  0.45441  0.29678  1.0000
  H   H55       1.0  0.47370999999999996  0.8815500000000002  0.9416299999999997  1.0000
  H   H56       1.0  0.20029  0.57175  0.36908  1.0000
  H   H57       1.0  0.5865199999999998  0.37701  0.31985  1.0000
  H   H58       1.0  0.38169  0.39971  0.9097299999999998  1.0000
  H   H59       1.0  0.4678  0.23506  0.7016699999999998  1.0000
  H   H60       1.0  0.50106  0.37496  0.3956999999999999  1.0000
  H   H61       1.0  0.86616  0.83225  0.74349  1.0000
  H   H62       1.0  0.79972  0.42825  0.63092  1.0000
  H   H63       1.0  0.58211  0.09553  0.93467  1.0000
  H   H64       1.0  0.78834  0.76399  0.53305  1.0000
  H   H65       1.0  0.7321899999999999  0.49042  0.264  1.0000
  H   H66       1.0  0.91788  0.40444  0.43467  1.0000
  H   H67       1.0  0.16633999999999996  0.4661200000000001  0.55103  1.0000
  H   H68       1.0  0.13384  0.16774  0.25651  1.0000
  H   H69       1.0  0.60718  0.8556  0.14799  1.0000
  H   H70       1.0  0.02496  0.28707  0.96431  1.0000
  H   H71       1.0  0.61831  0.60028  0.09027  1.0000
  H   H72       1.0  0.71202  0.8431400000000002  0.0702  1.0000
  H   H73       1.0  0.41789  0.90446  0.06533  1.0000
  H   H74       1.0  0.7426099999999998  0.35682  0.11396  1.0000
  H   H75       1.0  0.19833  0.50066  0.15666  1.0000
  H   H76       1.0  0.7880299999999998  0.65694  0.57024  1.0000
  H   H77       1.0  0.60462  0.8317  0.60527  1.0000
  H   H78       1.0  0.8820099999999998  0.89971  0.59009  1.0000
  H   H79       1.0  0.39282  0.14439  0.85201  1.0000
  H   H80       1.0  0.13122  0.87475  0.61433  1.0000
  H   H81       1.0  0.28697  0.57403  0.2932499999999999  1.0000
  H   H82       1.0  0.26782  0.50957  0.7359999999999998  1.0000
  H   H83       1.0  0.10535  0.10956  0.4996599999999999  1.0000
  H   H84       1.0  0.76906  0.0095  0.76378  1.0000
  H   H85       1.0  0.3948  0.39043  0.9996999999999999  1.0000
  H   H86       1.0  0.33369999999999994  0.03393000000000001  0.05105  1.0000
  H   H87       1.0  0.36858  0.75487  0.90801  1.0000
  H   H88       1.0  0.9420199999999999  0.99361  0.46267  1.0000
  H   H89       1.0  0.24272999999999997  0.85689  0.38614  1.0000
  H   H90       1.0  0.10669  0.35559  0.35201  1.0000
  H   H91       1.0  0.6663  0.9660700000000002  0.9489499999999997  1.0000
  H   H92       1.0  0.76654  0.96339  0.27182  1.0000
  H   H93       1.0  0.30183000000000004  0.9994600000000001  0.65674  1.0000
  H   H94       1.0  0.21198  0.34305  0.42976  1.0000
  H   H95       1.0  0.89332  0.6444000000000002  0.64799  1.0000
  H   H96       1.0  0.49895  0.62503  0.6043  1.0000
  H   H97       1.0  0.10456  0.33175  0.89488  1.0000
  H   H98       1.0  0.73225  0.53595  0.77174  1.0000
  H   H99       1.0  0.39539  0.16829  0.39473  1.0000
  H   H100      1.0  0.89544  0.66824  0.10512  1.0000
  H   H101      1.0  0.62187  0.22226  0.89125  1.0000
  H   H102      1.0  0.9750499999999999  0.71292  0.03569  1.0000
  H   H103      1.0  0.52629  0.11844  0.058369999999999984  1.0000
  H   H104      1.0  0.14622999999999994  0.90132  0.9431899999999998  1.0000
  H   H105      1.0  0.95019  0.97199  0.34465  1.0000
  H   H106      1.0  0.9899899999999999  0.15815  0.00614  1.0000
  H   H107      1.0  0.89465  0.8904400000000002  0.50034  1.0000
  H   H108      1.0  0.6052  0.60956  0.0003  1.0000
  H   H109      1.0  0.71158  0.73605  0.03304  1.0000
  H   H110      1.0  0.51011  0.3418  0.50613  1.0000
  H   H111      1.0  0.9673099999999999  0.7349200000000002  0.79845  1.0000
  H   H112      1.0  0.36496  0.33209  0.75659  1.0000
  C   C1        1.0  0.70845  0.52949  0.56768  1.0000
  C   C2        1.0  0.92244  0.8311700000000002  0.48681  1.0000
  C   C3        1.0  0.19433  0.9579100000000003  0.95738  1.0000
  C   C4        1.0  0.51827  0.32717  0.0488  1.0000
  C   C5        1.0  0.46120000000000005  0.92514  0.28591  1.0000
  C   C6        1.0  0.10528  0.23043  0.26484  1.0000
  C   C7        1.0  0.39279000000000003  0.18066000000000004  0.011269999999999997  1.0000
  C   C8        1.0  0.17692  0.39582  0.49261  1.0000
  C   C9        1.0  0.5922699999999999  0.32775  0.48149  1.0000
  C   C10       1.0  0.48251999999999995  0.47445  0.18881  1.0000
  C   C11       1.0  0.07756  0.16882  0.5131899999999999  1.0000
  C   C12       1.0  0.51749  0.52554  0.8111799999999998  1.0000
  C   C13       1.0  0.5774500000000001  0.66883  0.98677  1.0000
  C   C14       1.0  0.33318999999999993  0.531  0.3160199999999999  1.0000
  C   C15       1.0  0.4099  0.16376  0.8190999999999998  1.0000
  C   C16       1.0  0.4294799999999999  0.74414  0.54244  1.0000
  C   C17       1.0  0.44114  0.47564  0.30254  1.0000
  C   C18       1.0  0.53881  0.07485000000000003  0.71409  1.0000
  C   C19       1.0  0.6964499999999998  0.96791  0.98256  1.0000
  C   C20       1.0  0.66215  0.05374  0.36074  1.0000
  C   C21       1.0  0.8325  0.03089  0.18404  1.0000
  C   C22       1.0  0.6167699999999999  0.53338  0.08605  1.0000
  C   C23       1.0  0.82308  0.60417  0.50738  1.0000
  C   C24       1.0  0.0068000000000000005  0.32205  0.54612  1.0000
  C   C25       1.0  0.78327  0.11691  0.9734899999999997  1.0000
  C   C26       1.0  0.82802  0.26154  0.92467  1.0000
  C   C27       1.0  0.81866  0.36367  0.44071  1.0000
  C   C28       1.0  0.5380399999999997  0.89088  0.21141  1.0000
  C   C29       1.0  0.88838  0.9706000000000002  0.27611  1.0000
  C   C30       1.0  0.96122  0.60893  0.7114899999999997  1.0000
  C   C31       1.0  0.49326  0.17795  0.04615  1.0000
  C   C32       1.0  0.65601  0.5272600000000002  0.61259  1.0000
  C   C33       1.0  0.46196  0.10912  0.7885899999999999  1.0000
  C   C34       1.0  0.2856899999999999  0.5295  0.3584199999999999  1.0000
  C   C35       1.0  0.99987  0.63706  0.11191  1.0000
  C   C36       1.0  0.51777  0.86554  0.25392  1.0000
  C   C37       1.0  0.7855  0.029560000000000006  0.14158  1.0000
  C   C38       1.0  0.53218  0.48153  0.05973  1.0000
  C   C39       1.0  0.672  0.23844  0.42462  1.0000
  C   C40       1.0  0.86857  0.017580000000000005  0.74376  1.0000
  C   C41       1.0  0.05032  0.28436  0.23446999999999996  1.0000
  C   C42       1.0  0.45001  0.21569  0.73456  1.0000
  C   C43       1.0  0.20832  0.029410000000000006  0.93234  1.0000
  C   C44       1.0  0.69446  0.4579600000000001  0.54263  1.0000
  C   C45       1.0  0.24751999999999996  0.61429  0.11831999999999997  1.0000
  C   C46       1.0  0.60534  0.73043  0.23508  1.0000
  C   C47       1.0  0.72697  0.89769  0.04999  1.0000
  C   C48       1.0  0.6668199999999999  0.46899000000000013  0.68398  1.0000
  C   C49       1.0  0.12581  0.25582  0.30738  1.0000
  C   C50       1.0  0.8132199999999998  0.80345  0.66021  1.0000
  C   C51       1.0  0.16224999999999998  0.55386  0.13922  1.0000
  C   C52       1.0  0.046509999999999996  0.08165  0.87326  1.0000
  C   C53       1.0  0.31409  0.59197  0.9003  1.0000
  C   C54       1.0  0.40773999999999994  0.6722400000000002  0.51851  1.0000
  C   C55       1.0  0.49983  0.13707  0.3880099999999999  1.0000
  C   C56       1.0  0.0598  0.02458  0.80243  1.0000
  C   C57       1.0  0.18679  0.19654  0.33979  1.0000
  C   C58       1.0  0.4448299999999999  0.7502400000000002  0.93512  1.0000
  C   C59       1.0  0.50674  0.8220400000000002  0.9538499999999998  1.0000
  C   C60       1.0  0.3946699999999999  0.26957  0.7649099999999998  1.0000
  C   C61       1.0  0.11163  0.02939  0.72389  1.0000
  C   C62       1.0  0.98129  0.97412  0.31131  1.0000
  C   C63       1.0  0.0021699999999999988  0.9196  0.16907  1.0000
  C   C64       1.0  0.031920000000000004  0.98151  0.44033  1.0000
  C   C65       1.0  0.17198  0.73846  0.07532999999999997  1.0000
  C   C66       1.0  0.039200000000000006  0.5750400000000002  0.7859099999999998  1.0000
  C   C67       1.0  0.46783  0.51847  0.94027  1.0000
  C   C68       1.0  0.70241  0.20793  0.91634  1.0000
  C   C69       1.0  0.7395599999999997  0.45848  0.49968  1.0000
  C   C70       1.0  0.89473  0.76956  0.73516  1.0000
  C   C71       1.0  0.25256  0.88578  0.61837  1.0000
  C   C72       1.0  0.84397  0.97282  0.11259  1.0000
  C   C73       1.0  0.57053  0.25586  0.45756  1.0000
  C   C74       1.0  0.89277  0.6806700000000001  0.48875999999999986  1.0000
  C   C75       1.0  0.3832399999999999  0.46661  0.91395  1.0000
  C   C76       1.0  0.63873  0.74108  0.0051899999999999984  1.0000
  C   C77       1.0  0.018139999999999986  0.82717  0.45124  1.0000
  C   C78       1.0  0.01791  0.3655200000000001  0.24603  1.0000
  C   C79       1.0  0.26045  0.54151  0.50032  1.0000
  C   C80       1.0  0.00013000000000000105  0.36294  0.88809  1.0000
  C   C81       1.0  0.7605199999999998  0.041520000000000015  0.99967  1.0000
  C   C82       1.0  0.62594  0.75583  0.19256  1.0000
  C   C83       1.0  0.23949  0.95848  0.00033  1.0000
  C   C84       1.0  0.80358  0.5320700000000003  0.48259  1.0000
  C   C85       1.0  0.27303  0.1023  0.95001  1.0000
  C   C86       1.0  0.7143099999999999  0.47049  0.64158  1.0000
  C   C87       1.0  0.1858  0.90805  0.40038  1.0000
  C   C88       1.0  0.79759  0.29204  0.41631  1.0000
  C   C89       1.0  0.61042  0.5289500000000003  0.776  1.0000
  C   C90       1.0  0.48173  0.67282  0.9512  1.0000
  C   C91       1.0  0.9402  0.9754200000000002  0.19757  1.0000
  C   C92       1.0  0.68753  0.6967  0.16016  1.0000
  C   C93       1.0  0.55518  0.24974999999999997  0.06488  1.0000
  C   C94       1.0  0.9821  0.63447  0.75397  1.0000
  C   C95       1.0  0.9496899999999999  0.71564  0.76552  1.0000
  C   C96       1.0  0.42256  0.33117  0.01323  1.0000
  C   C97       1.0  0.50286  0.41973  0.33103  1.0000
  C   C98       1.0  0.20242  0.70795  0.58369  1.0000
  C   C99       1.0  0.32305  0.10414  0.99264  1.0000
  C   C100      1.0  0.54634  0.58169  0.6267  1.0000
  C   C101      1.0  0.33786  0.94625  0.6392599999999998  1.0000
  C   C102      1.0  0.55887  0.52435  0.69745  1.0000
  C   C103      1.0  0.60721  0.81933  0.9887299999999998  1.0000
  C   C104      1.0  0.03878  0.39106  0.2885099999999999  1.0000
  C   C105      1.0  0.36739  0.51738  0.7560299999999998  1.0000
  C   C106      1.0  0.5900999999999996  0.83623  0.1809  1.0000
  C   C107      1.0  0.68135  0.1363  0.94072  1.0000
  C   C108      1.0  0.15603  0.02717  0.8874099999999998  1.0000
  C   C109      1.0  0.74744  0.11421  0.38163  1.0000
  C   C110      1.0  0.90781  0.17221000000000003  0.9815  1.0000
  C   C111      1.0  0.10722999999999999  0.31933000000000006  0.51124  1.0000
  C   C112      1.0  0.21451  0.97043  0.85842  1.0000
  C   C113      1.0  0.05507  0.74973  0.43516  1.0000
  C   C114      1.0  0.09043999999999999  0.33635  0.3190399999999999  1.0000
  C   C115      1.0  0.63261  0.48262  0.24397  1.0000
  C   C116      1.0  0.16751  0.9691  0.81596  1.0000
  C   C117      1.0  0.9449399999999999  0.25026  0.5648399999999998  1.0000
  C   C118      1.0  0.2976  0.79206  0.08366  1.0000
  C   C119      1.0  0.95349  0.91834  0.12674  1.0000
  C   C120      1.0  0.3280100000000001  0.7615500000000002  0.57538  1.0000
  C   C121      1.0  0.99783  0.08039  0.8309299999999997  1.0000
  C   C122      1.0  0.2915499999999999  0.4705  0.43231999999999987  1.0000
  C   C123      1.0  0.30355  0.03208  0.01743  1.0000
  C   C124      1.0  0.2269  0.39762  0.44998  1.0000
  C   C125      1.0  0.38958  0.4710400000000001  0.224  1.0000
  C   C126      1.0  0.96808  0.018480000000000007  0.55967  1.0000
  C   C127      1.0  0.3124799999999999  0.30329  0.83984  1.0000
  C   C128      1.0  0.49714  0.58026  0.6689699999999997  1.0000
  C   C129      1.0  0.48224  0.13445  0.74607  1.0000
  C   C130      1.0  0.8377599999999997  0.44614  0.86078  1.0000
  C   C131      1.0  0.75248  0.3857000000000001  0.8816799999999998  1.0000
  C   C132      1.0  0.07049  0.75589  0.0424  1.0000
  C   C133      1.0  0.9818599999999998  0.17282  0.54876  1.0000
  C   C134      1.0  0.80568  0.04208  0.042619999999999984  1.0000
  C   C135      1.0  0.71678  0.38307  0.47349  1.0000
  C   C136      1.0  0.31865  0.86369  0.05928  1.0000
  C   C137      1.0  0.8612099999999999  0.75893  0.50522  1.0000
  C   C138      1.0  0.9932  0.67794  0.45388  1.0000
  C   C139      1.0  0.6859100000000001  0.4080200000000001  0.0997  1.0000
  C   C140      1.0  0.8742  0.74418  0.69262  1.0000
  C   C141      1.0  0.30555  0.54204  0.45737  1.0000
  C   C142      1.0  0.45366999999999996  0.41831  0.3733  1.0000
  C   C143      1.0  0.79169  0.97058  0.06766  1.0000
  C   C144      1.0  0.11651000000000002  0.03337  0.41405  1.0000
  C   C145      1.0  0.21674  0.88308  0.02651  1.0000
  C   C146      1.0  0.55  0.7843  0.26544  1.0000
  C   C147      1.0  0.19643000000000002  0.4679200000000001  0.51741  1.0000
  C   C148      1.0  0.18135  0.63632  0.55929  1.0000
  C   C149      1.0  0.37406  0.24417  0.80744  1.0000
  C   C150      1.0  0.9295199999999999  0.24411  0.9575999999999999  1.0000
  C   C151      1.0  0.90957  0.66365  0.68096  1.0000
  C   C152      1.0  0.36127  0.25891  0.9948099999999999  1.0000
  C   C153      1.0  0.018719999999999997  0.02588  0.6886899999999998  1.0000
  C   C154      1.0  0.50017  0.86293  0.61199  1.0000
  C   C155      1.0  0.28322  0.61692  0.52651  1.0000
  C   C156      1.0  0.9607999999999999  0.42496  0.21409  1.0000
  C   C157      1.0  0.13144  0.9824100000000002  0.25624  1.0000
  C   C158      1.0  0.67696  0.89585  0.0073599999999999985  1.0000
  C   C159      1.0  0.88349  0.96662  0.58595  1.0000
  C   C160      1.0  0.09220000000000003  0.8277900000000002  0.0185  1.0000
  C   C161      1.0  0.1388  0.24106  0.4947799999999999  1.0000
  C   C162      1.0  0.7731099999999997  0.60237  0.55002  1.0000
  C   C163      1.0  0.8142  0.09194  0.5996199999999998  1.0000
  C   C164      1.0  0.3439999999999999  0.47273  0.38741  1.0000
  N   N1        1.0  0.85735  0.33333  0.8994199999999998  1.0000
  N   N2        1.0  0.99069  0.43087  0.8647399999999997  1.0000
  N   N3        1.0  0.01466  0.02452  0.7588  1.0000
  N   N4        1.0  0.51352  0.52418  0.74106  1.0000
  N   N5        1.0  0.50926  0.06906000000000002  0.36469  1.0000
  N   N6        1.0  0.57677  0.40139  0.06836  1.0000
  N   N7        1.0  0.07661  0.90139  0.4317  1.0000
  N   N8        1.0  0.64264  0.16667  0.39934  1.0000
  N   N9        1.0  0.92339  0.09861  0.5683  1.0000
  N   N10       1.0  0.21079000000000003  0.98658  0.38925  1.0000
  N   N11       1.0  0.14265  0.66667  0.10058  1.0000
  N   N12       1.0  0.98535  0.97547  0.2412  1.0000
  N   N13       1.0  0.49075  0.93093  0.63531  1.0000
  N   N14       1.0  0.00932  0.56912  0.13526  1.0000
  N   N15       1.0  0.28909  0.51344  0.88915  1.0000
  N   N16       1.0  0.36692  0.51845  0.79839  1.0000
  N   N17       1.0  0.78922  0.01341  0.61075  1.0000
  N   N18       1.0  0.4864899999999999  0.47582000000000013  0.25894  1.0000
  N   N19       1.0  0.86806  0.01867  0.70141  1.0000
  N   N20       1.0  0.71091  0.48655  0.11085  1.0000
  N   N21       1.0  0.13194  0.98132  0.29859  1.0000
  N   N22       1.0  0.63309  0.48154  0.20161  1.0000
  N   N23       1.0  0.42323  0.59861  0.93164  1.0000
  N   N24       1.0  0.35737  0.8333300000000002  0.6006599999999997  1.0000
  O   O1        1.0  0.91718  0.39989  0.17707  1.0000
  O   O2        1.0  0.24920000000000003  0.13421  0.32308  1.0000
  O   O3        1.0  0.08283  0.6001  0.82293  1.0000
  O   O4        1.0  0.7508  0.86579  0.6769199999999997  1.0000
  O   O5        1.0  0.41693  0.89989  0.32283  1.0000
  O   O6        1.0  0.7498099999999999  0.63446  0.17693  1.0000
  O   O7        1.0  0.25019  0.36553000000000013  0.82307  1.0000
  O   O8        1.0  0.32611  0.2875200000000001  0.87927  1.0000
  O   O9        1.0  0.9531699999999999  0.50103  0.22468999999999995  1.0000
  O   O10       1.0  0.82674  0.78754  0.62077  1.0000
  O   O11       1.0  0.58308  0.1001  0.67717  1.0000
  O   O12       1.0  0.67389  0.71247  0.12073  1.0000
  O   O13       1.0  0.17326  0.21245  0.3792299999999999  1.0000
  O   O14       1.0  0.45442  0.0013500000000000005  0.27549  1.0000
  O   O15       1.0  0.54559  0.99864  0.7245099999999998  1.0000
  O   O16       1.0  0.04683999999999999  0.49896  0.77531  1.0000
