data_image0
_chemical_formula_structural       Co12H96C168S12O72
_chemical_formula_sum              "Co12 H96 C168 S12 O72"
_cell_length_a       16.52066
_cell_length_b       17.3465
_cell_length_c       20.27904
_cell_angle_alpha    90.08667
_cell_angle_beta     89.86903
_cell_angle_gamma    103.41623

_symmetry_space_group_name_H-M    'P 1'
_symmetry_Int_Tables_number       1

loop_
  _symmetry_equiv_pos_as_xyz
  'x,y,z'

loop_
  _atom_site_type_symbol
  _atom_site_label
  _atom_site_symmetry_multiplicity
  _atom_site_fract_x
  _atom_site_fract_y
  _atom_site_fract_z
  _atom_site_occupancy
  Co  Co1       1.0  0.03730999999999995  0.7556299999999998  0.83259  1.0000
  Co  Co2       1.0  0.13675  0.93878  0.86649  1.0000
  Co  Co3       1.0  0.91456  0.57219  0.8507900000000002  1.0000
  Co  Co4       1.0  0.46173  0.74356  0.33305  1.0000
  Co  Co5       1.0  0.3622299999999999  0.56066  0.3657  1.0000
  Co  Co6       1.0  0.5834  0.92531  0.34701  1.0000
  Co  Co7       1.0  0.96268  0.24436  0.16741  1.0000
  Co  Co8       1.0  0.8633099999999998  0.06110000000000001  0.13347  1.0000
  Co  Co9       1.0  0.08546999999999999  0.4278199999999999  0.14927999999999997  1.0000
  Co  Co10      1.0  0.53721  0.25568  0.6672  1.0000
  Co  Co11      1.0  0.6367899999999997  0.43872999999999995  0.63454  1.0000
  Co  Co12      1.0  0.41544  0.07334999999999998  0.6535299999999999  1.0000
  H   H1        1.0  0.018160000000000023  0.9536100000000001  0.068  1.0000
  H   H2        1.0  0.96754  0.8945899999999998  0.17734999999999998  1.0000
  H   H3        1.0  0.9675499999999998  0.66166  0.10281999999999998  1.0000
  H   H4        1.0  0.017260000000000015  0.72108  0.99272  1.0000
  H   H5        1.0  0.10315999999999997  0.83927  0.25456  1.0000
  H   H6        1.0  0.23970999999999995  0.81166  0.28692  1.0000
  H   H7        1.0  0.12962  0.56118  0.28243  1.0000
  H   H8        1.0  0.99371  0.5884  0.24823999999999996  1.0000
  H   H9        1.0  0.20773  0.70206  0.90808  1.0000
  H   H10       1.0  0.34783  0.6798  0.93943  1.0000
  H   H11       1.0  0.2306  0.43869  0.99322  1.0000
  H   H12       1.0  0.09268  0.46042  0.95705  1.0000
  H   H13       1.0  0.48578  0.6179  0.8734899999999999  1.0000
  H   H14       1.0  0.54145  0.5633  0.77527  1.0000
  H   H15       1.0  0.42283  0.32595  0.83576  1.0000
  H   H16       1.0  0.37144000000000005  0.38011  0.9381499999999999  1.0000
  H   H17       1.0  0.70073  0.62576  0.9277099999999999  1.0000
  H   H18       1.0  0.57736  0.67998  0.9511799999999999  1.0000
  H   H19       1.0  0.7115699999999999  0.9100399999999998  0.88335  1.0000
  H   H20       1.0  0.83823  0.85508  0.86356  1.0000
  H   H21       1.0  0.4661  0.73449  0.03632  1.0000
  H   H22       1.0  0.4653399999999999  0.75451  0.15883  1.0000
  H   H23       1.0  0.62707  0.98647  0.13571  1.0000
  H   H24       1.0  0.62356  0.96881  0.01338  1.0000
  H   H25       1.0  0.48268  0.5466  0.56652  1.0000
  H   H26       1.0  0.53236  0.60617  0.67589  1.0000
  H   H27       1.0  0.52992  0.83843  0.6016499999999999  1.0000
  H   H28       1.0  0.48046  0.77839  0.49176  1.0000
  H   H29       1.0  0.39613  0.65968  0.75373  1.0000
  H   H30       1.0  0.25922999999999996  0.68628  0.78655  1.0000
  H   H31       1.0  0.36792999999999976  0.9369099999999998  0.7838  1.0000
  H   H32       1.0  0.50441  0.91092  0.74907  1.0000
  H   H33       1.0  0.2885499999999999  0.7963899999999998  0.40819999999999995  1.0000
  H   H34       1.0  0.1487999999999999  0.8198499999999997  0.44  1.0000
  H   H35       1.0  0.26787  0.06109  0.49208999999999997  1.0000
  H   H36       1.0  0.40538  0.03817  0.45502  1.0000
  H   H37       1.0  0.012680000000000002  0.88139  0.37284  1.0000
  H   H38       1.0  0.95638  0.93537  0.27504  1.0000
  H   H39       1.0  0.07575  0.17312  0.33395  1.0000
  H   H40       1.0  0.12793999999999994  0.11957  0.43622  1.0000
  H   H41       1.0  0.7970299999999998  0.8740899999999999  0.42795999999999995  1.0000
  H   H42       1.0  0.9203199999999998  0.81995  0.45115  1.0000
  H   H43       1.0  0.78642  0.58949  0.38414999999999994  1.0000
  H   H44       1.0  0.6598  0.64403  0.36468  1.0000
  H   H45       1.0  0.030540000000000005  0.76505  0.53517  1.0000
  H   H46       1.0  0.03344  0.74567  0.6574599999999999  1.0000
  H   H47       1.0  0.87278  0.51266  0.63632  1.0000
  H   H48       1.0  0.87395  0.53028  0.51417  1.0000
  H   H49       1.0  0.98168  0.04656  0.93169  1.0000
  H   H50       1.0  0.03219  0.10579  0.8223999999999999  1.0000
  H   H51       1.0  0.03207  0.33856  0.89717  1.0000
  H   H52       1.0  0.98255  0.27893  0.00723  1.0000
  H   H53       1.0  0.8967999999999998  0.16037  0.7457  1.0000
  H   H54       1.0  0.75929  0.1867  0.71464  1.0000
  H   H55       1.0  0.86738  0.43752  0.71792  1.0000
  H   H56       1.0  0.004309999999999998  0.41186  0.7509899999999999  1.0000
  H   H57       1.0  0.79247  0.29793  0.09188  1.0000
  H   H58       1.0  0.65231  0.3201  0.06056999999999999  1.0000
  H   H59       1.0  0.76953  0.56134  0.006859999999999999  1.0000
  H   H60       1.0  0.90752  0.53947  0.0429  1.0000
  H   H61       1.0  0.51434  0.38142  0.1272  1.0000
  H   H62       1.0  0.45777  0.43578  0.22514999999999996  1.0000
  H   H63       1.0  0.57609  0.67346  0.16503  1.0000
  H   H64       1.0  0.6283699999999998  0.61943  0.06285  1.0000
  H   H65       1.0  0.29924  0.37455  0.07216999999999998  1.0000
  H   H66       1.0  0.42257  0.3205  0.04835  1.0000
  H   H67       1.0  0.28877  0.0903  0.11629999999999999  1.0000
  H   H68       1.0  0.16210000000000002  0.14505  0.13641  1.0000
  H   H69       1.0  0.53327  0.26478  0.9626099999999999  1.0000
  H   H70       1.0  0.5326099999999998  0.24332  0.84021  1.0000
  H   H71       1.0  0.37003999999999987  0.01205  0.8656799999999999  1.0000
  H   H72       1.0  0.3751599999999999  0.03116  0.9878799999999999  1.0000
  H   H73       1.0  0.5168  0.45286  0.43368  1.0000
  H   H74       1.0  0.46729  0.39351  0.32426  1.0000
  H   H75       1.0  0.47029  0.16118  0.39807  1.0000
  H   H76       1.0  0.5199  0.22105  0.50803  1.0000
  H   H77       1.0  0.60389  0.33999  0.24611  1.0000
  H   H78       1.0  0.74071  0.31314  0.21343999999999996  1.0000
  H   H79       1.0  0.6319499999999998  0.06254  0.21679  1.0000
  H   H80       1.0  0.49539999999999995  0.08885  0.25123  1.0000
  H   H81       1.0  0.7115  0.20383  0.59232  1.0000
  H   H82       1.0  0.8512  0.18077  0.55987  1.0000
  H   H83       1.0  0.73242  0.93921  0.50855  1.0000
  H   H84       1.0  0.59498  0.9616899999999999  0.5464899999999999  1.0000
  H   H85       1.0  0.9873299999999999  0.11859  0.62713  1.0000
  H   H86       1.0  0.04358  0.0645  0.72494  1.0000
  H   H87       1.0  0.92402  0.82684  0.66595  1.0000
  H   H88       1.0  0.87201  0.88048  0.56369  1.0000
  H   H89       1.0  0.20269  0.12567  0.57245  1.0000
  H   H90       1.0  0.07945  0.17995  0.54892  1.0000
  H   H91       1.0  0.21384  0.41053  0.6156499999999999  1.0000
  H   H92       1.0  0.34026999999999996  0.35564  0.63526  1.0000
  H   H93       1.0  0.96968  0.23474  0.46474999999999994  1.0000
  H   H94       1.0  0.96667  0.25422  0.34248  1.0000
  H   H95       1.0  0.12759  0.48713  0.36366  1.0000
  H   H96       1.0  0.12631  0.4695  0.4858  1.0000
  C   C1        1.0  0.06165000000000002  0.87536  0.96333  1.0000
  C   C2        1.0  0.022249999999999957  0.8405999999999998  0.02495  1.0000
  C   C3        1.0  0.007019999999999988  0.89002  0.07613  1.0000
  C   C4        1.0  0.9789000000000001  0.85711  0.13703  1.0000
  C   C5        1.0  0.96696  0.77531  0.14612  1.0000
  C   C6        1.0  0.9783599999999999  0.72518  0.09444  1.0000
  C   C7        1.0  0.005730000000000014  0.75797  0.0335  1.0000
  C   C8        1.0  0.04139  0.7149  0.24983999999999998  1.0000
  C   C9        1.0  0.10967999999999997  0.77866  0.26051  1.0000
  C   C10       1.0  0.18553  0.76334  0.27901  1.0000
  C   C11       1.0  0.19246  0.68473  0.28835  1.0000
  C   C12       1.0  0.1235  0.62182  0.27706  1.0000
  C   C13       1.0  0.047780000000000024  0.63654  0.25711  1.0000
  C   C14       1.0  0.27312  0.66858  0.31072  1.0000
  C   C15       1.0  0.06288000000000003  0.59614  0.90547  1.0000
  C   C16       1.0  0.14294  0.58226  0.92977  1.0000
  C   C17       1.0  0.21407  0.64486  0.92623  1.0000
  C   C18       1.0  0.29157  0.63269  0.9438699999999999  1.0000
  C   C19       1.0  0.29611  0.55787  0.96705  1.0000
  C   C20       1.0  0.22539999999999996  0.49552000000000007  0.9733199999999999  1.0000
  C   C21       1.0  0.14861  0.50781  0.9538099999999999  1.0000
  C   C22       1.0  0.4258  0.50166  0.91129  1.0000
  C   C23       1.0  0.47183  0.55421  0.86532  1.0000
  C   C24       1.0  0.50227  0.52335  0.8096499999999999  1.0000
  C   C25       1.0  0.48506999999999995  0.44119  0.79926  1.0000
  C   C26       1.0  0.43598  0.38944  0.84466  1.0000
  C   C27       1.0  0.40669  0.41957  0.90128  1.0000
  C   C28       1.0  0.52188  0.40873  0.7413599999999999  1.0000
  C   C29       1.0  0.8506699999999998  0.70433  0.8808099999999999  1.0000
  C   C30       1.0  0.77732  0.73772  0.89572  1.0000
  C   C31       1.0  0.70387  0.68824  0.9198699999999999  1.0000
  C   C32       1.0  0.63431  0.71847  0.93239  1.0000
  C   C33       1.0  0.63856  0.79842  0.91903  1.0000
  C   C34       1.0  0.71119  0.84865  0.8944  1.0000
  C   C35       1.0  0.78093  0.81806  0.8830999999999999  1.0000
  C   C36       1.0  0.54571  0.8504  0.01849  1.0000
  C   C37       1.0  0.5002  0.7896499999999997  0.05831  1.0000
  C   C38       1.0  0.50008  0.80053  0.12645  1.0000
  C   C39       1.0  0.5467799999999999  0.8709  0.15451  1.0000
  C   C40       1.0  0.5916299999999998  0.93174  0.11387  1.0000
  C   C41       1.0  0.59058  0.92184  0.04564  1.0000
  C   C42       1.0  0.54857  0.87992  0.22716  1.0000
  C   C43       1.0  0.43699  0.62398  0.4622899999999999  1.0000
  C   C44       1.0  0.47688  0.65906  0.52365  1.0000
  C   C45       1.0  0.49294999999999994  0.61014  0.5747  1.0000
  C   C46       1.0  0.52081  0.64338  0.6355499999999998  1.0000
  C   C47       1.0  0.53209  0.72516  0.64475  1.0000
  C   C48       1.0  0.51987  0.77492  0.59321  1.0000
  C   C49       1.0  0.49254999999999993  0.74172  0.53237  1.0000
  C   C50       1.0  0.4574599999999999  0.78424  0.74967  1.0000
  C   C51       1.0  0.38936999999999994  0.72015  0.76014  1.0000
  C   C52       1.0  0.31323  0.73489  0.77891  1.0000
  C   C53       1.0  0.30578  0.81327  0.78869  1.0000
  C   C54       1.0  0.3745799999999999  0.8765  0.7779299999999999  1.0000
  C   C55       1.0  0.45058  0.8624  0.7577099999999999  1.0000
  C   C56       1.0  0.22485  0.82903  0.8110099999999999  1.0000
  C   C57       1.0  0.4330199999999999  0.9  0.40397  1.0000
  C   C58       1.0  0.35396  0.9161  0.42872999999999994  1.0000
  C   C59       1.0  0.28244  0.85387  0.4259899999999999  1.0000
  C   C60       1.0  0.20531  0.86674  0.44386999999999993  1.0000
  C   C61       1.0  0.20157  0.94204  0.4665  1.0000
  C   C62       1.0  0.2727  0.00401  0.47231999999999996  1.0000
  C   C63       1.0  0.34919  0.99099  0.45239  1.0000
  C   C64       1.0  0.07318000000000005  0.99798  0.40979  1.0000
  C   C65       1.0  0.026870000000000015  0.94503  0.36431  1.0000
  C   C66       1.0  0.99612  0.97558  0.30885  1.0000
  C   C67       1.0  0.01337  0.05772  0.29829999999999995  1.0000
  C   C68       1.0  0.06293  0.10975  0.34312  1.0000
  C   C69       1.0  0.09257  0.07999  0.39951999999999993  1.0000
  C   C70       1.0  0.97629  0.09023  0.24086999999999997  1.0000
  C   C71       1.0  0.64621  0.79381  0.38195  1.0000
  C   C72       1.0  0.72036  0.76169  0.39637  1.0000
  C   C73       1.0  0.7937599999999998  0.81152  0.42013999999999996  1.0000
  C   C74       1.0  0.86343  0.78139  0.43247  1.0000
  C   C75       1.0  0.8594199999999997  0.70139  0.4193  1.0000
  C   C76       1.0  0.78684  0.65095  0.39501  1.0000
  C   C77       1.0  0.7170300000000001  0.68131  0.38393  1.0000
  C   C78       1.0  0.9516399999999998  0.64875  0.5184  1.0000
  C   C79       1.0  0.9971599999999999  0.7099399999999998  0.55768  1.0000
  C   C80       1.0  0.99841  0.69921  0.62569  1.0000
  C   C81       1.0  0.95337  0.62849  0.65452  1.0000
  C   C82       1.0  0.90763  0.56759  0.61439  1.0000
  C   C83       1.0  0.9073599999999999  0.5774  0.54608  1.0000
  C   C84       1.0  0.95591  0.62129  0.72757  1.0000
  C   C85       1.0  0.93804  0.12466000000000002  0.03651  1.0000
  C   C86       1.0  0.9774  0.15948  0.97487  1.0000
  C   C87       1.0  0.9926899999999999  0.11015  0.92364  1.0000
  C   C88       1.0  0.020750000000000005  0.14315  0.8627699999999999  1.0000
  C   C89       1.0  0.03253  0.22493  0.8536799999999999  1.0000
  C   C90       1.0  0.02123  0.27502  0.90543  1.0000
  C   C91       1.0  0.99397  0.24212000000000003  0.9663599999999999  1.0000
  C   C92       1.0  0.9576999999999999  0.28497  0.75011  1.0000
  C   C93       1.0  0.88968  0.22081  0.73993  1.0000
  C   C94       1.0  0.81325  0.23538  0.7221  1.0000
  C   C95       1.0  0.80542  0.31368  0.71282  1.0000
  C   C96       1.0  0.87418  0.37708  0.7233999999999999  1.0000
  C   C97       1.0  0.95053  0.36316  0.74273  1.0000
  C   C98       1.0  0.72416  0.32893  0.6908699999999999  1.0000
  C   C99       1.0  0.93717  0.40376  0.09456  1.0000
  C   C100      1.0  0.85716  0.4176699999999999  0.07017  1.0000
  C   C101      1.0  0.78603  0.35509  0.07368  1.0000
  C   C102      1.0  0.70852  0.36727  0.05609  1.0000
  C   C103      1.0  0.7039900000000001  0.44219  0.03306  1.0000
  C   C104      1.0  0.77474  0.50448  0.02669  1.0000
  C   C105      1.0  0.85155  0.49212  0.0461  1.0000
  C   C106      1.0  0.57434  0.4978600000000001  0.08981  1.0000
  C   C107      1.0  0.5280799999999998  0.44512  0.13548  1.0000
  C   C108      1.0  0.49699  0.47590000000000005  0.1909  1.0000
  C   C109      1.0  0.5138699999999998  0.5581  0.20121  1.0000
  C   C110      1.0  0.56314  0.61  0.15604  1.0000
  C   C111      1.0  0.59306  0.57997  0.09969  1.0000
  C   C112      1.0  0.47666999999999976  0.59069  0.2588  1.0000
  C   C113      1.0  0.14938  0.29577  0.11916  1.0000
  C   C114      1.0  0.2228  0.2625  0.10422  1.0000
  C   C115      1.0  0.29619  0.31206  0.07999  1.0000
  C   C116      1.0  0.36581  0.28192  0.06738999999999999  1.0000
  C   C117      1.0  0.36168  0.202  0.08084  1.0000
  C   C118      1.0  0.2891  0.15173  0.10547  1.0000
  C   C119      1.0  0.21930999999999998  0.18219999999999995  0.11685  1.0000
  C   C120      1.0  0.45361  0.14916  0.9814899999999999  1.0000
  C   C121      1.0  0.49879  0.20944  0.9410699999999999  1.0000
  C   C122      1.0  0.49797  0.19775  0.8729999999999999  1.0000
  C   C123      1.0  0.4507799999999999  0.12712  0.84563  1.0000
  C   C124      1.0  0.40603  0.06692  0.8869099999999999  1.0000
  C   C125      1.0  0.4080299999999999  0.07756999999999999  0.95507  1.0000
  C   C126      1.0  0.44875  0.11721  0.77304  1.0000
  C   C127      1.0  0.5624199999999998  0.37557  0.53781  1.0000
  C   C128      1.0  0.5228  0.34039  0.47639  1.0000
  C   C129      1.0  0.50663  0.3893599999999999  0.42541999999999996  1.0000
  C   C130      1.0  0.47888  0.35624  0.36453  1.0000
  C   C131      1.0  0.46779999999999994  0.27449  0.35527  1.0000
  C   C132      1.0  0.4802  0.22465  0.40667999999999993  1.0000
  C   C133      1.0  0.50753  0.25776  0.46755  1.0000
  C   C134      1.0  0.54247  0.21545  0.25037  1.0000
  C   C135      1.0  0.6105999999999998  0.27948  0.23985999999999996  1.0000
  C   C136      1.0  0.6867  0.26459  0.22118  1.0000
  C   C137      1.0  0.69413  0.18618  0.21156  1.0000
  C   C138      1.0  0.62534  0.12299  0.22251999999999997  1.0000
  C   C139      1.0  0.54934  0.13724  0.24258  1.0000
  C   C140      1.0  0.7750199999999998  0.17048  0.18907  1.0000
  C   C141      1.0  0.5675499999999998  0.10001  0.59784  1.0000
  C   C142      1.0  0.6463899999999998  0.08385  0.5726  1.0000
  C   C143      1.0  0.7177  0.14632999999999996  0.57469  1.0000
  C   C144      1.0  0.79477  0.13374  0.55631  1.0000
  C   C145      1.0  0.79851  0.05844  0.53366  1.0000
  C   C146      1.0  0.7274999999999998  0.9962500000000001  0.52835  1.0000
  C   C147      1.0  0.65111  0.008979999999999998  0.54885  1.0000
  C   C148      1.0  0.92679  0.00207  0.59015  1.0000
  C   C149      1.0  0.9731199999999999  0.05495  0.63565  1.0000
  C   C150      1.0  0.0038799999999999993  0.024329999999999997  0.69108  1.0000
  C   C151      1.0  0.98664  0.9422  0.7016199999999999  1.0000
  C   C152      1.0  0.937  0.89023  0.65679  1.0000
  C   C153      1.0  0.90738  0.92005  0.60039  1.0000
  C   C154      1.0  0.023790000000000002  0.90973  0.75906  1.0000
  C   C155      1.0  0.3536  0.20582  0.61791  1.0000
  C   C156      1.0  0.27945  0.23801000000000003  0.60364  1.0000
  C   C157      1.0  0.20597999999999994  0.18827  0.58  1.0000
  C   C158      1.0  0.13642  0.21849  0.56752  1.0000
  C   C159      1.0  0.14071  0.29856  0.58059  1.0000
  C   C160      1.0  0.21333999999999995  0.34901  0.60482  1.0000
  C   C161      1.0  0.28299999999999986  0.31847  0.61599  1.0000
  C   C162      1.0  0.048509999999999984  0.35107  0.48155999999999993  1.0000
  C   C163      1.0  0.003019999999999996  0.28988  0.44225999999999993  1.0000
  C   C164      1.0  0.0017299999999999952  0.30065  0.37426  1.0000
  C   C165      1.0  0.04678  0.37138  0.34547  1.0000
  C   C166      1.0  0.09259999999999999  0.43225  0.38559  1.0000
  C   C167      1.0  0.09286  0.4224  0.45388  1.0000
  C   C168      1.0  0.04414999999999999  0.37865  0.27243999999999996  1.0000
  S   S1        1.0  0.94367  0.7338  0.22667  1.0000
  S   S2        1.0  0.3956  0.54076  0.9860399999999999  1.0000
  S   S3        1.0  0.54799  0.83634  0.93101  1.0000
  S   S4        1.0  0.55542  0.76608  0.72552  1.0000
  S   S5        1.0  0.10257999999999998  0.9601899999999999  0.48501999999999995  1.0000
  S   S6        1.0  0.9496999999999999  0.66284  0.4310399999999999  1.0000
  S   S7        1.0  0.05569000000000002  0.26636  0.7730999999999999  1.0000
  S   S8        1.0  0.60451  0.45977  0.01482  1.0000
  S   S9        1.0  0.45211  0.16378  0.06893  1.0000
  S   S10       1.0  0.4444799999999998  0.23366  0.27449  1.0000
  S   S11       1.0  0.8973799999999997  0.04003  0.51497  1.0000
  S   S12       1.0  0.05049  0.33702  0.56893  1.0000
  O   O1        1.0  0.5129999999999998  0.33472  0.73669  1.0000
  O   O2        1.0  0.055240000000000004  0.66641  0.89725  1.0000
  O   O3        1.0  0.91618  0.75025  0.85996  1.0000
  O   O4        1.0  0.3379  0.72368  0.30663  1.0000
  O   O5        1.0  0.49769  0.83236  0.26367  1.0000
  O   O6        1.0  0.06805  0.83217  0.91294  1.0000
  O   O7        1.0  0.26981  0.59756  0.33332999999999996  1.0000
  O   O8        1.0  0.56343  0.46083  0.7002299999999999  1.0000
  O   O9        1.0  0.09618  0.94986  0.9589199999999999  1.0000
  O   O10       1.0  0.0025100000000000027  0.53492  0.89336  1.0000
  O   O11       1.0  0.84093  0.62813  0.88968  1.0000
  O   O12       1.0  0.6029899999999999  0.9383099999999999  0.25309  1.0000
  O   O13       1.0  0.92732  0.79637  0.26947999999999994  1.0000
  O   O14       1.0  0.88382  0.65783  0.21996999999999997  1.0000
  O   O15       1.0  0.4525999999999999  0.61769  0.99692  1.0000
  O   O16       1.0  0.38465  0.47947  0.03663  1.0000
  O   O17       1.0  0.47555  0.77368  0.9134299999999999  1.0000
  O   O18       1.0  0.56334  0.91439  0.9000499999999999  1.0000
  O   O19       1.0  0.98417  0.16412  0.23664999999999997  1.0000
  O   O20       1.0  0.4372199999999999  0.82859  0.39754  1.0000
  O   O21       1.0  0.58087  0.7462199999999998  0.36282  1.0000
  O   O22       1.0  0.16039  0.77346  0.80713  1.0000
  O   O23       1.0  0.008219999999999993  0.67178  0.75999  1.0000
  O   O24       1.0  0.42803  0.66752  0.41292  1.0000
  O   O25       1.0  0.22773  0.90016  0.83329  1.0000
  O   O26       1.0  0.93554  0.03812  0.19947  1.0000
  O   O27       1.0  0.40421  0.54914  0.45699  1.0000
  O   O28       1.0  0.49418999999999996  0.96  0.39008  1.0000
  O   O29       1.0  0.65472  0.87012  0.38953  1.0000
  O   O30       1.0  0.90419  0.56274  0.75629  1.0000
  O   O31       1.0  0.5723499999999999  0.7029400000000001  0.76706  1.0000
  O   O32       1.0  0.6151499999999999  0.84227  0.71976  1.0000
  O   O33       1.0  0.044989999999999995  0.88375  0.49707  1.0000
  O   O34       1.0  0.11463  0.023479999999999997  0.53405  1.0000
  O   O35       1.0  0.022769999999999988  0.72501  0.41345  1.0000
  O   O36       1.0  0.93384  0.58483  0.3998900000000001  1.0000
  O   O37       1.0  0.48450999999999994  0.6645799999999998  0.26316  1.0000
  O   O38       1.0  0.94476  0.33349  0.10287  1.0000
  O   O39       1.0  0.08392999999999996  0.24979999999999997  0.14004  1.0000
  O   O40       1.0  0.6594399999999998  0.27381  0.6965  1.0000
  O   O41       1.0  0.49888  0.16469  0.73592  1.0000
  O   O42       1.0  0.9319699999999997  0.16777  0.08703  1.0000
  O   O43       1.0  0.72732  0.39924  0.66692  1.0000
  O   O44       1.0  0.43583  0.53865  0.30019  1.0000
  O   O45       1.0  0.90329  0.05019  0.04085  1.0000
  O   O46       1.0  0.99753  0.46499  0.10665  1.0000
  O   O47       1.0  0.15909  0.3719599999999999  0.11029  1.0000
  O   O48       1.0  0.39506999999999987  0.05813  0.7472799999999999  1.0000
  O   O49       1.0  0.07213  0.20365  0.73045  1.0000
  O   O50       1.0  0.11538999999999999  0.34242  0.77975  1.0000
  O   O51       1.0  0.54762  0.38298  0.00293  1.0000
  O   O52       1.0  0.6155  0.52292  0.96581  1.0000
  O   O53       1.0  0.52474  0.22635  0.08628  1.0000
  O   O54       1.0  0.43673  0.08584  0.10012  1.0000
  O   O55       1.0  0.01582  0.83584  0.76334  1.0000
  O   O56       1.0  0.56287  0.17143  0.6029  1.0000
  O   O57       1.0  0.41882  0.25364  0.63691  1.0000
  O   O58       1.0  0.83936  0.22623  0.19276  1.0000
  O   O59       1.0  0.99179  0.32822  0.23999999999999996  1.0000
  O   O60       1.0  0.5719  0.33216  0.58714  1.0000
  O   O61       1.0  0.77216  0.0993  0.16685  1.0000
  O   O62       1.0  0.06466999999999999  0.9618399999999999  0.8004099999999998  1.0000
  O   O63       1.0  0.59474  0.45049  0.54318  1.0000
  O   O64       1.0  0.50722  0.04  0.61315  1.0000
  O   O65       1.0  0.34543  0.12953  0.6104099999999999  1.0000
  O   O66       1.0  0.09586  0.4372  0.24373  1.0000
  O   O67       1.0  0.42765  0.29689  0.23299  1.0000
  O   O68       1.0  0.38473  0.15745  0.2802  1.0000
  O   O69       1.0  0.9552199999999997  0.11636  0.50292  1.0000
  O   O70       1.0  0.88523  0.9767  0.46597  1.0000
  O   O71       1.0  0.9775499999999999  0.27471  0.58655  1.0000
  O   O72       1.0  0.06644999999999998  0.41503  0.6001  1.0000
