data_image0
_chemical_formula_structural       Eu8H88C168N16O60
_chemical_formula_sum              "Eu8 H88 C168 N16 O60"
_cell_length_a       10.58795
_cell_length_b       21.7183
_cell_length_c       21.714519999999997
_cell_angle_alpha    86.58005
_cell_angle_beta     75.83523
_cell_angle_gamma    75.83775

_symmetry_space_group_name_H-M    'P 1'
_symmetry_Int_Tables_number       1

loop_
  _symmetry_equiv_pos_as_xyz
  'x,y,z'

loop_
  _atom_site_type_symbol
  _atom_site_label
  _atom_site_symmetry_multiplicity
  _atom_site_fract_x
  _atom_site_fract_y
  _atom_site_fract_z
  _atom_site_occupancy
  Eu  Eu1       1.0  0.17929000000000006  0.9236999999999999  0.29223  1.0000
  Eu  Eu2       1.0  0.39526  0.07547  0.70803  1.0000
  Eu  Eu3       1.0  0.89696  0.70782  0.92403  1.0000
  Eu  Eu4       1.0  0.52863  0.2923799999999999  0.07561  1.0000
  Eu  Eu5       1.0  0.57078  0.20778  0.57632  1.0000
  Eu  Eu6       1.0  0.3541399999999999  0.79206  0.42496000000000006  1.0000
  Eu  Eu7       1.0  0.8528  0.57624  0.7921700000000002  1.0000
  Eu  Eu8       1.0  0.22146  0.4243799999999999  0.20766000000000004  1.0000
  H   H1        1.0  0.98801  0.16633  0.34107  1.0000
  H   H2        1.0  0.04963999999999999  0.27838  0.29309  1.0000
  H   H3        1.0  0.9774700000000001  0.8390799999999999  0.5792  1.0000
  H   H4        1.0  0.3360699999999999  0.8844599999999999  0.13626  1.0000
  H   H5        1.0  0.30339  0.85524  0.03187  1.0000
  H   H6        1.0  0.07245000000000006  0.85342  0.02353  1.0000
  H   H7        1.0  0.8259700000000001  0.8698799999999999  0.07657  1.0000
  H   H8        1.0  0.63968  0.9041  0.17089  1.0000
  H   H9        1.0  0.5581000000000002  0.94571  0.28294  1.0000
  H   H10       1.0  0.61542  0.98038  0.37878  1.0000
  H   H11       1.0  0.85648  0.9731299999999999  0.37706  1.0000
  H   H12       1.0  0.49534000000000006  0.83191  0.65798  1.0000
  H   H13       1.0  0.6220899999999999  0.72035  0.70696  1.0000
  H   H14       1.0  0.39493  0.16116  0.42075  1.0000
  H   H15       1.0  0.35628  0.11519999999999998  0.8635700000000001  1.0000
  H   H16       1.0  0.19007  0.14467  0.96791  1.0000
  H   H17       1.0  0.9487300000000001  0.14672  0.9765  1.0000
  H   H18       1.0  0.7715599999999998  0.13049  0.92366  1.0000
  H   H19       1.0  0.71356  0.09652  0.82948  1.0000
  H   H20       1.0  0.7859399999999999  0.05449999999999999  0.71737  1.0000
  H   H21       1.0  0.97391  0.01959  0.62158  1.0000
  H   H22       1.0  0.20616000000000007  0.026639999999999994  0.62307  1.0000
  H   H23       1.0  0.8466700000000001  0.65798  0.16645  1.0000
  H   H24       1.0  0.6733500000000002  0.70602  0.27887  1.0000
  H   H25       1.0  0.18421000000000007  0.42062  0.8389  1.0000
  H   H26       1.0  0.7796000000000001  0.86363  0.88469  1.0000
  H   H27       1.0  0.8415200000000003  0.9680099999999999  0.85526  1.0000
  H   H28       1.0  0.07423999999999994  0.9764399999999999  0.85334  1.0000
  H   H29       1.0  0.30430999999999997  0.92353  0.8697300000000001  1.0000
  H   H30       1.0  0.4565699999999999  0.82927  0.90386  1.0000
  H   H31       1.0  0.49650000000000005  0.7173199999999998  0.94561  1.0000
  H   H32       1.0  0.40449000000000007  0.62146  0.98045  1.0000
  H   H33       1.0  0.17072999999999997  0.62308  0.97323  1.0000
  H   H34       1.0  0.67398  0.34204  0.8319100000000001  1.0000
  H   H35       1.0  0.65882  0.29334  0.72036  1.0000
  H   H36       1.0  0.44367  0.57891  0.16121  1.0000
  H   H37       1.0  0.52772  0.13647999999999996  0.11542  1.0000
  H   H38       1.0  0.66487  0.03209  0.14469  1.0000
  H   H39       1.0  0.90421  0.02361  0.14653  1.0000
  H   H40       1.0  0.09766000000000002  0.07652  0.13016  1.0000
  H   H41       1.0  0.18956000000000006  0.17070999999999997  0.09598999999999999  1.0000
  H   H42       1.0  0.15905  0.28275  0.05428  1.0000
  H   H43       1.0  0.005830000000000007  0.37861  0.01963  1.0000
  H   H44       1.0  0.76638  0.37706  0.02688  1.0000
  H   H45       1.0  0.7621200000000001  0.1589  0.33369  1.0000
  H   H46       1.0  0.7004700000000001  0.20685999999999996  0.22163  1.0000
  H   H47       1.0  0.7726099999999996  0.9206999999999999  0.66096  1.0000
  H   H48       1.0  0.4139500000000001  0.36373  0.61557  1.0000
  H   H49       1.0  0.44666  0.46812  0.64475  1.0000
  H   H50       1.0  0.6776100000000003  0.47646  0.64657  1.0000
  H   H51       1.0  0.9240900000000001  0.4234  0.63013  1.0000
  H   H52       1.0  0.11034  0.3291  0.59592  1.0000
  H   H53       1.0  0.19191999999999998  0.21707  0.5543  1.0000
  H   H54       1.0  0.13457000000000002  0.12124  0.51962  1.0000
  H   H55       1.0  0.8935200000000001  0.12297  0.52689  1.0000
  H   H56       1.0  0.25473000000000007  0.84171  0.66818  1.0000
  H   H57       1.0  0.1273399999999999  0.79323  0.7799  1.0000
  H   H58       1.0  0.35505999999999993  0.07909  0.33886  1.0000
  H   H59       1.0  0.39341000000000004  0.6365699999999999  0.38475  1.0000
  H   H60       1.0  0.55971  0.53219  0.35532  1.0000
  H   H61       1.0  0.8009800000000001  0.52357  0.35335  1.0000
  H   H62       1.0  0.9782300000000002  0.57639  0.36955  1.0000
  H   H63       1.0  0.036290000000000024  0.6705799999999998  0.4035099999999999  1.0000
  H   H64       1.0  0.9640300000000008  0.7825899999999999  0.44549  1.0000
  H   H65       1.0  0.7760800000000001  0.8784199999999999  0.48041  1.0000
  H   H66       1.0  0.5438100000000001  0.8769499999999999  0.4733399999999999  1.0000
  H   H67       1.0  0.9030500000000002  0.33371999999999996  0.84212  1.0000
  H   H68       1.0  0.07621999999999995  0.22128  0.79409  1.0000
  H   H69       1.0  0.56553  0.66113  0.07963  1.0000
  H   H70       1.0  0.97039  0.61535  0.63636  1.0000
  H   H71       1.0  0.90856  0.64473  0.53198  1.0000
  H   H72       1.0  0.6758099999999999  0.64665  0.52354  1.0000
  H   H73       1.0  0.44577999999999995  0.63025  0.57646  1.0000
  H   H74       1.0  0.29346999999999995  0.59615  0.67074  1.0000
  H   H75       1.0  0.25355999999999995  0.55435  0.7827100000000001  1.0000
  H   H76       1.0  0.3455400000000002  0.5195299999999999  0.87859  1.0000
  H   H77       1.0  0.57928  0.52676  0.87698  1.0000
  H   H78       1.0  0.07648999999999996  0.66826  0.15809  1.0000
  H   H79       1.0  0.09142000000000029  0.77961  0.20696  1.0000
  H   H80       1.0  0.3061300000000001  0.33885  0.92099  1.0000
  H   H81       1.0  0.22227  0.38456999999999997  0.36354  1.0000
  H   H82       1.0  0.08508999999999994  0.3553  0.4679400000000001  1.0000
  H   H83       1.0  0.8457399999999999  0.35346999999999995  0.47642  1.0000
  H   H84       1.0  0.65233  0.36982  0.42349000000000003  1.0000
  H   H85       1.0  0.56045  0.40398999999999996  0.32927  1.0000
  H   H86       1.0  0.59099  0.44570999999999994  0.21722  1.0000
  H   H87       1.0  0.74423  0.48037  0.12134  1.0000
  H   H88       1.0  0.9837000000000002  0.47309  0.1229  1.0000
  C   C1        1.0  0.1549  0.05732999999999999  0.25889  1.0000
  C   C2        1.0  0.14693000000000003  0.12586  0.25805  1.0000
  C   C3        1.0  0.06264  0.17322  0.29884  1.0000
  C   C4        1.0  0.09439000000000002  0.23088  0.27439  1.0000
  C   C5        1.0  0.1966400000000001  0.21575999999999995  0.22043  1.0000
  C   C6        1.0  0.27056  0.25644  0.1763  1.0000
  C   C7        1.0  0.05267000000000007  0.89945  0.45367  1.0000
  C   C8        1.0  0.95616  0.9204799999999999  0.51437  1.0000
  C   C9        1.0  0.9275400000000001  0.8875299999999999  0.57067  1.0000
  C   C10       1.0  0.23659  0.88473  0.1303  1.0000
  C   C11       1.0  0.21774  0.86767  0.07222  1.0000
  C   C12       1.0  0.09020000000000006  0.8668099999999999  0.06766  1.0000
  C   C13       1.0  0.9808100000000002  0.8837099999999999  0.12097000000000001  1.0000
  C   C14       1.0  0.8455400000000001  0.8845  0.1198  1.0000
  C   C15       1.0  0.74238  0.9033  0.17194  1.0000
  C   C16       1.0  0.76635  0.92234  0.22931  1.0000
  C   C17       1.0  0.6617500000000002  0.9438899999999998  0.28351  1.0000
  C   C18       1.0  0.6930400000000001  0.9626599999999998  0.33662  1.0000
  C   C19       1.0  0.8278500000000002  0.95894  0.33602  1.0000
  C   C20       1.0  0.8998200000000002  0.9204299999999999  0.23273000000000002  1.0000
  C   C21       1.0  0.008930000000000132  0.9010599999999999  0.17758  1.0000
  C   C22       1.0  0.47015000000000007  0.94159  0.73912  1.0000
  C   C23       1.0  0.5315500000000002  0.8732999999999999  0.74009  1.0000
  C   C24       1.0  0.5351599999999999  0.82543  0.70001  1.0000
  C   C25       1.0  0.6006100000000001  0.76815  0.72488  1.0000
  C   C26       1.0  0.6342400000000001  0.784  0.77838  1.0000
  C   C27       1.0  0.7026499999999999  0.74353  0.82329  1.0000
  C   C28       1.0  0.4044599999999999  0.10156  0.54627  1.0000
  C   C29       1.0  0.39074  0.07991  0.48557000000000006  1.0000
  C   C30       1.0  0.3855299999999999  0.11264  0.42918  1.0000
  C   C31       1.0  0.25112999999999996  0.11489  0.86963  1.0000
  C   C32       1.0  0.15705000000000002  0.1322  0.92768  1.0000
  C   C33       1.0  0.024020000000000066  0.13322  0.93235  1.0000
  C   C34       1.0  0.9848  0.11635  0.8791100000000001  1.0000
  C   C35       1.0  0.84898  0.1158  0.8803799999999999  1.0000
  C   C36       1.0  0.8167000000000002  0.09709999999999999  0.82829  1.0000
  C   C37       1.0  0.9171700000000003  0.07784  0.77089  1.0000
  C   C38       1.0  0.88837  0.05627  0.71677  1.0000
  C   C39       1.0  0.9917000000000001  0.03733  0.66366  1.0000
  C   C40       1.0  0.12234000000000003  0.04088  0.66417  1.0000
  C   C41       1.0  0.052329999999999946  0.0795  0.7674000000000001  1.0000
  C   C42       1.0  0.08695999999999997  0.09879  0.8224900000000002  1.0000
  C   C43       1.0  0.78937  0.73979  0.05772000000000001  1.0000
  C   C44       1.0  0.72873  0.7411  0.12634  1.0000
  C   C45       1.0  0.7654500000000001  0.70033  0.17368  1.0000
  C   C46       1.0  0.67615  0.72481  0.23142000000000001  1.0000
  C   C47       1.0  0.58909  0.7788399999999999  0.21638  1.0000
  C   C48       1.0  0.47419999999999995  0.82294  0.25711  1.0000
  C   C49       1.0  0.04932000000000008  0.54622  0.89841  1.0000
  C   C50       1.0  0.12337000000000001  0.48551  0.92011  1.0000
  C   C51       1.0  0.18508999999999992  0.42907  0.88744  1.0000
  C   C52       1.0  0.8788099999999999  0.86965  0.8849  1.0000
  C   C53       1.0  0.9147399999999999  0.9277  0.8677100000000001  1.0000
  C   C54       1.0  0.04313000000000013  0.9323099999999999  0.8667900000000001  1.0000
  C   C55       1.0  0.1356700000000001  0.8790599999999998  0.8836900000000001  1.0000
  C   C56       1.0  0.27019999999999994  0.8802899999999999  0.8843800000000002  1.0000
  C   C57       1.0  0.3546300000000003  0.8281899999999999  0.90313  1.0000
  C   C58       1.0  0.31164000000000003  0.77082  0.92227  1.0000
  C   C59       1.0  0.39469  0.71668  0.94384  1.0000
  C   C60       1.0  0.3445900000000001  0.66359  0.96271  1.0000
  C   C61       1.0  0.21351  0.6641299999999999  0.9590400000000001  1.0000
  C   C62       1.0  0.18005999999999991  0.76736  0.92045  1.0000
  C   C63       1.0  0.09022000000000005  0.82246  0.90114  1.0000
  C   C64       1.0  0.5878  0.2613  0.94167  1.0000
  C   C65       1.0  0.59449  0.26043  0.87336  1.0000
  C   C66       1.0  0.63964  0.3003  0.8254500000000001  1.0000
  C   C67       1.0  0.6311600000000003  0.27557  0.76816  1.0000
  C   C68       1.0  0.5801799999999998  0.22249  0.7841  1.0000
  C   C69       1.0  0.5491900000000002  0.17797999999999997  0.74433  1.0000
  C   C70       1.0  0.4940600000000001  0.45377  0.10070000000000001  1.0000
  C   C71       1.0  0.5296600000000001  0.51446  0.07956  1.0000
  C   C72       1.0  0.5018300000000002  0.57067  0.11266  1.0000
  C   C73       1.0  0.63318  0.13048  0.11518000000000002  1.0000
  C   C74       1.0  0.7101600000000002  0.0724  0.13228  1.0000
  C   C75       1.0  0.8422600000000001  0.06777  0.13317  1.0000
  C   C76       1.0  0.89831  0.12103  0.11631999999999999  1.0000
  C   C77       1.0  0.03479000000000001  0.11977  0.11555000000000001  1.0000
  C   C78       1.0  0.08578  0.17185  0.09676000000000001  1.0000
  C   C79       1.0  0.004410000000000023  0.22923999999999997  0.0777  1.0000
  C   C80       1.0  0.054779999999999995  0.28338  0.05614  1.0000
  C   C81       1.0  0.97031  0.33651999999999993  0.03737  1.0000
  C   C82       1.0  0.83606  0.336  0.04107  1.0000
  C   C83       1.0  0.8674900000000001  0.23273999999999997  0.0796  1.0000
  C   C84       1.0  0.8135300000000001  0.17766  0.09893999999999999  1.0000
  C   C85       1.0  0.59513  0.24108999999999997  0.44272000000000006  1.0000
  C   C86       1.0  0.6031200000000002  0.24186999999999997  0.37418  1.0000
  C   C87       1.0  0.68747  0.20111  0.3268  1.0000
  C   C88       1.0  0.65568  0.22555  0.26913  1.0000
  C   C89       1.0  0.55334  0.27946999999999994  0.28427  1.0000
  C   C90       1.0  0.47943000000000013  0.32369  0.24367  1.0000
  C   C91       1.0  0.69717  0.04632  0.60133  1.0000
  C   C92       1.0  0.7934999999999998  0.9856799999999999  0.57985  1.0000
  C   C93       1.0  0.82246  0.9292599999999999  0.61254  1.0000
  C   C94       1.0  0.51344  0.3697  0.61527  1.0000
  C   C95       1.0  0.53231  0.42778  0.63232  1.0000
  C   C96       1.0  0.6598400000000001  0.43232999999999994  0.63318  1.0000
  C   C97       1.0  0.7692199999999999  0.37901999999999997  0.61629  1.0000
  C   C98       1.0  0.9045  0.38019  0.61552  1.0000
  C   C99       1.0  0.007639999999999995  0.32805  0.59672  1.0000
  C   C100      1.0  0.98367  0.27069  0.57767  1.0000
  C   C101      1.0  0.08825999999999998  0.21650999999999998  0.55612  1.0000
  C   C102      1.0  0.056959999999999976  0.1634  0.53735  1.0000
  C   C103      1.0  0.92215  0.164  0.54107  1.0000
  C   C104      1.0  0.8502  0.26728  0.57957  1.0000
  C   C105      1.0  0.7410899999999999  0.32242  0.59894  1.0000
  C   C106      1.0  0.27979999999999994  0.76069  0.55867  1.0000
  C   C107      1.0  0.21842999999999993  0.75964  0.627  1.0000
  C   C108      1.0  0.2147199999999999  0.79975  0.67484  1.0000
  C   C109      1.0  0.14886999999999986  0.77506  0.73218  1.0000
  C   C110      1.0  0.11501000000000001  0.72164  0.71631  1.0000
  C   C111      1.0  0.04505999999999988  0.67676  0.75583  1.0000
  C   C112      1.0  0.34563  0.95378  0.3985  1.0000
  C   C113      1.0  0.35932  0.01447  0.42017  1.0000
  C   C114      1.0  0.36451000000000006  0.07081  0.3874  1.0000
  C   C115      1.0  0.49862999999999996  0.63051  0.38499  1.0000
  C   C116      1.0  0.5926900000000003  0.57244  0.36775  1.0000
  C   C117      1.0  0.7257200000000001  0.56774  0.36678  1.0000
  C   C118      1.0  0.7650000000000001  0.62096  0.38362999999999997  1.0000
  C   C119      1.0  0.90082  0.61967  0.38421  1.0000
  C   C120      1.0  0.93316  0.67174  0.4029  1.0000
  C   C121      1.0  0.8327100000000001  0.72914  0.42214000000000007  1.0000
  C   C122      1.0  0.86157  0.78323  0.44372  1.0000
  C   C123      1.0  0.7582800000000001  0.83635  0.46265  1.0000
  C   C124      1.0  0.62762  0.8358599999999999  0.45911  1.0000
  C   C125      1.0  0.6975299999999998  0.73265  0.42048  1.0000
  C   C126      1.0  0.66286  0.6776  0.40115000000000006  1.0000
  C   C127      1.0  0.9609  0.4424  0.7602299999999999  1.0000
  C   C128      1.0  0.02131000000000001  0.37378  0.75901  1.0000
  C   C129      1.0  0.9843100000000002  0.32648  0.79977  1.0000
  C   C130      1.0  0.07347999999999998  0.26871  0.7753  1.0000
  C   C131      1.0  0.16071999999999995  0.2837  0.72131  1.0000
  C   C132      1.0  0.27565000000000006  0.24299  0.67724  1.0000
  C   C133      1.0  0.70045  0.60167  0.95379  1.0000
  C   C134      1.0  0.62639  0.5801  0.014560000000000002  1.0000
  C   C135      1.0  0.5647500000000002  0.61262  0.07108  1.0000
  C   C136      1.0  0.8712200000000001  0.61511  0.63033  1.0000
  C   C137      1.0  0.83529  0.63229  0.57228  1.0000
  C   C138      1.0  0.7069  0.63322  0.56768  1.0000
  C   C139      1.0  0.6143600000000001  0.61633  0.62095  1.0000
  C   C140      1.0  0.4798500000000001  0.6156299999999999  0.61972  1.0000
  C   C141      1.0  0.39540000000000003  0.5968799999999999  0.67183  1.0000
  C   C142      1.0  0.43839000000000017  0.5777399999999999  0.72921  1.0000
  C   C143      1.0  0.35535  0.55615  0.78335  1.0000
  C   C144      1.0  0.4054299999999999  0.53728  0.8364600000000001  1.0000
  C   C145      1.0  0.5365299999999998  0.54094  0.83591  1.0000
  C   C146      1.0  0.56998  0.57955  0.73267  1.0000
  C   C147      1.0  0.6598000000000003  0.59888  0.67756  1.0000
  C   C148      1.0  0.16243000000000002  0.55836  0.23876999999999998  1.0000
  C   C149      1.0  0.15588000000000007  0.62664  0.23971  1.0000
  C   C150      1.0  0.11092000000000003  0.67459  0.19983999999999996  1.0000
  C   C151      1.0  0.11914000000000001  0.73183  0.22474000000000002  1.0000
  C   C152      1.0  0.1695  0.71587  0.27802  1.0000
  C   C153      1.0  0.19851  0.7557  0.32317  1.0000
  C   C154      1.0  0.25605999999999995  0.39914  0.04627  1.0000
  C   C155      1.0  0.22040000000000004  0.42036  0.9856  1.0000
  C   C156      1.0  0.24811  0.3874  0.92931  1.0000
  C   C157      1.0  0.11679999999999999  0.38482  0.36954  1.0000
  C   C158      1.0  0.03981  0.36771  0.42763  1.0000
  C   C159      1.0  0.9077100000000002  0.36682999999999993  0.43226  1.0000
  C   C160      1.0  0.8516800000000002  0.38368  0.37899  1.0000
  C   C161      1.0  0.7152000000000001  0.38442999999999994  0.3802400000000001  1.0000
  C   C162      1.0  0.66422  0.40322  0.32814  1.0000
  C   C163      1.0  0.7456100000000002  0.42228  0.27074  1.0000
  C   C164      1.0  0.69525  0.44385  0.21659  1.0000
  C   C165      1.0  0.77974  0.4626199999999999  0.16345  1.0000
  C   C166      1.0  0.91399  0.45891  0.16396  1.0000
  C   C167      1.0  0.88253  0.42039  0.26725  1.0000
  C   C168      1.0  0.9364600000000001  0.40105  0.32235  1.0000
  N   N1        1.0  0.13559000000000004  0.9009099999999999  0.1815  1.0000
  N   N2        1.0  0.9284900000000001  0.93781  0.28598  1.0000
  N   N3        1.0  0.21756000000000003  0.09863  0.81852  1.0000
  N   N4        1.0  0.15179  0.06194  0.71417  1.0000
  N   N5        1.0  0.96363  0.8185  0.90113  1.0000
  N   N6        1.0  0.13405000000000006  0.7140999999999998  0.9378600000000001  1.0000
  N   N7        1.0  0.68295  0.18163  0.09898  1.0000
  N   N8        1.0  0.78553  0.286  0.0622  1.0000
  N   N9        1.0  0.61443  0.3185  0.59909  1.0000
  N   N10       1.0  0.82153  0.21404  0.56219  1.0000
  N   N11       1.0  0.5322499999999999  0.68161  0.40126000000000006  1.0000
  N   N12       1.0  0.5980999999999999  0.78587  0.43806  1.0000
  N   N13       1.0  0.78639  0.59888  0.6815  1.0000
  N   N14       1.0  0.6160200000000001  0.5620699999999998  0.78591  1.0000
  N   N15       1.0  0.06703000000000002  0.40102  0.31838  1.0000
  N   N16       1.0  0.9645  0.43779999999999997  0.21398  1.0000
  O   O1        1.0  0.36661  0.23025  0.13118  1.0000
  O   O2        1.0  0.23065  0.31584  0.18786  1.0000
  O   O3        1.0  0.23063999999999996  0.15118  0.21006000000000002  1.0000
  O   O4        1.0  0.24234  0.01897  0.21888  1.0000
  O   O5        1.0  0.06828  0.03778  0.30303  1.0000
  O   O6        1.0  0.05539  0.9359799999999999  0.40597000000000005  1.0000
  O   O7        1.0  0.1246500000000001  0.84341  0.45610000000000006  1.0000
  O   O8        1.0  0.7277800000000005  0.76955  0.8683200000000001  1.0000
  O   O9        1.0  0.7308699999999999  0.68408  0.8123300000000001  1.0000
  O   O10       1.0  0.5936499999999999  0.84865  0.7878  1.0000
  O   O11       1.0  0.4807500000000001  0.98065  0.7781  1.0000
  O   O12       1.0  0.4048700000000001  0.9602499999999999  0.6962  1.0000
  O   O13       1.0  0.3937300000000001  0.06574  0.59443  1.0000
  O   O14       1.0  0.42391999999999996  0.15739  0.54349  1.0000
  O   O15       1.0  0.4030799999999999  0.86745  0.23085  1.0000
  O   O16       1.0  0.4562  0.81188  0.3165  1.0000
  O   O17       1.0  0.6197200000000003  0.78911  0.15182  1.0000
  O   O18       1.0  0.7380700000000001  0.7785  0.01906  1.0000
  O   O19       1.0  0.89761  0.69679  0.03829  1.0000
  O   O20       1.0  0.012700000000000012  0.59447  0.93418  1.0000
  O   O21       1.0  0.03203000000000003  0.54343  0.84272  1.0000
  O   O22       1.0  0.4944400000000002  0.13445  0.7715299999999999  1.0000
  O   O23       1.0  0.5812600000000002  0.18757  0.68456  1.0000
  O   O24       1.0  0.5564  0.21288999999999997  0.8487700000000001  1.0000
  O   O25       1.0  0.53841  0.22214  0.9806000000000001  1.0000
  O   O26       1.0  0.6345000000000001  0.30412  0.96044  1.0000
  O   O27       1.0  0.5386800000000003  0.40606999999999993  0.06421  1.0000
  O   O28       1.0  0.4200300000000001  0.45626999999999995  0.15687  1.0000
  O   O29       1.0  0.3835  0.36881  0.27006  1.0000
  O   O30       1.0  0.51917  0.31225  0.18425  1.0000
  O   O31       1.0  0.51936  0.28983  0.34886  1.0000
  O   O32       1.0  0.50769  0.28112  0.48105  1.0000
  O   O33       1.0  0.6817500000000001  0.19696999999999998  0.46229000000000003  1.0000
  O   O34       1.0  0.6944400000000001  0.09422999999999998  0.56516  1.0000
  O   O35       1.0  0.62539  0.04377  0.65742  1.0000
  O   O36       1.0  0.022460000000000008  0.6317799999999999  0.72857  1.0000
  O   O37       1.0  0.012840000000000044  0.68751  0.81548  1.0000
  O   O38       1.0  0.15619999999999995  0.71206  0.6517  1.0000
  O   O39       1.0  0.2692000000000002  0.72182  0.51951  1.0000
  O   O40       1.0  0.34491000000000005  0.8036799999999998  0.54006  1.0000
  O   O41       1.0  0.35642000000000007  0.90562  0.43425  1.0000
  O   O42       1.0  0.32619000000000004  0.9565499999999999  0.34264  1.0000
  O   O43       1.0  0.34739  0.26927  0.63306  1.0000
  O   O44       1.0  0.29323000000000005  0.18357999999999997  0.68799  1.0000
  O   O45       1.0  0.13035000000000005  0.34825999999999996  0.71107  1.0000
  O   O46       1.0  0.01205000000000004  0.48101  0.72141  1.0000
  O   O47       1.0  0.8528899999999999  0.46190999999999993  0.80332  1.0000
  O   O48       1.0  0.7373000000000001  0.56572  0.90576  1.0000
  O   O49       1.0  0.7175700000000005  0.65744  0.9564900000000001  1.0000
  O   O50       1.0  0.2491299999999999  0.72871  0.36805  1.0000
  O   O51       1.0  0.16877000000000006  0.81538  0.31261  1.0000
  O   O52       1.0  0.19355000000000003  0.65118  0.2874  1.0000
  O   O53       1.0  0.21160000000000004  0.51934  0.27792  1.0000
  O   O54       1.0  0.11587000000000003  0.53971  0.19584  1.0000
  O   O55       1.0  0.21137  0.43556  0.09402  1.0000
  O   O56       1.0  0.33011  0.34301  0.04375  1.0000
  O   O57       1.0  0.8747500000000006  0.9808099999999998  0.51946  1.0000
  O   O58       1.0  0.37504  0.01947  0.4806  1.0000
  O   O59       1.0  0.14408999999999994  0.48070999999999997  0.9805  1.0000
  O   O60       1.0  0.6059100000000001  0.5197  0.01923  1.0000
