data_image0
_chemical_formula_structural       La4H160C160N24Cl4O40
_chemical_formula_sum              "La4 H160 C160 N24 Cl4 O40"
_cell_length_a       16.13542
_cell_length_b       18.21293
_cell_length_c       18.20737
_cell_angle_alpha    90.0634
_cell_angle_beta     90.00495
_cell_angle_gamma    89.98876000000001

_symmetry_space_group_name_H-M    'P 1'
_symmetry_Int_Tables_number       1

loop_
  _symmetry_equiv_pos_as_xyz
  'x,y,z'

loop_
  _atom_site_type_symbol
  _atom_site_label
  _atom_site_symmetry_multiplicity
  _atom_site_fract_x
  _atom_site_fract_y
  _atom_site_fract_z
  _atom_site_occupancy
  La  La1       1.0  0.25036  0.71303  0.28664  1.0000
  La  La2       1.0  0.75032  0.28686  0.71342  1.0000
  La  La3       1.0  0.5001  0.21347  0.21308  1.0000
  La  La4       1.0  0.9999700000000001  0.7863600000000002  0.7865499999999999  1.0000
  H   H1        1.0  0.09597  0.8849800000000001  0.00624  1.0000
  H   H2        1.0  0.27484  0.71733  0.90246  1.0000
  H   H3        1.0  0.7972100000000002  0.91121  0.52386  1.0000
  H   H4        1.0  0.49503  0.05374000000000001  0.7984799999999997  1.0000
  H   H5        1.0  0.44032  0.9375000000000001  0.9777199999999999  1.0000
  H   H6        1.0  0.3955500000000001  0.63358  0.90433  1.0000
  H   H7        1.0  0.3613300000000001  0.1316  0.35758  1.0000
  H   H8        1.0  0.19253000000000003  0.9572700000000001  0.08847999999999998  1.0000
  H   H9        1.0  0.57536  0.2889100000000001  0.5416499999999999  1.0000
  H   H10       1.0  0.85075  0.16592000000000007  0.9151699999999999  1.0000
  H   H11       1.0  0.81069  0.50874  0.35366  1.0000
  H   H12       1.0  0.28201  0.35331  0.31637  1.0000
  H   H13       1.0  0.63831  0.35723  0.13196  1.0000
  H   H14       1.0  0.05991000000000001  0.02193  0.06232  1.0000
  H   H15       1.0  0.69243  0.04257  0.91145  1.0000
  H   H16       1.0  0.14723000000000006  0.3855100000000001  0.10254999999999997  1.0000
  H   H17       1.0  0.95224  0.4102100000000001  0.97435  1.0000
  H   H18       1.0  0.64933  0.61561  0.62096  1.0000
  H   H19       1.0  0.3100600000000001  0.43785  0.52199  1.0000
  H   H20       1.0  0.31073  0.4915  0.64623  1.0000
  H   H21       1.0  0.67448  0.21138  0.04182  1.0000
  H   H22       1.0  0.14506  0.4043900000000001  0.86721  1.0000
  H   H23       1.0  0.52527  0.59762  0.21663999999999997  1.0000
  H   H24       1.0  0.60044  0.4148900000000001  0.33431  1.0000
  H   H25       1.0  0.99523  0.94636  0.20161999999999994  1.0000
  H   H26       1.0  0.89718  0.60243  0.11398  1.0000
  H   H27       1.0  0.030760000000000006  0.12446000000000002  0.7095099999999998  1.0000
  H   H28       1.0  0.4689100000000001  0.29017000000000004  0.8754899999999999  1.0000
  H   H29       1.0  0.6044100000000002  0.90555  0.6328  1.0000
  H   H30       1.0  0.6893700000000003  0.64626  0.49139999999999995  1.0000
  H   H31       1.0  0.80991  0.56203  0.47811999999999993  1.0000
  H   H32       1.0  0.3545000000000001  0.13320000000000007  0.59494  1.0000
  H   H33       1.0  0.7824  0.6467100000000002  0.6834599999999997  1.0000
  H   H34       1.0  0.22513000000000005  0.0975  0.28289  1.0000
  H   H35       1.0  0.11569  0.84108  0.61593  1.0000
  H   H36       1.0  0.75488  0.44609000000000004  0.2985399999999999  1.0000
  H   H37       1.0  0.59546  0.11451  0.9939599999999998  1.0000
  H   H38       1.0  0.29766  0.08969  0.47466  1.0000
  H   H39       1.0  0.39701  0.3974600000000001  0.8857999999999999  1.0000
  H   H40       1.0  0.43918  0.99113  0.85342  1.0000
  H   H41       1.0  0.05753  0.5425500000000001  0.58794  1.0000
  H   H42       1.0  0.203  0.52419  0.9111199999999999  1.0000
  H   H43       1.0  0.65769  0.5401200000000002  0.34705999999999987  1.0000
  H   H44       1.0  0.42088  0.99743  0.54374  1.0000
  H   H45       1.0  0.5921600000000002  0.9597000000000001  0.84679  1.0000
  H   H46       1.0  0.8596  0.86918  0.64167  1.0000
  H   H47       1.0  0.71935  0.6243200000000002  0.7906199999999998  1.0000
  H   H48       1.0  0.10078  0.11622000000000002  0.8792899999999999  1.0000
  H   H49       1.0  0.6007600000000002  0.88366  0.12079  1.0000
  H   H50       1.0  0.17631000000000005  0.90688  0.5086399999999999  1.0000
  H   H51       1.0  0.64768  0.61426  0.89765  1.0000
  H   H52       1.0  0.61139  0.14284  0.63244  1.0000
  H   H53       1.0  0.10028  0.5849900000000001  0.66559  1.0000
  H   H54       1.0  0.04785000000000001  0.97441  0.41007999999999994  1.0000
  H   H55       1.0  0.47508  0.21706  0.59767  1.0000
  H   H56       1.0  0.40444  0.99385  0.11423  1.0000
  H   H57       1.0  0.96743  0.14697  0.81674  1.0000
  H   H58       1.0  0.85528  0.867  0.40419  1.0000
  H   H59       1.0  0.78075  0.20966  0.37558  1.0000
  H   H60       1.0  0.53071  0.87556  0.2902799999999999  1.0000
  H   H61       1.0  0.07233000000000003  0.59225  0.00916  1.0000
  H   H62       1.0  0.56087  0.85326  0.99107  1.0000
  H   H63       1.0  0.19621000000000005  0.46074000000000004  0.4223  1.0000
  H   H64       1.0  0.4458400000000001  0.07780000000000001  0.9605599999999999  1.0000
  H   H65       1.0  0.32558  0.04156000000000001  0.21114  1.0000
  H   H66       1.0  0.57907  0.54381  0.9976099999999999  1.0000
  H   H67       1.0  0.88444  0.61581  0.84107  1.0000
  H   H68       1.0  0.1028  0.11388000000000001  0.60245  1.0000
  H   H69       1.0  0.8259700000000002  0.95846  0.78847  1.0000
  H   H70       1.0  0.97527  0.78284  0.40276  1.0000
  H   H71       1.0  0.13262000000000004  0.65826  0.11649  1.0000
  H   H72       1.0  0.92721  0.00925  0.59246  1.0000
  H   H73       1.0  0.9460400000000002  0.92199  0.03955  1.0000
  H   H74       1.0  0.64553  0.59458  0.13271  1.0000
  H   H75       1.0  0.3508600000000001  0.83405  0.08481  1.0000
  H   H76       1.0  0.38355  0.38377  0.15862999999999997  1.0000
  H   H77       1.0  0.17046  0.04308  0.5021799999999998  1.0000
  H   H78       1.0  0.03243  0.81671  0.14706  1.0000
  H   H79       1.0  0.89977  0.66562  0.58505  1.0000
  H   H80       1.0  0.71763  0.31658  0.35321  1.0000
  H   H81       1.0  0.70233  0.4740400000000001  0.08961999999999999  1.0000
  H   H82       1.0  0.69628  0.53913  0.57801  1.0000
  H   H83       1.0  0.3294600000000001  0.49787000000000003  0.9566099999999998  1.0000
  H   H84       1.0  0.65457  0.38548000000000004  0.4939799999999999  1.0000
  H   H85       1.0  0.21895000000000006  0.37553000000000003  0.20962999999999996  1.0000
  H   H86       1.0  0.61657  0.15865000000000004  0.38361  1.0000
  H   H87       1.0  0.02507  0.40265  0.783  1.0000
  H   H88       1.0  0.8666900000000002  0.11647  0.65858  1.0000
  H   H89       1.0  0.4528600000000001  0.58963  0.02417  1.0000
  H   H90       1.0  0.39962  0.33416  0.41499  1.0000
  H   H91       1.0  0.82941  0.50224  0.04316  1.0000
  H   H92       1.0  0.8508100000000002  0.37916  0.38408  1.0000
  H   H93       1.0  0.89925  0.87928  0.11614999999999999  1.0000
  H   H94       1.0  0.74521  0.7012400000000001  0.5541799999999998  1.0000
  H   H95       1.0  0.24518  0.29862  0.4461199999999999  1.0000
  H   H96       1.0  0.38896  0.6303  0.14163  1.0000
  H   H97       1.0  0.34541  0.49382000000000004  0.38532999999999995  1.0000
  H   H98       1.0  0.5476800000000002  0.026000000000000006  0.58996  1.0000
  H   H99       1.0  0.55982  0.9778900000000001  0.9376199999999999  1.0000
  H   H100      1.0  0.4269100000000001  0.9910300000000001  0.4074999999999999  1.0000
  H   H101      1.0  0.15382  0.6148400000000003  0.5060099999999998  1.0000
  H   H102      1.0  0.3037600000000001  0.5782400000000001  0.53928  1.0000
  H   H103      1.0  0.6335500000000002  0.34146  0.8840599999999998  1.0000
  H   H104      1.0  0.3424700000000001  0.3471  0.54017  1.0000
  H   H105      1.0  0.8522500000000002  0.10264  0.38571  1.0000
  H   H106      1.0  0.21732000000000007  0.68355  0.64683  1.0000
  H   H107      1.0  0.6491  0.08493000000000002  0.83406  1.0000
  H   H108      1.0  0.06077000000000001  0.14662  0.00893  1.0000
  H   H109      1.0  0.50488  0.7982900000000003  0.053599999999999995  1.0000
  H   H110      1.0  0.14935  0.9150800000000001  0.16599999999999998  1.0000
  H   H111      1.0  0.60265  0.88595  0.3973599999999999  1.0000
  H   H112      1.0  0.07947000000000003  0.4561  0.0020599999999999998  1.0000
  H   H113      1.0  0.46739  0.85308  0.18312  1.0000
  H   H114      1.0  0.93935  0.00888  0.14656  1.0000
  H   H115      1.0  0.3076000000000001  0.91138  0.042309999999999987  1.0000
  H   H116      1.0  0.9254900000000003  0.45885000000000004  0.71099  1.0000
  H   H117      1.0  0.05406  0.03963  0.9220499999999999  1.0000
  H   H118      1.0  0.90459  0.00619  0.8854899999999999  1.0000
  H   H119      1.0  0.67679  0.09284  0.49101999999999996  1.0000
  H   H120      1.0  0.89588  0.36702  0.09477999999999998  1.0000
  H   H121      1.0  0.14907  0.38432  0.37944999999999995  1.0000
  H   H122      1.0  0.67041  0.9566500000000001  0.49768999999999997  1.0000
  H   H123      1.0  0.15779  0.45987  0.65277  1.0000
  H   H124      1.0  0.44248  0.41192  0.45718  1.0000
  H   H125      1.0  0.55422  0.9602700000000001  0.07791  1.0000
  H   H126      1.0  0.8459900000000002  0.5060300000000001  0.6148699999999998  1.0000
  H   H127      1.0  0.25476  0.55405  0.7013699999999999  1.0000
  H   H128      1.0  0.80402  0.42205  0.46064  1.0000
  H   H129      1.0  0.19019000000000005  0.47811  0.56201  1.0000
  H   H130      1.0  0.8423  0.65276  0.45989  1.0000
  H   H131      1.0  0.6901500000000003  0.52198  0.4378299999999999  1.0000
  H   H132      1.0  0.9208200000000002  0.0026399999999999996  0.45620999999999995  1.0000
  H   H133      1.0  0.17483  0.78878  0.95887  1.0000
  H   H134      1.0  0.14035  0.64181  0.8688299999999998  1.0000
  H   H135      1.0  0.4246200000000001  0.5416000000000001  0.28902  1.0000
  H   H136      1.0  0.9077900000000002  0.15314  0.04045  1.0000
  H   H137      1.0  0.82382  0.5085500000000001  0.90691  1.0000
  H   H138      1.0  0.94024  0.06238  0.02218  1.0000
  H   H139      1.0  0.4079000000000001  0.8467500000000002  0.9594599999999999  1.0000
  H   H140      1.0  0.3229  0.49104  0.09285999999999998  1.0000
  H   H141      1.0  0.72536  0.90246  0.71628  1.0000
  H   H142      1.0  0.35233  0.89746  0.6142699999999999  1.0000
  H   H143      1.0  0.35058  0.6211200000000002  0.61586  1.0000
  H   H144      1.0  0.57301  0.40764  0.99123  1.0000
  H   H145      1.0  0.55759  0.45736  0.41197  1.0000
  H   H146      1.0  0.80758  0.08847000000000001  0.9574899999999998  1.0000
  H   H147      1.0  0.07462000000000003  0.7110100000000003  0.45912  1.0000
  H   H148      1.0  0.00478  0.20163  0.94642  1.0000
  H   H149      1.0  0.7752100000000002  0.28314  0.09773999999999998  1.0000
  H   H150      1.0  0.28072  0.79053  0.62441  1.0000
  H   H151      1.0  0.11159000000000002  0.85743  0.36799  1.0000
  H   H152      1.0  0.10441  0.09471  0.36674  1.0000
  H   H153      1.0  0.96915  0.7095600000000002  0.12457  1.0000
  H   H154      1.0  0.18945000000000006  0.35371  0.50888  1.0000
  H   H155      1.0  0.09237  0.04023  0.15309  1.0000
  H   H156      1.0  0.9425400000000003  0.5879500000000002  0.54266  1.0000
  H   H157      1.0  0.36661  0.88376  0.34135  1.0000
  H   H158      1.0  0.53234  0.18319  0.8533  1.0000
  H   H159      1.0  0.88845  0.36794  0.85745  1.0000
  H   H160      1.0  0.3991200000000001  0.12071  0.8840299999999999  1.0000
  C   C1        1.0  0.03314000000000002  0.06525  0.72232  1.0000
  C   C2        1.0  0.47825  0.90816  0.15981  1.0000
  C   C3        1.0  0.43212  0.33516000000000007  0.9807  1.0000
  C   C4        1.0  0.5701900000000002  0.06069000000000001  0.33041  1.0000
  C   C5        1.0  0.63414  0.06387  0.88891  1.0000
  C   C6        1.0  0.61552  0.41014  0.15104  1.0000
  C   C7        1.0  0.5216  0.15987  0.9084199999999999  1.0000
  C   C8        1.0  0.9875400000000002  0.77743  0.52044  1.0000
  C   C9        1.0  0.35292  0.44728  0.06216  1.0000
  C   C10       1.0  0.02171  0.8399700000000001  0.09190999999999999  1.0000
  C   C11       1.0  0.9512600000000002  0.8026800000000002  0.45506  1.0000
  C   C12       1.0  0.5130600000000002  0.855  0.03407999999999999  1.0000
  C   C13       1.0  0.8935000000000002  0.049120000000000004  0.48482  1.0000
  C   C14       1.0  0.1343  0.9359400000000001  0.1111  1.0000
  C   C15       1.0  0.44712000000000013  0.48555000000000004  0.27783  1.0000
  C   C16       1.0  0.8534100000000002  0.5525300000000001  0.93758  1.0000
  C   C17       1.0  0.64312  0.37004  0.4356299999999999  1.0000
  C   C18       1.0  0.2949700000000001  0.69759  0.09044999999999997  1.0000
  C   C19       1.0  0.46672000000000013  0.27763  0.93477  1.0000
  C   C20       1.0  0.9321200000000002  0.6649300000000001  0.01923  1.0000
  C   C21       1.0  0.71685  0.5651200000000001  0.7777299999999998  1.0000
  C   C22       1.0  0.7832  0.22252  0.43482  1.0000
  C   C23       1.0  0.3931400000000001  0.93558  0.12964999999999996  1.0000
  C   C24       1.0  0.21667000000000006  0.43476  0.22232999999999997  1.0000
  C   C25       1.0  0.8495000000000003  0.87345  0.52344  1.0000
  C   C26       1.0  0.5117600000000002  0.48006  0.22262  1.0000
  C   C27       1.0  0.7050800000000003  0.09077  0.69935  1.0000
  C   C28       1.0  0.10023  0.9755  0.37243  1.0000
  C   C29       1.0  0.48692  0.03418  0.85519  1.0000
  C   C30       1.0  0.26149  0.7219400000000002  0.020139999999999995  1.0000
  C   C31       1.0  0.39753  0.9469200000000001  0.4380799999999999  1.0000
  C   C32       1.0  0.17947  0.56048  0.16948  1.0000
  C   C33       1.0  0.20514  0.90928  0.3007399999999999  1.0000
  C   C34       1.0  0.86583  0.11109  0.93622  1.0000
  C   C35       1.0  0.95766  0.9026700000000001  0.09581  1.0000
  C   C36       1.0  0.11712000000000003  0.45593000000000006  0.84982  1.0000
  C   C37       1.0  0.7629700000000003  0.46567  0.35529999999999995  1.0000
  C   C38       1.0  0.8869600000000002  0.61169  0.9005599999999999  1.0000
  C   C39       1.0  0.40022000000000013  0.62699  0.02351  1.0000
  C   C40       1.0  0.9871  0.9658100000000001  0.14487  1.0000
  C   C41       1.0  0.8193100000000002  0.61623  0.5034099999999999  1.0000
  C   C42       1.0  0.61573  0.4359900000000001  0.38912999999999986  1.0000
  C   C43       1.0  0.72834  0.3400300000000001  0.40831  1.0000
  C   C44       1.0  0.6453800000000002  0.55453  0.89519  1.0000
  C   C45       1.0  0.30319  0.9854300000000001  0.22203  1.0000
  C   C46       1.0  0.82033  0.16968  0.56072  1.0000
  C   C47       1.0  0.38431  0.38902000000000003  0.43594  1.0000
  C   C48       1.0  0.20760000000000006  0.40449  0.4027699999999999  1.0000
  C   C49       1.0  0.35464  0.8950100000000001  0.5545099999999998  1.0000
  C   C50       1.0  0.54501  0.40943  0.19916999999999996  1.0000
  C   C51       1.0  0.3568  0.45138  0.98511  1.0000
  C   C52       1.0  0.9783000000000002  0.09188  0.8400499999999997  1.0000
  C   C53       1.0  0.14544000000000007  0.44527000000000005  0.10468999999999998  1.0000
  C   C54       1.0  0.5424600000000003  0.9040600000000001  0.09725  1.0000
  C   C55       1.0  0.13307  0.043500000000000004  0.3492  1.0000
  C   C56       1.0  0.10440000000000003  0.05414000000000001  0.60469  1.0000
  C   C57       1.0  0.60008  0.02478  0.6275899999999999  1.0000
  C   C58       1.0  0.89991  0.37253  0.9755199999999999  1.0000
  C   C59       1.0  0.79503  0.30071  0.90947  1.0000
  C   C60       1.0  0.4575  0.09727000000000001  0.9043599999999999  1.0000
  C   C61       1.0  0.2830700000000001  0.77764  0.56518  1.0000
  C   C62       1.0  0.10658000000000002  0.48463  0.04869  1.0000
  C   C63       1.0  0.67962  0.43929000000000007  0.83058  1.0000
  C   C64       1.0  0.69706  0.22220000000000004  0.9857099999999999  1.0000
  C   C65       1.0  0.012580000000000003  0.52029  0.77741  1.0000
  C   C66       1.0  0.45492  0.19869  0.40947  1.0000
  C   C67       1.0  0.29221  0.5975800000000001  0.5955799999999999  1.0000
  C   C68       1.0  0.38425  0.1508  0.4104299999999999  1.0000
  C   C69       1.0  0.9308300000000003  0.11655  0.99692  1.0000
  C   C70       1.0  0.43091  0.8833400000000001  0.002999999999999999  1.0000
  C   C71       1.0  0.89748  0.05318  0.56188  1.0000
  C   C72       1.0  0.11307000000000003  0.90053  0.61175  1.0000
  C   C73       1.0  0.19702000000000006  0.77742  0.014979999999999999  1.0000
  C   C74       1.0  0.18202  0.48057  0.16485  1.0000
  C   C75       1.0  0.80323  0.014520000000000002  0.77775  1.0000
  C   C76       1.0  0.5529900000000002  0.27784  0.4854899999999999  1.0000
  C   C77       1.0  0.88441  0.6108  0.56405  1.0000
  C   C78       1.0  0.6330200000000002  0.9567100000000001  0.65053  1.0000
  C   C79       1.0  0.5691300000000002  0.003180000000000001  0.88345  1.0000
  C   C80       1.0  0.7924100000000002  0.40265  0.4043699999999999  1.0000
  C   C81       1.0  0.86402  0.11233  0.5991  1.0000
  C   C82       1.0  0.06986  0.9391800000000001  0.66936  1.0000
  C   C83       1.0  0.7385400000000002  0.0201  0.72257  1.0000
  C   C84       1.0  0.14280000000000004  0.63012  0.5643699999999998  1.0000
  C   C85       1.0  0.22805000000000006  0.66015  0.59171  1.0000
  C   C86       1.0  0.06775  0.019150000000000004  0.6648999999999998  1.0000
  C   C87       1.0  0.2985600000000001  0.69732  0.95479  1.0000
  C   C88       1.0  0.39364  0.95091  0.51515  1.0000
  C   C89       1.0  0.8655200000000002  0.34882  0.9102799999999999  1.0000
  C   C90       1.0  0.8672000000000002  0.3493900000000001  0.0436  1.0000
  C   C91       1.0  0.38639  0.38808  0.09918  1.0000
  C   C92       1.0  0.70152  0.95506  0.69713  1.0000
  C   C93       1.0  0.6499400000000002  0.47528000000000004  0.12728  1.0000
  C   C94       1.0  0.4513600000000001  0.19745000000000001  0.54514  1.0000
  C   C95       1.0  0.13559  0.5988200000000001  0.11220999999999999  1.0000
  C   C96       1.0  0.73712  0.6445500000000002  0.53447  1.0000
  C   C97       1.0  0.3204200000000001  0.8304000000000002  0.43925999999999993  1.0000
  C   C98       1.0  0.54882  0.54501  0.19722999999999993  1.0000
  C   C99       1.0  0.3658800000000001  0.8888600000000001  0.06367  1.0000
  C   C100      1.0  0.10233  0.56164  0.052929999999999984  1.0000
  C   C101      1.0  0.2015  0.045  0.30251  1.0000
  C   C102      1.0  0.81796  0.1652  0.48076  1.0000
  C   C103      1.0  0.85714  0.56445  0.63018  1.0000
  C   C104      1.0  0.3193700000000001  0.38363  0.4966999999999999  1.0000
  C   C105      1.0  0.39546  0.39532  0.94558  1.0000
  C   C106      1.0  0.11698  0.5891  0.8497099999999997  1.0000
  C   C107      1.0  0.1506  0.52362  0.8734299999999998  1.0000
  C   C108      1.0  0.61381  0.09921  0.38781  1.0000
  C   C109      1.0  0.9477500000000002  0.51497  0.72221  1.0000
  C   C110      1.0  0.42992  0.33065  0.06063999999999999  1.0000
  C   C111      1.0  0.63607  0.40093  0.8880499999999999  1.0000
  C   C112      1.0  0.5331100000000002  0.9347600000000001  0.27749  1.0000
  C   C113      1.0  0.6807500000000002  0.49666  0.38362999999999997  1.0000
  C   C114      1.0  0.6431700000000002  0.98516  0.45116  1.0000
  C   C115      1.0  0.6171  0.54336  0.15036999999999995  1.0000
  C   C116      1.0  0.11563  0.5639900000000001  0.6107699999999999  1.0000
  C   C117      1.0  0.04691  0.59055  0.80095  1.0000
  C   C118      1.0  0.18075  0.5034  0.6162299999999999  1.0000
  C   C119      1.0  0.8569000000000002  0.5486500000000001  0.01466  1.0000
  C   C120      1.0  0.68196  0.51923  0.83504  1.0000
  C   C121      1.0  0.63441  0.08998000000000002  0.65139  1.0000
  C   C122      1.0  0.04241000000000002  0.09587000000000002  0.90271  1.0000
  C   C123      1.0  0.95313  0.80124  0.59063  1.0000
  C   C124      1.0  0.23712  0.35535  0.46575  1.0000
  C   C125      1.0  0.3641  0.8877600000000001  0.40085  1.0000
  C   C126      1.0  0.6064  0.5152  0.9511399999999999  1.0000
  C   C127      1.0  0.60255  0.43817000000000006  0.94717  1.0000
  C   C128      1.0  0.27147  0.40836000000000006  0.33997  1.0000
  C   C129      1.0  0.9667500000000002  0.72234  0.06533  1.0000
  C   C130      1.0  0.26289  0.5344900000000001  0.6446099999999999  1.0000
  C   C131      1.0  0.01298  0.14491  0.9658999999999999  1.0000
  C   C132      1.0  0.7718200000000002  0.59158  0.6600699999999998  1.0000
  C   C133      1.0  0.8545  0.10502  0.44547999999999993  1.0000
  C   C134      1.0  0.89313  0.06453  0.87017  1.0000
  C   C135      1.0  0.31797  0.8349000000000002  0.51923  1.0000
  C   C136      1.0  0.3670600000000001  0.65069  0.95577  1.0000
  C   C137      1.0  0.23858  0.9798800000000001  0.27728999999999987  1.0000
  C   C138      1.0  0.35679  0.4353700000000001  0.3699  1.0000
  C   C139      1.0  0.10706  0.86978  0.06463  1.0000
  C   C140      1.0  0.5678200000000002  0.98077  0.33492  1.0000
  C   C141      1.0  0.3829800000000001  0.15073  0.54369  1.0000
  C   C142      1.0  0.06931  0.9967000000000001  0.11651  1.0000
  C   C143      1.0  0.6068600000000002  0.1299  0.93552  1.0000
  C   C144      1.0  0.13456  0.91022  0.34883  1.0000
  C   C145      1.0  0.6471  0.062180000000000006  0.44707  1.0000
  C   C146      1.0  0.88301  0.84991  0.58901  1.0000
  C   C147      1.0  0.70775  0.5954  0.5974499999999998  1.0000
  C   C148      1.0  0.34998  0.12736  0.47572999999999993  1.0000
  C   C149      1.0  0.8831  0.8497  0.45582  1.0000
  C   C150      1.0  0.60448  0.94569  0.3951  1.0000
  C   C151      1.0  0.76173  0.27735  0.9801299999999998  1.0000
  C   C152      1.0  0.04892  0.45501  0.80283  1.0000
  C   C153      1.0  0.89548  0.60473  0.05422  1.0000
  C   C154      1.0  0.93009  0.66932  0.93921  1.0000
  C   C155      1.0  0.14658000000000004  0.9375400000000002  0.55257  1.0000
  C   C156      1.0  0.14297000000000007  0.014580000000000001  0.5486  1.0000
  C   C157      1.0  0.79883  0.30267000000000005  0.04520999999999999  1.0000
  C   C158      1.0  0.4883600000000001  0.22257000000000002  0.47998999999999997  1.0000
  C   C159      1.0  0.36578  0.64979  0.08902  1.0000
  C   C160      1.0  0.05231  0.72217  0.51524  1.0000
  N   N1        1.0  0.6704900000000003  0.18469  0.9308  1.0000
  N   N2        1.0  0.92071  0.56992  0.68514  1.0000
  N   N3        1.0  0.42037  0.43062  0.31505  1.0000
  N   N4        1.0  0.56117  0.2591300000000001  0.72025  1.0000
  N   N5        1.0  0.6884  0.24191  0.22036999999999995  1.0000
  N   N6        1.0  0.17048000000000005  0.81463  0.07017999999999998  1.0000
  N   N7        1.0  0.06073000000000001  0.7408  0.28186  1.0000
  N   N8        1.0  0.7412500000000002  0.54167  0.71489  1.0000
  N   N9        1.0  0.81158  0.7796  0.7556699999999998  1.0000
  N   N10       1.0  0.4392500000000001  0.71787  0.2567699999999999  1.0000
  N   N11       1.0  0.24087000000000006  0.45836  0.28518  1.0000
  N   N12       1.0  0.07917  0.6851  0.57029  1.0000
  N   N13       1.0  0.49113  0.21491  0.9583  1.0000
  N   N14       1.0  0.5795400000000003  0.31511  0.43048  1.0000
  N   N15       1.0  0.9910800000000002  0.78513  0.04192  1.0000
  N   N16       1.0  0.18851  0.7582500000000002  0.77961  1.0000
  N   N17       1.0  0.75892  0.28532  0.45834  1.0000
  N   N18       1.0  0.008860000000000003  0.0419  0.78517  1.0000
  N   N19       1.0  0.32956  0.9303600000000001  0.18461  1.0000
  N   N20       1.0  0.9395100000000002  0.28179000000000004  0.74083  1.0000
  N   N21       1.0  0.25862  0.7148600000000003  0.54167  1.0000
  N   N22       1.0  0.31148  0.22038  0.24100999999999997  1.0000
  N   N23       1.0  0.50875  0.95819  0.21469  1.0000
  N   N24       1.0  0.8294600000000002  0.06949  0.81535  1.0000
  Cl  Cl1       1.0  0.50372  0.10084  0.1003  1.0000
  Cl  Cl2       1.0  0.25486  0.60067  0.39888  1.0000
  Cl  Cl3       1.0  0.99949  0.8991100000000001  0.89888  1.0000
  Cl  Cl4       1.0  0.75021  0.3993  0.6008399999999999  1.0000
  O   O1        1.0  0.64442  0.23707000000000003  0.2786699999999999  1.0000
  O   O2        1.0  0.2631000000000001  0.71868  0.15143  1.0000
  O   O3        1.0  0.28362  0.77874  0.40404999999999996  1.0000
  O   O4        1.0  0.98556  0.75551  0.28131  1.0000
  O   O5        1.0  0.60013  0.27032  0.65912  1.0000
  O   O6        1.0  0.7637  0.25563  0.22232  1.0000
  O   O7        1.0  0.7162800000000002  0.40413  0.7788  1.0000
  O   O8        1.0  0.03359  0.90418  0.72134  1.0000
  O   O9        1.0  0.40002  0.65675  0.26685  1.0000
  O   O10       1.0  0.98335  0.7787200000000001  0.65163  1.0000
  O   O11       1.0  0.6047900000000003  0.26305  0.7788  1.0000
  O   O12       1.0  0.23638000000000006  0.22217  0.2557199999999999  1.0000
  O   O13       1.0  0.9664  0.72124  0.9041899999999999  1.0000
  O   O14       1.0  0.4662500000000001  0.27866  0.09566  1.0000
  O   O15       1.0  0.14960000000000007  0.76744  0.84104  1.0000
  O   O16       1.0  0.10037  0.72952  0.3426299999999999  1.0000
  O   O17       1.0  0.51304  0.34893000000000013  0.22140999999999997  1.0000
  O   O18       1.0  0.7369600000000002  0.15140000000000006  0.72144  1.0000
  O   O19       1.0  0.84998  0.84093  0.76687  1.0000
  O   O20       1.0  0.89644  0.22279000000000002  0.73707  1.0000
  O   O21       1.0  0.014690000000000003  0.28132  0.7554399999999998  1.0000
  O   O22       1.0  0.51403  0.71893  0.24069999999999997  1.0000
  O   O23       1.0  0.73739  0.77776  0.7375899999999997  1.0000
  O   O24       1.0  0.8998600000000002  0.34253  0.72958  1.0000
  O   O25       1.0  0.6496600000000002  0.23267000000000002  0.15886  1.0000
  O   O26       1.0  0.01662  0.65146  0.7782  1.0000
  O   O27       1.0  0.2638  0.7443600000000002  0.77774  1.0000
  O   O28       1.0  0.48604000000000014  0.24448000000000003  0.7217599999999998  1.0000
  O   O29       1.0  0.39622  0.77671  0.26317  1.0000
  O   O30       1.0  0.35006  0.15911  0.22978  1.0000
  O   O31       1.0  0.10378000000000003  0.73704  0.22286  1.0000
  O   O32       1.0  0.53366  0.09577000000000002  0.27856  1.0000
  O   O33       1.0  0.3554100000000001  0.27873  0.23696999999999996  1.0000
  O   O34       1.0  0.23687000000000005  0.8485600000000001  0.27871  1.0000
  O   O35       1.0  0.76315  0.27851  0.8488399999999999  1.0000
  O   O36       1.0  0.85481  0.72115  0.76303  1.0000
  O   O37       1.0  0.21592000000000006  0.59561  0.22139999999999999  1.0000
  O   O38       1.0  0.4868200000000001  0.21989  0.34860999999999986  1.0000
  O   O39       1.0  0.1448  0.7632900000000001  0.7211699999999998  1.0000
  O   O40       1.0  0.78362  0.22142  0.59594  1.0000
