data_image0
_chemical_formula_structural       Gd8H72C144N24O48
_chemical_formula_sum              "Gd8 H72 C144 N24 O48"
_cell_length_a       9.77324
_cell_length_b       16.67616
_cell_length_c       27.4514
_cell_angle_alpha    96.83936
_cell_angle_beta     89.8729
_cell_angle_gamma    89.76129

_symmetry_space_group_name_H-M    'P 1'
_symmetry_Int_Tables_number       1

loop_
  _symmetry_equiv_pos_as_xyz
  'x,y,z'

loop_
  _atom_site_type_symbol
  _atom_site_label
  _atom_site_symmetry_multiplicity
  _atom_site_fract_x
  _atom_site_fract_y
  _atom_site_fract_z
  _atom_site_occupancy
  Gd  Gd1       1.0  0.38312000000000007  0.30418000000000006  0.24426  1.0000
  Gd  Gd2       1.0  0.79669  0.48567  0.7490400000000003  1.0000
  Gd  Gd3       1.0  0.8766800000000001  0.1957  0.75404  1.0000
  Gd  Gd4       1.0  0.30296  0.014010000000000003  0.25107  1.0000
  Gd  Gd5       1.0  0.61689  0.6958300000000001  0.75574  1.0000
  Gd  Gd6       1.0  0.20329999999999998  0.51434  0.25096  1.0000
  Gd  Gd7       1.0  0.12333000000000001  0.80431  0.24596000000000007  1.0000
  Gd  Gd8       1.0  0.69705  0.986  0.74893  1.0000
  H   H1        1.0  0.61364  0.36688  0.09845  1.0000
  H   H2        1.0  0.34965  0.57291  0.13393  1.0000
  H   H3        1.0  0.36412  0.59599  0.044160000000000005  1.0000
  H   H4        1.0  0.45038  0.6226700000000001  0.39081  1.0000
  H   H5        1.0  0.46884000000000003  0.36268  0.36994000000000005  1.0000
  H   H6        1.0  0.50668  0.3675  0.46173  1.0000
  H   H7        1.0  0.003109999999999999  0.43967  0.13952  1.0000
  H   H8        1.0  0.17320000000000002  0.20245  0.10067000000000001  1.0000
  H   H9        1.0  0.08498  0.20817  0.01391  1.0000
  H   H10       1.0  0.01682  0.23583  0.8724200000000001  1.0000
  H   H11       1.0  0.87057  0.47914000000000007  0.90796  1.0000
  H   H12       1.0  0.8916600000000001  0.45980000000000004  0.99727  1.0000
  H   H13       1.0  0.13022  0.23792  0.61082  1.0000
  H   H14       1.0  0.82504  0.42604  0.62102  1.0000
  H   H15       1.0  0.8629200000000001  0.43445  0.53043  1.0000
  H   H16       1.0  0.16855  0.23606  0.46324  1.0000
  H   H17       1.0  0.21809  0.24816  0.3737900000000001  1.0000
  H   H18       1.0  0.9622700000000001  0.4601199999999999  0.3875500000000001  1.0000
  H   H19       1.0  0.10831000000000002  0.13223  0.90039  1.0000
  H   H20       1.0  0.8428100000000001  0.92785  0.8672700000000001  1.0000
  H   H21       1.0  0.86125  0.90506  0.95689  1.0000
  H   H22       1.0  0.94481  0.87755  0.6089500000000002  1.0000
  H   H23       1.0  0.96807  0.13734  0.63009  1.0000
  H   H24       1.0  0.0076300000000000005  0.13226  0.53835  1.0000
  H   H25       1.0  0.4956400000000001  0.06268000000000003  0.85979  1.0000
  H   H26       1.0  0.67031  0.29778  0.8981000000000001  1.0000
  H   H27       1.0  0.5872599999999999  0.29175  0.98556  1.0000
  H   H28       1.0  0.52368  0.26261  0.12746  1.0000
  H   H29       1.0  0.37586  0.020459999999999996  0.09169  1.0000
  H   H30       1.0  0.39288  0.04124  0.00246  1.0000
  H   H31       1.0  0.63562  0.26132  0.38696  1.0000
  H   H32       1.0  0.32857000000000003  0.07596000000000001  0.3769600000000001  1.0000
  H   H33       1.0  0.36414  0.06761  0.46767  1.0000
  H   H34       1.0  0.66759  0.26471  0.53513  1.0000
  H   H35       1.0  0.71555  0.25187  0.62449  1.0000
  H   H36       1.0  0.46187  0.040330000000000005  0.61005  1.0000
  H   H37       1.0  0.38636  0.6331300000000001  0.9015500000000002  1.0000
  H   H38       1.0  0.65035  0.42709  0.86607  1.0000
  H   H39       1.0  0.63588  0.40402  0.95584  1.0000
  H   H40       1.0  0.54963  0.37734  0.60919  1.0000
  H   H41       1.0  0.5311600000000001  0.63733  0.63006  1.0000
  H   H42       1.0  0.49332000000000004  0.63251  0.53827  1.0000
  H   H43       1.0  0.99689  0.56034  0.86049  1.0000
  H   H44       1.0  0.8268100000000002  0.79756  0.89933  1.0000
  H   H45       1.0  0.91502  0.79184  0.98609  1.0000
  H   H46       1.0  0.9831800000000003  0.76418  0.12759  1.0000
  H   H47       1.0  0.12943  0.52087  0.09204000000000001  1.0000
  H   H48       1.0  0.10834000000000002  0.54021  0.0027300000000000002  1.0000
  H   H49       1.0  0.86978  0.76209  0.38918  1.0000
  H   H50       1.0  0.17496  0.57397  0.37898  1.0000
  H   H51       1.0  0.13708000000000004  0.5655599999999997  0.46957  1.0000
  H   H52       1.0  0.8314500000000001  0.76396  0.53676  1.0000
  H   H53       1.0  0.78191  0.75185  0.62621  1.0000
  H   H54       1.0  0.03774  0.53989  0.61245  1.0000
  H   H55       1.0  0.8917  0.86779  0.09962  1.0000
  H   H56       1.0  0.15721000000000002  0.07217  0.13273  1.0000
  H   H57       1.0  0.13875  0.09496  0.04311000000000001  1.0000
  H   H58       1.0  0.055200000000000006  0.12246000000000003  0.3910500000000001  1.0000
  H   H59       1.0  0.03193000000000001  0.86267  0.36991  1.0000
  H   H60       1.0  0.99237  0.86775  0.46165  1.0000
  H   H61       1.0  0.50436  0.9373299999999998  0.14022  1.0000
  H   H62       1.0  0.3297  0.70222  0.10191000000000001  1.0000
  H   H63       1.0  0.41274  0.70826  0.014440000000000003  1.0000
  H   H64       1.0  0.47633000000000003  0.7374  0.87254  1.0000
  H   H65       1.0  0.6241500000000001  0.97954  0.90832  1.0000
  H   H66       1.0  0.60712  0.95877  0.99754  1.0000
  H   H67       1.0  0.36439  0.73869  0.6130500000000002  1.0000
  H   H68       1.0  0.67143  0.9240600000000001  0.62305  1.0000
  H   H69       1.0  0.63586  0.9324  0.53233  1.0000
  H   H70       1.0  0.33241000000000004  0.7353  0.46488  1.0000
  H   H71       1.0  0.28446000000000005  0.74813  0.3755100000000001  1.0000
  H   H72       1.0  0.5381300000000001  0.95967  0.38995  1.0000
  C   C1        1.0  0.49662  0.49422  0.02629  1.0000
  C   C2        1.0  0.55668  0.41833  0.08796  1.0000
  C   C3        1.0  0.47758  0.46709  0.12273000000000003  1.0000
  C   C4        1.0  0.41012  0.5340899999999998  0.10738  1.0000
  C   C5        1.0  0.41852000000000006  0.5473  0.05864  1.0000
  C   C6        1.0  0.45209  0.44839  0.17371  1.0000
  C   C7        1.0  0.49313  0.49742000000000003  0.47303  1.0000
  C   C8        1.0  0.46199000000000007  0.56524  0.4056600000000001  1.0000
  C   C9        1.0  0.4552300000000001  0.49252  0.37397  1.0000
  C   C10       1.0  0.47334000000000004  0.4196599999999999  0.39384  1.0000
  C   C11       1.0  0.49316000000000004  0.422  0.44406  1.0000
  C   C12       1.0  0.4122700000000001  0.49406  0.32249  1.0000
  C   C13       1.0  0.00575  0.32881  0.03234  1.0000
  C   C14       1.0  0.023350000000000003  0.38756  0.11248  1.0000
  C   C15       1.0  0.09711  0.32137  0.12605  1.0000
  C   C16       1.0  0.11710000000000001  0.2544  0.09063  1.0000
  C   C17       1.0  0.07007  0.25752  0.04324  1.0000
  C   C18       1.0  0.16372  0.32241000000000003  0.17449000000000003  1.0000
  C   C19       1.0  0.97407  0.33955  0.98072  1.0000
  C   C20       1.0  0.99237  0.28725  0.89937  1.0000
  C   C21       1.0  0.9472  0.35971999999999993  0.88321  1.0000
  C   C22       1.0  0.90918  0.42295  0.91891  1.0000
  C   C23       1.0  0.92062  0.41261  0.96827  1.0000
  C   C24       1.0  0.93726  0.36629  0.82964  1.0000
  C   C25       1.0  0.015020000000000002  0.33995  0.5243  1.0000
  C   C26       1.0  0.06869  0.28181000000000006  0.5940100000000003  1.0000
  C   C27       1.0  0.9737699999999999  0.33044  0.6226900000000001  1.0000
  C   C28       1.0  0.89902  0.38737  0.5998  1.0000
  C   C29       1.0  0.91901  0.39197  0.55002  1.0000
  C   C30       1.0  0.9477400000000001  0.31796  0.67477  1.0000
  C   C31       1.0  0.04072  0.34262  0.47119  1.0000
  C   C32       1.0  0.12557  0.28446  0.44471  1.0000
  C   C33       1.0  0.15267  0.2914  0.39571  1.0000
  C   C34       1.0  0.09676  0.35653  0.37434  1.0000
  C   C35       1.0  0.00961  0.4099  0.40334000000000003  1.0000
  C   C36       1.0  0.1355  0.37034  0.32345000000000007  1.0000
  C   C37       1.0  0.9949200000000001  0.005849999999999998  0.97372  1.0000
  C   C38       1.0  0.05188000000000001  0.08122  0.91143  1.0000
  C   C39       1.0  0.97136  0.032990000000000054  0.8772000000000002  1.0000
  C   C40       1.0  0.90443  0.9665899999999998  0.89323  1.0000
  C   C41       1.0  0.9149700000000001  0.9534199999999998  0.94195  1.0000
  C   C42       1.0  0.94483  0.05175  0.8262  1.0000
  C   C43       1.0  0.9922700000000001  0.0025400000000000067  0.52695  1.0000
  C   C44       1.0  0.9579900000000001  0.9348500000000001  0.5941400000000002  1.0000
  C   C45       1.0  0.95201  0.007499999999999997  0.62589  1.0000
  C   C46       1.0  0.972  0.08033000000000001  0.60619  1.0000
  C   C47       1.0  0.99293  0.07786  0.55598  1.0000
  C   C48       1.0  0.9087400000000001  0.005999999999999987  0.67737  1.0000
  C   C49       1.0  0.5057  0.17201  0.96732  1.0000
  C   C50       1.0  0.51801  0.11435000000000003  0.8867500000000003  1.0000
  C   C51       1.0  0.59154  0.18008  0.87282  1.0000
  C   C52       1.0  0.61428  0.24624999999999997  0.9084300000000002  1.0000
  C   C53       1.0  0.5701600000000001  0.24287  0.95621  1.0000
  C   C54       1.0  0.6553  0.17871  0.82374  1.0000
  C   C55       1.0  0.47655  0.1607  0.01907  1.0000
  C   C56       1.0  0.49803  0.21171  0.10044000000000002  1.0000
  C   C57       1.0  0.45307000000000003  0.13936  0.11656000000000001  1.0000
  C   C58       1.0  0.41375  0.07674  0.08084  1.0000
  C   C59       1.0  0.42334  0.08775  0.03149  1.0000
  C   C60       1.0  0.44463  0.1326  0.17018  1.0000
  C   C61       1.0  0.51714  0.16097  0.47369  1.0000
  C   C62       1.0  0.57332  0.21813  0.40391  1.0000
  C   C63       1.0  0.47887000000000013  0.16989  0.37525  1.0000
  C   C64       1.0  0.40273000000000003  0.11388  0.3982  1.0000
  C   C65       1.0  0.42135000000000006  0.10943000000000001  0.44801  1.0000
  C   C66       1.0  0.45361000000000007  0.18222  0.32321  1.0000
  C   C67       1.0  0.54144  0.15821  0.52679  1.0000
  C   C68       1.0  0.62503  0.21614  0.5535  1.0000
  C   C69       1.0  0.65116  0.2087  0.6024600000000001  1.0000
  C   C70       1.0  0.59532  0.14341  0.62354  1.0000
  C   C71       1.0  0.50924  0.09044  0.59431  1.0000
  C   C72       1.0  0.63248  0.12933  0.67452  1.0000
  C   C73       1.0  0.5033800000000002  0.50578  0.97371  1.0000
  C   C74       1.0  0.44332000000000005  0.58168  0.91205  1.0000
  C   C75       1.0  0.5224200000000001  0.53292  0.87727  1.0000
  C   C76       1.0  0.58989  0.46592  0.89262  1.0000
  C   C77       1.0  0.58149  0.45271  0.9413600000000002  1.0000
  C   C78       1.0  0.5479000000000002  0.55163  0.82629  1.0000
  C   C79       1.0  0.50687  0.50259  0.52697  1.0000
  C   C80       1.0  0.53801  0.4347699999999999  0.59434  1.0000
  C   C81       1.0  0.54477  0.50749  0.62603  1.0000
  C   C82       1.0  0.52666  0.58035  0.6061600000000001  1.0000
  C   C83       1.0  0.50685  0.5780099999999999  0.55594  1.0000
  C   C84       1.0  0.5877400000000002  0.50595  0.67752  1.0000
  C   C85       1.0  0.99426  0.6712  0.9676600000000001  1.0000
  C   C86       1.0  0.9766600000000002  0.6124399999999999  0.8875200000000002  1.0000
  C   C87       1.0  0.90289  0.67863  0.87395  1.0000
  C   C88       1.0  0.8829  0.7456  0.90937  1.0000
  C   C89       1.0  0.9299200000000001  0.74249  0.95676  1.0000
  C   C90       1.0  0.83627  0.6775899999999998  0.82551  1.0000
  C   C91       1.0  0.025930000000000005  0.66047  0.01928  1.0000
  C   C92       1.0  0.007640000000000005  0.71276  0.10063  1.0000
  C   C93       1.0  0.0528  0.64029  0.1168  1.0000
  C   C94       1.0  0.09082  0.57706  0.0811  1.0000
  C   C95       1.0  0.07938  0.5874  0.03173  1.0000
  C   C96       1.0  0.06275  0.63372  0.17036000000000004  1.0000
  C   C97       1.0  0.9849900000000001  0.66006  0.47570000000000007  1.0000
  C   C98       1.0  0.93131  0.7182  0.4059900000000001  1.0000
  C   C99       1.0  0.02623  0.66957  0.37731  1.0000
  C   C100      1.0  0.10098000000000001  0.61264  0.40021  1.0000
  C   C101      1.0  0.08099  0.60804  0.4499800000000001  1.0000
  C   C102      1.0  0.05226  0.68205  0.32523  1.0000
  C   C103      1.0  0.95929  0.65739  0.52881  1.0000
  C   C104      1.0  0.87444  0.71556  0.55529  1.0000
  C   C105      1.0  0.8473300000000001  0.7086100000000001  0.60429  1.0000
  C   C106      1.0  0.90324  0.6434799999999999  0.62566  1.0000
  C   C107      1.0  0.99039  0.59011  0.59666  1.0000
  C   C108      1.0  0.8645000000000002  0.62966  0.67655  1.0000
  C   C109      1.0  0.00508  0.9941600000000002  0.026280000000000005  1.0000
  C   C110      1.0  0.9481400000000001  0.9188  0.08857  1.0000
  C   C111      1.0  0.02866  0.9670299999999998  0.1228  1.0000
  C   C112      1.0  0.09559  0.03343  0.10677  1.0000
  C   C113      1.0  0.08504000000000002  0.0466  0.05805000000000001  1.0000
  C   C114      1.0  0.05517  0.94827  0.17380000000000007  1.0000
  C   C115      1.0  0.007730000000000001  0.99747  0.47305  1.0000
  C   C116      1.0  0.04202  0.06516  0.40586000000000005  1.0000
  C   C117      1.0  0.04800000000000001  0.99251  0.37411000000000005  1.0000
  C   C118      1.0  0.028000000000000004  0.91968  0.39381  1.0000
  C   C119      1.0  0.007080000000000002  0.92215  0.4440200000000001  1.0000
  C   C120      1.0  0.09126  0.9940100000000001  0.32263  1.0000
  C   C121      1.0  0.4943000000000001  0.828  0.03268  1.0000
  C   C122      1.0  0.48199  0.88566  0.11325  1.0000
  C   C123      1.0  0.40846999999999994  0.81993  0.12718  1.0000
  C   C124      1.0  0.38572000000000006  0.75376  0.09157  1.0000
  C   C125      1.0  0.42984  0.75714  0.04379  1.0000
  C   C126      1.0  0.34471  0.8213  0.17626  1.0000
  C   C127      1.0  0.5234600000000001  0.83931  0.98094  1.0000
  C   C128      1.0  0.50198  0.7882999999999999  0.8995600000000001  1.0000
  C   C129      1.0  0.54693  0.86065  0.88344  1.0000
  C   C130      1.0  0.58625  0.92327  0.91916  1.0000
  C   C131      1.0  0.57666  0.91226  0.96851  1.0000
  C   C132      1.0  0.55538  0.86742  0.8298300000000001  1.0000
  C   C133      1.0  0.48287  0.83904  0.52631  1.0000
  C   C134      1.0  0.42669  0.78188  0.5961000000000001  1.0000
  C   C135      1.0  0.52114  0.8301200000000001  0.62475  1.0000
  C   C136      1.0  0.59728  0.8861299999999999  0.60181  1.0000
  C   C137      1.0  0.57866  0.89058  0.552  1.0000
  C   C138      1.0  0.5463999999999999  0.81778  0.6768000000000002  1.0000
  C   C139      1.0  0.45856  0.8418  0.47322  1.0000
  C   C140      1.0  0.37498  0.78387  0.4465  1.0000
  C   C141      1.0  0.34884  0.79131  0.39754  1.0000
  C   C142      1.0  0.40469  0.8566  0.37646  1.0000
  C   C143      1.0  0.49076  0.9095699999999999  0.40569  1.0000
  C   C144      1.0  0.36752  0.8706799999999999  0.32548  1.0000
  N   N1        1.0  0.56731  0.43137999999999993  0.0409  1.0000
  N   N2        1.0  0.4798600000000001  0.56834  0.45398  1.0000
  N   N3        1.0  0.97881  0.39195  0.0668  1.0000
  N   N4        1.0  0.00697  0.27699  0.94655  1.0000
  N   N5        1.0  0.0897  0.28594  0.54627  1.0000
  N   N6        1.0  0.98089  0.40345  0.45039  1.0000
  N   N7        1.0  0.06474  0.06822  0.9584100000000001  1.0000
  N   N8        1.0  0.97712  0.93166  0.54585  1.0000
  N   N9        1.0  0.47612  0.10976000000000005  0.9327600000000001  1.0000
  N   N10       1.0  0.51136  0.22249  0.053280000000000015  1.0000
  N   N11       1.0  0.5929  0.2143  0.45173  1.0000
  N   N12       1.0  0.48155  0.0973  0.54729  1.0000
  N   N13       1.0  0.43269  0.56863  0.9591  1.0000
  N   N14       1.0  0.52014  0.43167  0.54602  1.0000
  N   N15       1.0  0.021190000000000004  0.60806  0.9332  1.0000
  N   N16       1.0  0.99303  0.7230199999999999  0.05345  1.0000
  N   N17       1.0  0.9103  0.71407  0.45373  1.0000
  N   N18       1.0  0.019110000000000002  0.59656  0.54961  1.0000
  N   N19       1.0  0.9352700000000002  0.9317999999999997  0.041590000000000016  1.0000
  N   N20       1.0  0.022879999999999998  0.06835000000000001  0.4541500000000001  1.0000
  N   N21       1.0  0.5238800000000001  0.89025  0.06724  1.0000
  N   N22       1.0  0.48866  0.7775100000000001  0.94672  1.0000
  N   N23       1.0  0.4071  0.7857099999999999  0.54828  1.0000
  N   N24       1.0  0.51845  0.90271  0.45271  1.0000
  O   O1        1.0  0.40731  0.42807  0.29288  1.0000
  O   O2        1.0  0.21587000000000003  0.25713  0.18597  1.0000
  O   O3        1.0  0.1989  0.31326  0.29751  1.0000
  O   O4        1.0  0.4818  0.37816  0.18543  1.0000
  O   O5        1.0  0.97314  0.30541  0.79975  1.0000
  O   O6        1.0  0.98106  0.24956999999999996  0.6882  1.0000
  O   O7        1.0  0.8934100000000001  0.43285000000000007  0.8163600000000002  1.0000
  O   O8        1.0  0.17736  0.38941999999999993  0.20279  1.0000
  O   O9        1.0  0.39418  0.5041  0.20255  1.0000
  O   O10       1.0  0.36796  0.5603499999999999  0.30964000000000014  1.0000
  O   O11       1.0  0.10739  0.43936  0.30942000000000003  1.0000
  O   O12       1.0  0.88776  0.37331  0.70314  1.0000
  O   O13       1.0  0.9062600000000001  0.07186000000000002  0.70712  1.0000
  O   O14       1.0  0.7073200000000001  0.24349000000000004  0.81181  1.0000
  O   O15       1.0  0.6934400000000001  0.18662000000000004  0.7007300000000001  1.0000
  O   O16       1.0  0.97389  0.12188000000000003  0.81442  1.0000
  O   O17       1.0  0.4814300000000001  0.19315  0.20005  1.0000
  O   O18       1.0  0.48752000000000006  0.25029  0.30969  1.0000
  O   O19       1.0  0.39991  0.06655  0.18357  1.0000
  O   O20       1.0  0.66672  0.11153000000000003  0.79526  1.0000
  O   O21       1.0  0.88702  0.9960800000000001  0.7975700000000001  1.0000
  O   O22       1.0  0.8625100000000001  0.94026  0.69017  1.0000
  O   O23       1.0  0.606  0.06011  0.68838  1.0000
  O   O24       1.0  0.39364  0.12704  0.29498  1.0000
  O   O25       1.0  0.59269  0.57193  0.70712  1.0000
  O   O26       1.0  0.78416  0.74289  0.81403  1.0000
  O   O27       1.0  0.8011  0.68675  0.70249  1.0000
  O   O28       1.0  0.51819  0.62184  0.81457  1.0000
  O   O29       1.0  0.026870000000000005  0.6946  0.20025  1.0000
  O   O30       1.0  0.01894  0.75045  0.31181000000000003  1.0000
  O   O31       1.0  0.10659000000000002  0.56716  0.18364  1.0000
  O   O32       1.0  0.82256  0.61059  0.7972  1.0000
  O   O33       1.0  0.60581  0.49591000000000013  0.7974500000000002  1.0000
  O   O34       1.0  0.6320400000000002  0.43966000000000005  0.69036  1.0000
  O   O35       1.0  0.8926  0.56065  0.69058  1.0000
  O   O36       1.0  0.11224  0.62669  0.29686  1.0000
  O   O37       1.0  0.09374000000000002  0.92815  0.29288  1.0000
  O   O38       1.0  0.29269  0.75652  0.18819  1.0000
  O   O39       1.0  0.30656000000000005  0.81339  0.29927  1.0000
  O   O40       1.0  0.02612  0.87813  0.18558  1.0000
  O   O41       1.0  0.51858  0.8068800000000002  0.7999500000000002  1.0000
  O   O42       1.0  0.51249  0.7497299999999999  0.69031  1.0000
  O   O43       1.0  0.6001  0.93346  0.81643  1.0000
  O   O44       1.0  0.33328  0.88848  0.20474  1.0000
  O   O45       1.0  0.11297000000000001  0.003940000000000013  0.20244000000000006  1.0000
  O   O46       1.0  0.1375  0.05975000000000001  0.30983000000000005  1.0000
  O   O47       1.0  0.39402  0.9399  0.3116200000000001  1.0000
  O   O48       1.0  0.6063700000000001  0.87296  0.70502  1.0000
