data_image0
_chemical_formula_structural       Cu4H112C80N32
_chemical_formula_sum              "Cu4 H112 C80 N32"
_cell_length_a       10.23605
_cell_length_b       12.63656
_cell_length_c       24.05905
_cell_angle_alpha    89.76157
_cell_angle_beta     77.77891
_cell_angle_gamma    90.2603

_space_group_name_H-M_alt    "P 1"
_space_group_IT_number       1

loop_
  _space_group_symop_operation_xyz
  'x, y, z'

loop_
  _atom_site_type_symbol
  _atom_site_label
  _atom_site_symmetry_multiplicity
  _atom_site_fract_x
  _atom_site_fract_y
  _atom_site_fract_z
  _atom_site_occupancy
  Cu  Cu1       1.0  0.50133  0.77499  0.71541  1.0000
  Cu  Cu2       1.0  0.0005300000000000002  0.27969  0.78172  1.0000
  Cu  Cu3       1.0  0.5005200000000001  0.226  0.28306000000000003  1.0000
  Cu  Cu4       1.0  0.0002800000000000027  0.71903  0.21767  1.0000
  H   H1        1.0  0.73543  0.49188  0.81711  1.0000
  H   H2        1.0  0.6306599999999999  0.6965399999999999  0.8294700000000002  1.0000
  H   H3        1.0  0.7996700000000001  0.8119199999999999  0.51619  1.0000
  H   H4        1.0  0.3899000000000001  0.81531  0.6016800000000001  1.0000
  H   H5        1.0  0.20969999999999994  0.40254000000000006  0.6781900000000001  1.0000
  H   H6        1.0  0.82552  0.42502000000000006  0.66355  1.0000
  H   H7        1.0  0.8102999999999999  0.37259  0.7331000000000002  1.0000
  H   H8        1.0  0.6316  0.44797  0.62201  1.0000
  H   H9        1.0  0.49448000000000014  0.47725  0.67715  1.0000
  H   H10       1.0  0.5375400000000002  0.27458  0.60519  1.0000
  H   H11       1.0  0.4300300000000001  0.38003000000000003  0.59741  1.0000
  H   H12       1.0  0.5350100000000001  0.98695  0.4343200000000001  1.0000
  H   H13       1.0  0.6521800000000002  0.0019499999999999982  0.4773300000000001  1.0000
  H   H14       1.0  0.45915999999999996  0.13612  0.6847300000000002  1.0000
  H   H15       1.0  0.70717  0.6158  0.6559500000000001  1.0000
  H   H16       1.0  0.21865999999999994  0.10797  0.7613000000000001  1.0000
  H   H17       1.0  0.87631  0.96744  0.5925700000000002  1.0000
  H   H18       1.0  0.9848900000000005  0.07729  0.59073  1.0000
  H   H19       1.0  0.14418000000000006  0.99565  0.50776  1.0000
  H   H20       1.0  0.03738999999999997  0.88511  0.5114000000000001  1.0000
  H   H21       1.0  0.02350000000000006  0.77436  0.60034  1.0000
  H   H22       1.0  0.13631999999999997  0.07082  0.65746  1.0000
  H   H23       1.0  0.5613900000000001  0.35164  0.7416  1.0000
  H   H24       1.0  0.6576700000000001  0.27787  0.68631  1.0000
  H   H25       1.0  0.77996  0.80228  0.63303  1.0000
  H   H26       1.0  0.6187700000000002  0.81257  0.45355  1.0000
  H   H27       1.0  0.44852000000000003  0.81945  0.48843  1.0000
  H   H28       1.0  0.2626100000000001  0.90883  0.70394  1.0000
  H   H29       1.0  0.76969  0.9856400000000001  0.68481  1.0000
  H   H30       1.0  0.86968  0.19245  0.66831  1.0000
  H   H31       1.0  0.69629  0.31244999999999995  0.9796100000000002  1.0000
  H   H32       1.0  0.10657  0.32134  0.89526  1.0000
  H   H33       1.0  0.3022599999999999  0.8971799999999999  0.8204400000000001  1.0000
  H   H34       1.0  0.6836799999999998  0.9293  0.84076  1.0000
  H   H35       1.0  0.68891  0.87279  0.77284  1.0000
  H   H36       1.0  0.8833699999999999  0.95125  0.87777  1.0000
  H   H37       1.0  0.018049999999999823  0.97455  0.8202200000000002  1.0000
  H   H38       1.0  0.9710199999999999  0.7755399999999999  0.8962200000000002  1.0000
  H   H39       1.0  0.08320999999999996  0.87989  0.90143  1.0000
  H   H40       1.0  0.96649  0.47899  0.06466  1.0000
  H   H41       1.0  0.84913  0.50016  0.02231  1.0000
  H   H42       1.0  0.03856999999999997  0.6375399999999999  0.81536  1.0000
  H   H43       1.0  0.8018  0.11886  0.84302  1.0000
  H   H44       1.0  0.2733599999999999  0.60833  0.7357300000000002  1.0000
  H   H45       1.0  0.62177  0.47094  0.90699  1.0000
  H   H46       1.0  0.5154999999999998  0.58138  0.9086400000000002  1.0000
  H   H47       1.0  0.35486  0.49948  0.9919900000000003  1.0000
  H   H48       1.0  0.459  0.38824  0.98833  1.0000
  H   H49       1.0  0.4716600000000001  0.27892  0.89977  1.0000
  H   H50       1.0  0.3624399999999999  0.57623  0.8422600000000001  1.0000
  H   H51       1.0  0.9380599999999998  0.8468299999999999  0.7606100000000001  1.0000
  H   H52       1.0  0.8431300000000002  0.77792  0.81885  1.0000
  H   H53       1.0  0.7174200000000001  0.30607  0.86272  1.0000
  H   H54       1.0  0.87521  0.30841  0.042530000000000005  1.0000
  H   H55       1.0  0.04604  0.31432  0.008260000000000002  1.0000
  H   H56       1.0  0.23305999999999996  0.41508  0.7964800000000002  1.0000
  H   H57       1.0  0.26809  0.51081  0.18236  1.0000
  H   H58       1.0  0.37054000000000004  0.30556  0.16841000000000003  1.0000
  H   H59       1.0  0.19929999999999998  0.18753  0.4815  1.0000
  H   H60       1.0  0.60997  0.18853  0.39714  1.0000
  H   H61       1.0  0.79432  0.59506  0.32223  1.0000
  H   H62       1.0  0.17691  0.57166  0.33690000000000003  1.0000
  H   H63       1.0  0.19105  0.62706  0.26802  1.0000
  H   H64       1.0  0.3719299999999999  0.54725  0.3778300000000001  1.0000
  H   H65       1.0  0.50847  0.52046  0.32194  1.0000
  H   H66       1.0  0.46552  0.72032  0.39615  1.0000
  H   H67       1.0  0.57337  0.61447  0.40278  1.0000
  H   H68       1.0  0.4643299999999999  0.01679  0.5645600000000001  1.0000
  H   H69       1.0  0.34719000000000005  0.0012899999999999993  0.52153  1.0000
  H   H70       1.0  0.54157  0.85977  0.31659000000000004  1.0000
  H   H71       1.0  0.29434  0.38138  0.3426000000000001  1.0000
  H   H72       1.0  0.78019  0.88886  0.23897  1.0000
  H   H73       1.0  0.12216999999999993  0.03208  0.4075400000000001  1.0000
  H   H74       1.0  0.01463000000000001  0.9217  0.40895  1.0000
  H   H75       1.0  0.85362  0.002529999999999999  0.4917800000000001  1.0000
  H   H76       1.0  0.95958  0.11350999999999999  0.4885  1.0000
  H   H77       1.0  0.9765500000000003  0.22439  0.39865000000000006  1.0000
  H   H78       1.0  0.86171  0.92767  0.34265  1.0000
  H   H79       1.0  0.43973000000000007  0.64942  0.25954  1.0000
  H   H80       1.0  0.34306000000000003  0.71999  0.31611000000000006  1.0000
  H   H81       1.0  0.22074000000000013  0.19536  0.36457000000000006  1.0000
  H   H82       1.0  0.37967000000000006  0.19089  0.5448  1.0000
  H   H83       1.0  0.5501000000000001  0.18428  0.51017  1.0000
  H   H84       1.0  0.73578  0.08955  0.29584  1.0000
  H   H85       1.0  0.23443  0.0112  0.31582000000000005  1.0000
  H   H86       1.0  0.13231  0.8048999999999998  0.33104  1.0000
  H   H87       1.0  0.30431  0.69054  0.01964  1.0000
  H   H88       1.0  0.8943000000000002  0.67518  0.10395000000000003  1.0000
  H   H89       1.0  0.70262  0.10532  0.17932  1.0000
  H   H90       1.0  0.31910999999999995  0.07266  0.16078  1.0000
  H   H91       1.0  0.31183  0.12715  0.22925  1.0000
  H   H92       1.0  0.12110999999999998  0.05165  0.12263000000000003  1.0000
  H   H93       1.0  0.9848500000000002  0.026969999999999994  0.1793  1.0000
  H   H94       1.0  0.03450000000000001  0.22778  0.10476000000000002  1.0000
  H   H95       1.0  0.92222  0.12408000000000001  0.09846000000000002  1.0000
  H   H96       1.0  0.03675000000000001  0.51787  0.93489  1.0000
  H   H97       1.0  0.15392999999999998  0.49767  0.9774000000000003  1.0000
  H   H98       1.0  0.9644900000000001  0.36587  0.18503  1.0000
  H   H99       1.0  0.19760000000000003  0.88345  0.157  1.0000
  H   H100      1.0  0.7275900000000002  0.39555999999999997  0.26331  1.0000
  H   H101      1.0  0.3785800000000001  0.53206  0.09223000000000002  1.0000
  H   H102      1.0  0.48503000000000007  0.42167  0.09034  1.0000
  H   H103      1.0  0.64595  0.50469  0.007400000000000001  1.0000
  H   H104      1.0  0.54123  0.61567  0.011270000000000004  1.0000
  H   H105      1.0  0.52744  0.72407  0.10081  1.0000
  H   H106      1.0  0.63775  0.4258100000000001  0.15673  1.0000
  H   H107      1.0  0.0627  0.15218  0.24073  1.0000
  H   H108      1.0  0.15853  0.22325  0.18357  1.0000
  H   H109      1.0  0.28288  0.6972599999999999  0.13653  1.0000
  H   H110      1.0  0.1262  0.68923  0.95661  1.0000
  H   H111      1.0  0.9552700000000001  0.68228  0.9906600000000002  1.0000
  H   H112      1.0  0.76653  0.58621  0.20338  1.0000
  C   C1        1.0  0.7115  0.54796  0.7867200000000002  1.0000
  C   C2        1.0  0.66173  0.64941  0.7915400000000001  1.0000
  C   C3        1.0  0.71369  0.81625  0.55104  1.0000
  C   C4        1.0  0.49722999999999995  0.82493  0.59504  1.0000
  C   C5        1.0  0.24222999999999997  0.32667  0.6909  1.0000
  C   C6        1.0  0.7576300000000001  0.41757  0.70542  1.0000
  C   C7        1.0  0.5573500000000001  0.41196  0.65692  1.0000
  C   C8        1.0  0.4734  0.33615  0.6286  1.0000
  C   C9        1.0  0.55107  0.9716999999999999  0.4776  1.0000
  C   C10       1.0  0.37135  0.18559  0.69436  1.0000
  C   C11       1.0  0.69839  0.61096  0.70144  1.0000
  C   C12       1.0  0.25154  0.1732  0.73238  1.0000
  C   C13       1.0  0.98163  0.99244  0.58172  1.0000
  C   C14       1.0  0.038700000000000005  0.9708999999999999  0.51884  1.0000
  C   C15       1.0  0.07323000000000002  0.83087  0.6226900000000001  1.0000
  C   C16       1.0  0.13376999999999997  0.98588  0.6522900000000001  1.0000
  C   C17       1.0  0.62905  0.3591500000000001  0.6996800000000001  1.0000
  C   C18       1.0  0.7021100000000002  0.81089  0.60904  1.0000
  C   C19       1.0  0.54871  0.85141  0.48828000000000005  1.0000
  C   C20       1.0  0.19375  0.9042199999999999  0.67546  1.0000
  C   C21       1.0  0.7932900000000002  0.04403  0.71398  1.0000
  C   C22       1.0  0.8412700000000001  0.14643  0.7070900000000001  1.0000
  C   C23       1.0  0.78261  0.31823  0.9449400000000001  1.0000
  C   C24       1.0  0.9993999999999998  0.33069  0.9015500000000002  1.0000
  C   C25       1.0  0.2652499999999999  0.8227299999999999  0.8078900000000002  1.0000
  C   C26       1.0  0.7470800000000001  0.91808  0.7982300000000002  1.0000
  C   C27       1.0  0.9531100000000001  0.91179  0.8429600000000002  1.0000
  C   C28       1.0  0.036319999999999825  0.83588  0.8714500000000002  1.0000
  C   C29       1.0  0.9493  0.46788  0.021260000000000005  1.0000
  C   C30       1.0  0.12835  0.68545  0.80493  1.0000
  C   C31       1.0  0.8088800000000002  0.11177000000000001  0.7977300000000003  1.0000
  C   C32       1.0  0.2455199999999999  0.6723599999999998  0.7655100000000002  1.0000
  C   C33       1.0  0.5169900000000001  0.4964  0.9178500000000003  1.0000
  C   C34       1.0  0.4597399999999999  0.47417999999999993  0.9808000000000002  1.0000
  C   C35       1.0  0.42253  0.33574  0.87736  1.0000
  C   C36       1.0  0.3639400000000001  0.49124  0.84758  1.0000
  C   C37       1.0  0.8744  0.85788  0.8030900000000001  1.0000
  C   C38       1.0  0.79503  0.31493  0.88684  1.0000
  C   C39       1.0  0.94728  0.34862999999999994  0.00862  1.0000
  C   C40       1.0  0.3024099999999999  0.40995  0.8247300000000002  1.0000
  C   C41       1.0  0.2912100000000001  0.45351  0.21233  1.0000
  C   C42       1.0  0.34009  0.35179  0.20671000000000003  1.0000
  C   C43       1.0  0.28585  0.18387  0.4468900000000001  1.0000
  C   C44       1.0  0.50292  0.1772  0.40351  1.0000
  C   C45       1.0  0.7605100000000001  0.67047  0.30951  1.0000
  C   C46       1.0  0.24441999999999997  0.58112  0.29506  1.0000
  C   C47       1.0  0.4454299999999999  0.58481  0.34319000000000005  1.0000
  C   C48       1.0  0.52963  0.65943  0.37208  1.0000
  C   C49       1.0  0.44824  0.03168  0.52127  1.0000
  C   C50       1.0  0.6297700000000002  0.8108  0.3066  1.0000
  C   C51       1.0  0.30349  0.38767  0.29713  1.0000
  C   C52       1.0  0.7487099999999999  0.82366  0.26807000000000003  1.0000
  C   C53       1.0  0.017009999999999963  0.006559999999999998  0.41807000000000005  1.0000
  C   C54       1.0  0.9589500000000001  0.02774  0.4809200000000001  1.0000
  C   C55       1.0  0.9262700000000001  0.16781  0.37655  1.0000
  C   C56       1.0  0.86477  0.012649999999999998  0.34753  1.0000
  C   C57       1.0  0.37255000000000005  0.63953  0.30143  1.0000
  C   C58       1.0  0.29829000000000006  0.18818  0.38882000000000005  1.0000
  C   C59       1.0  0.45015999999999995  0.15186  0.51029  1.0000
  C   C60       1.0  0.8049900000000001  0.09422  0.32418  1.0000
  C   C61       1.0  0.20933000000000007  0.95405  0.28635  1.0000
  C   C62       1.0  0.16047  0.85186  0.29259  1.0000
  C   C63       1.0  0.21812000000000004  0.6832799999999999  0.05429000000000001  1.0000
  C   C64       1.0  0.0016599999999999972  0.66741  0.09768  1.0000
  C   C65       1.0  0.73886  0.1801  0.19183  1.0000
  C   C66       1.0  0.25466000000000005  0.08246  0.20320000000000002  1.0000
  C   C67       1.0  0.050360000000000016  0.09024  0.15744  1.0000
  C   C68       1.0  0.9684900000000001  0.16722  0.12895  1.0000
  C   C69       1.0  0.05362999999999997  0.52949  0.9783100000000001  1.0000
  C   C70       1.0  0.87474  0.31784  0.19512  1.0000
  C   C71       1.0  0.19149000000000002  0.88913  0.20229  1.0000
  C   C72       1.0  0.75652  0.33109  0.23390000000000002  1.0000
  C   C73       1.0  0.48343  0.50677  0.08144000000000001  1.0000
  C   C74       1.0  0.5409400000000001  0.52967  0.01859  1.0000
  C   C75       1.0  0.57683  0.66688  0.12290000000000002  1.0000
  C   C76       1.0  0.6361200000000001  0.51089  0.15181  1.0000
  C   C77       1.0  0.12744000000000003  0.14271  0.19835000000000005  1.0000
  C   C78       1.0  0.20556000000000005  0.68697  0.11238  1.0000
  C   C79       1.0  0.0544199999999999  0.64896  0.9906000000000001  1.0000
  C   C80       1.0  0.69718  0.59179  0.17515000000000003  1.0000
  N   N1        1.0  0.5693  0.81461  0.6365  1.0000
  N   N2        1.0  0.6537899999999999  0.6887199999999999  0.7387100000000001  1.0000
  N   N3        1.0  0.1711  0.26022  0.73018  1.0000
  N   N4        1.0  0.15573999999999993  0.80755  0.6568400000000001  1.0000
  N   N5        1.0  0.056200000000000076  0.93839  0.61863  1.0000
  N   N6        1.0  0.58325  0.8198000000000001  0.54154  1.0000
  N   N7        1.0  0.73383  0.52346  0.7290600000000003  1.0000
  N   N8        1.0  0.36493999999999993  0.28284  0.6675200000000001  1.0000
  N   N9        1.0  0.9281300000000001  0.32098  0.8597100000000002  1.0000
  N   N10       1.0  0.8507400000000002  0.18853  0.75898  1.0000
  N   N11       1.0  0.3307900000000001  0.7568899999999998  0.76746  1.0000
  N   N12       1.0  0.3391700000000001  0.3129700000000001  0.84348  1.0000
  N   N13       1.0  0.4412499999999999  0.44318  0.88114  1.0000
  N   N14       1.0  0.9126399999999999  0.32262  0.9547600000000003  1.0000
  N   N15       1.0  0.7734999999999999  0.02218  0.7719900000000002  1.0000
  N   N16       1.0  0.14135000000000003  0.78073  0.83235  1.0000
  N   N17       1.0  0.43144999999999994  0.18578  0.3617200000000001  1.0000
  N   N18       1.0  0.3476000000000001  0.31075  0.25924  1.0000
  N   N19       1.0  0.83021  0.73716  0.26994  1.0000
  N   N20       1.0  0.8436400000000001  0.19098  0.34243000000000007  1.0000
  N   N21       1.0  0.94286  0.0603  0.38092  1.0000
  N   N22       1.0  0.41598  0.18249000000000004  0.45681  1.0000
  N   N23       1.0  0.26892  0.47629  0.27019  1.0000
  N   N24       1.0  0.63774  0.71378  0.33347000000000004  1.0000
  N   N25       1.0  0.07266  0.67888  0.13952  1.0000
  N   N26       1.0  0.14964000000000002  0.81148  0.24049  1.0000
  N   N27       1.0  0.6719200000000002  0.24618  0.23176000000000005  1.0000
  N   N28       1.0  0.66005  0.68907  0.15693  1.0000
  N   N29       1.0  0.55868  0.55949  0.11849  1.0000
  N   N30       1.0  0.08824  0.6764400000000002  0.04443  1.0000
  N   N31       1.0  0.22809000000000001  0.97762  0.22856  1.0000
  N   N32       1.0  0.8630400000000001  0.22207  0.16798  1.0000
