data_image0
_chemical_formula_structural       Mg6H120C216O48
_chemical_formula_sum              "Mg6 H120 C216 O48"
_cell_length_a       23.64232
_cell_length_b       23.64287
_cell_length_c       23.64236
_cell_angle_alpha    109.49747000000002
_cell_angle_beta     109.49546
_cell_angle_gamma    109.49598

_space_group_name_H-M_alt    "P 1"
_space_group_IT_number       1

loop_
  _space_group_symop_operation_xyz
  'x, y, z'

loop_
  _atom_site_type_symbol
  _atom_site_label
  _atom_site_symmetry_multiplicity
  _atom_site_fract_x
  _atom_site_fract_y
  _atom_site_fract_z
  _atom_site_occupancy
  Mg  Mg1       1.0  0.16013  0.66008  0.49994  1.0000
  Mg  Mg2       1.0  0.83987  0.33991  0.50006  1.0000
  Mg  Mg3       1.0  0.6600699999999999  0.49990000000000007  0.16009  1.0000
  Mg  Mg4       1.0  0.3399400000000002  0.5000900000000001  0.8399100000000002  1.0000
  Mg  Mg5       1.0  0.5000799999999999  0.8398900000000001  0.33993000000000007  1.0000
  Mg  Mg6       1.0  0.49992000000000003  0.1601000000000001  0.6600700000000002  1.0000
  H   H1        1.0  0.20295  0.71879  0.75856  1.0000
  H   H2        1.0  0.27475999999999995  0.81692  0.8805  1.0000
  H   H3        1.0  0.39476999999999995  0.93974  0.81894  1.0000
  H   H4        1.0  0.32264000000000004  0.8405200000000002  0.6978  1.0000
  H   H5        1.0  0.37712  0.87891  0.9770600000000002  1.0000
  H   H6        1.0  0.79672  0.55568  0.51597  1.0000
  H   H7        1.0  0.72484  0.6057400000000001  0.5422900000000003  1.0000
  H   H8        1.0  0.6051  0.42422000000000004  0.5451500000000001  1.0000
  H   H9        1.0  0.67715  0.37512000000000006  0.51802  1.0000
  H   H10       1.0  0.62314  0.59997  0.50204  1.0000
  H   H11       1.0  0.039690000000000024  0.28102000000000005  0.48407000000000006  1.0000
  H   H12       1.0  0.06362  0.18296  0.45792  1.0000
  H   H13       1.0  0.8792699999999998  0.06011999999999999  0.45501  1.0000
  H   H14       1.0  0.8571499999999999  0.15921  0.482  1.0000
  H   H15       1.0  0.09812999999999998  0.12138999999999996  0.49807  1.0000
  H   H16       1.0  0.9601899999999998  0.4442400000000001  0.24089  1.0000
  H   H17       1.0  0.9367799999999998  0.39424000000000003  0.11903000000000002  1.0000
  H   H18       1.0  0.12138999999999994  0.57616  0.18145  1.0000
  H   H19       1.0  0.14297999999999997  0.62513  0.30249  1.0000
  H   H20       1.0  0.90223  0.40002  0.023220000000000008  1.0000
  H   H21       1.0  0.44423999999999997  0.24089000000000008  0.9601900000000001  1.0000
  H   H22       1.0  0.39424  0.11904000000000008  0.93676  1.0000
  H   H23       1.0  0.57615  0.18144  0.12137000000000003  1.0000
  H   H24       1.0  0.62513  0.30247  0.14297000000000004  1.0000
  H   H25       1.0  0.40002  0.0232  0.90221  1.0000
  H   H26       1.0  0.2810199999999999  0.48407  0.03971  1.0000
  H   H27       1.0  0.1829600000000001  0.4579200000000001  0.06364000000000002  1.0000
  H   H28       1.0  0.06013000000000011  0.45502000000000015  0.8792700000000002  1.0000
  H   H29       1.0  0.15923  0.482  0.85716  1.0000
  H   H30       1.0  0.12139000000000005  0.49808000000000013  0.09813000000000002  1.0000
  H   H31       1.0  0.55568  0.51596  0.7967200000000001  1.0000
  H   H32       1.0  0.6057299999999998  0.54226  0.72485  1.0000
  H   H33       1.0  0.42421999999999993  0.54513  0.60509  1.0000
  H   H34       1.0  0.37511999999999995  0.51802  0.67714  1.0000
  H   H35       1.0  0.5999800000000001  0.5020200000000001  0.6231200000000002  1.0000
  H   H36       1.0  0.71879  0.7585800000000001  0.20294000000000006  1.0000
  H   H37       1.0  0.81691  0.8805  0.27475  1.0000
  H   H38       1.0  0.9397199999999999  0.8189100000000001  0.39476000000000006  1.0000
  H   H39       1.0  0.8405000000000001  0.6977800000000001  0.3226100000000001  1.0000
  H   H40       1.0  0.8789199999999999  0.97707  0.37713  1.0000
  H   H41       1.0  0.4840699999999999  0.03970000000000004  0.28102000000000005  1.0000
  H   H42       1.0  0.45792  0.06361999999999998  0.18297  1.0000
  H   H43       1.0  0.4550199999999999  0.87925  0.06013  1.0000
  H   H44       1.0  0.4820099999999999  0.85714  0.15922  1.0000
  H   H45       1.0  0.49808  0.09813  0.12139  1.0000
  H   H46       1.0  0.2408699999999999  0.96017  0.44422  1.0000
  H   H47       1.0  0.11902999999999993  0.9367700000000002  0.39423  1.0000
  H   H48       1.0  0.18145999999999995  0.12139000000000004  0.57616  1.0000
  H   H49       1.0  0.30248  0.14297  0.62513  1.0000
  H   H50       1.0  0.023210000000000005  0.9022100000000001  0.40002  1.0000
  H   H51       1.0  0.7586  0.20295  0.7188000000000001  1.0000
  H   H52       1.0  0.88051  0.27473999999999993  0.81692  1.0000
  H   H53       1.0  0.8189199999999999  0.3947500000000001  0.9397200000000002  1.0000
  H   H54       1.0  0.6977899999999999  0.32262000000000013  0.8405000000000002  1.0000
  H   H55       1.0  0.97707  0.37713000000000013  0.8789200000000001  1.0000
  H   H56       1.0  0.51598  0.79671  0.5556900000000001  1.0000
  H   H57       1.0  0.54229  0.7248500000000001  0.60574  1.0000
  H   H58       1.0  0.5451500000000001  0.6051000000000002  0.42421000000000003  1.0000
  H   H59       1.0  0.51803  0.67714  0.37512  1.0000
  H   H60       1.0  0.5020299999999999  0.6231200000000001  0.59998  1.0000
  H   H61       1.0  0.79705  0.2812  0.24144000000000002  1.0000
  H   H62       1.0  0.7252399999999998  0.18308  0.11950000000000001  1.0000
  H   H63       1.0  0.6052299999999999  0.06025  0.18106  1.0000
  H   H64       1.0  0.67737  0.1594800000000001  0.30220000000000014  1.0000
  H   H65       1.0  0.62288  0.12108  0.022940000000000002  1.0000
  H   H66       1.0  0.20329000000000008  0.4443100000000001  0.48403000000000007  1.0000
  H   H67       1.0  0.27516  0.39426  0.45771  1.0000
  H   H68       1.0  0.3948999999999999  0.57578  0.45485  1.0000
  H   H69       1.0  0.32284999999999986  0.6248799999999999  0.48198  1.0000
  H   H70       1.0  0.37686000000000003  0.40002  0.49796000000000007  1.0000
  H   H71       1.0  0.96031  0.71898  0.51593  1.0000
  H   H72       1.0  0.93638  0.81703  0.5420800000000002  1.0000
  H   H73       1.0  0.12074000000000003  0.93988  0.5449900000000001  1.0000
  H   H74       1.0  0.14285999999999996  0.8407800000000001  0.5180000000000001  1.0000
  H   H75       1.0  0.90188  0.8786  0.50193  1.0000
  H   H76       1.0  0.03981  0.55576  0.75911  1.0000
  H   H77       1.0  0.06322000000000001  0.60576  0.8809700000000001  1.0000
  H   H78       1.0  0.87862  0.42384000000000005  0.8185500000000002  1.0000
  H   H79       1.0  0.8570199999999999  0.3748700000000001  0.6975100000000001  1.0000
  H   H80       1.0  0.09778000000000002  0.59997  0.97678  1.0000
  H   H81       1.0  0.55577  0.75911  0.03981  1.0000
  H   H82       1.0  0.60577  0.88096  0.06324  1.0000
  H   H83       1.0  0.42385  0.81856  0.87863  1.0000
  H   H84       1.0  0.3748799999999999  0.6975199999999999  0.85703  1.0000
  H   H85       1.0  0.59999  0.97679  0.09779  1.0000
  H   H86       1.0  0.71898  0.5159300000000001  0.9602900000000001  1.0000
  H   H87       1.0  0.81704  0.54207  0.93637  1.0000
  H   H88       1.0  0.9398699999999997  0.54498  0.12073  1.0000
  H   H89       1.0  0.84077  0.51799  0.14284  1.0000
  H   H90       1.0  0.87861  0.50191  0.90187  1.0000
  H   H91       1.0  0.44432999999999995  0.48403000000000007  0.20328000000000004  1.0000
  H   H92       1.0  0.39427  0.45774000000000004  0.27515  1.0000
  H   H93       1.0  0.57578  0.45486  0.39491  1.0000
  H   H94       1.0  0.62488  0.48197  0.32286000000000004  1.0000
  H   H95       1.0  0.40002  0.4979700000000001  0.37688000000000005  1.0000
  H   H96       1.0  0.2812099999999999  0.24141999999999994  0.79706  1.0000
  H   H97       1.0  0.1830900000000001  0.11949000000000017  0.7252500000000002  1.0000
  H   H98       1.0  0.06029000000000003  0.18108  0.60524  1.0000
  H   H99       1.0  0.15950000000000006  0.3022100000000001  0.6773900000000002  1.0000
  H   H100      1.0  0.12108000000000001  0.02292999999999999  0.62287  1.0000
  H   H101      1.0  0.51593  0.9602900000000001  0.71898  1.0000
  H   H102      1.0  0.54209  0.93637  0.8170300000000003  1.0000
  H   H103      1.0  0.54499  0.12075000000000001  0.93987  1.0000
  H   H104      1.0  0.518  0.1428500000000001  0.84078  1.0000
  H   H105      1.0  0.50192  0.9018600000000001  0.87861  1.0000
  H   H106      1.0  0.75914  0.039819999999999994  0.55578  1.0000
  H   H107      1.0  0.88098  0.06321999999999998  0.60577  1.0000
  H   H108      1.0  0.81855  0.87861  0.42384000000000005  1.0000
  H   H109      1.0  0.69753  0.8570200000000001  0.37487  1.0000
  H   H110      1.0  0.9767899999999998  0.09778  0.59998  1.0000
  H   H111      1.0  0.24140999999999999  0.79704  0.2812  1.0000
  H   H112      1.0  0.11949999999999998  0.72525  0.18308  1.0000
  H   H113      1.0  0.18109  0.60525  0.06028000000000001  1.0000
  H   H114      1.0  0.3022099999999999  0.6773799999999999  0.1595  1.0000
  H   H115      1.0  0.022930000000000013  0.62287  0.12108  1.0000
  H   H116      1.0  0.48402999999999996  0.20329000000000003  0.44431  1.0000
  H   H117      1.0  0.45771  0.27514  0.39426  1.0000
  H   H118      1.0  0.45486  0.3949  0.57579  1.0000
  H   H119      1.0  0.48197999999999996  0.32286  0.62488  1.0000
  H   H120      1.0  0.49797  0.37688  0.40002  1.0000
  C   C1        1.0  0.21626000000000004  0.71583  0.6482900000000001  1.0000
  C   C2        1.0  0.2590600000000001  0.7740800000000001  0.7214800000000002  1.0000
  C   C3        1.0  0.24564000000000005  0.7673200000000002  0.7730600000000001  1.0000
  C   C4        1.0  0.2861300000000001  0.8222800000000002  0.8410300000000003  1.0000
  C   C5        1.0  0.34023999999999993  0.88565  0.8589  1.0000
  C   C6        1.0  0.35263999999999995  0.89187  0.80631  1.0000
  C   C7        1.0  0.31302  0.83654  0.7386  1.0000
  C   C8        1.0  0.38304  0.94403  0.93097  1.0000
  C   C9        1.0  0.39771999999999996  0.93194  0.9871000000000001  1.0000
  C   C10       1.0  0.78358  0.43228  0.49967  1.0000
  C   C11       1.0  0.7407099999999995  0.46247  0.51517  1.0000
  C   C12       1.0  0.7540899999999999  0.5275  0.52183  1.0000
  C   C13       1.0  0.7136300000000001  0.5549000000000002  0.5362700000000002  1.0000
  C   C14       1.0  0.65964  0.51861  0.5455300000000001  1.0000
  C   C15       1.0  0.64723  0.45361000000000007  0.53938  1.0000
  C   C16       1.0  0.6868099999999999  0.42558000000000007  0.52367  1.0000
  C   C17       1.0  0.6169399999999999  0.54787  0.5610700000000002  1.0000
  C   C18       1.0  0.6023999999999999  0.58938  0.53433  1.0000
  C   C19       1.0  0.9325599999999997  0.28402  0.50039  1.0000
  C   C20       1.0  0.9473199999999999  0.2257  0.48485  1.0000
  C   C21       1.0  0.005690000000000016  0.2325  0.47824  1.0000
  C   C22       1.0  0.01876000000000001  0.17766  0.46387  1.0000
  C   C23       1.0  0.97324  0.11433999999999997  0.45462  1.0000
  C   C24       1.0  0.9143899999999999  0.10803000000000001  0.46075  1.0000
  C   C25       1.0  0.90196  0.16327  0.4763800000000001  1.0000
  C   C26       1.0  0.98692  0.05606000000000004  0.43906000000000006  1.0000
  C   C27       1.0  0.05518999999999999  0.06829  0.46579  1.0000
  C   C28       1.0  0.06749000000000004  0.5679100000000001  0.3514900000000001  1.0000
  C   C29       1.0  0.05274000000000001  0.53762  0.27839  1.0000
  C   C30       1.0  0.99436  0.47251  0.22662  1.0000
  C   C31       1.0  0.9815599999999999  0.44516  0.15878000000000003  1.0000
  C   C32       1.0  0.027160000000000028  0.48153000000000007  0.14118000000000006  1.0000
  C   C33       1.0  0.08605999999999998  0.54661  0.19393  1.0000
  C   C34       1.0  0.09823  0.57459  0.26153  1.0000
  C   C35       1.0  0.013410000000000002  0.45225  0.06917  1.0000
  C   C36       1.0  0.94507  0.41064  0.013  1.0000
  C   C37       1.0  0.56793  0.35149  0.0675  1.0000
  C   C38       1.0  0.53762  0.27838  0.05272  1.0000
  C   C39       1.0  0.47251  0.22661000000000012  0.99435  1.0000
  C   C40       1.0  0.4451499999999999  0.15877000000000005  0.98155  1.0000
  C   C41       1.0  0.48153  0.14118  0.02715  1.0000
  C   C42       1.0  0.5465999999999999  0.19392000000000004  0.08604  1.0000
  C   C43       1.0  0.57459  0.26152  0.09822  1.0000
  C   C44       1.0  0.45224  0.06916  0.01341  1.0000
  C   C45       1.0  0.41062999999999994  0.012990000000000033  0.94506  1.0000
  C   C46       1.0  0.2840399999999999  0.5004  0.9325900000000001  1.0000
  C   C47       1.0  0.22571000000000002  0.4848600000000002  0.9473300000000001  1.0000
  C   C48       1.0  0.23251  0.47824  0.00572  1.0000
  C   C49       1.0  0.17766  0.46387000000000006  0.01877  1.0000
  C   C50       1.0  0.11435000000000006  0.45461000000000007  0.9732500000000001  1.0000
  C   C51       1.0  0.10803000000000004  0.4607400000000001  0.9143900000000001  1.0000
  C   C52       1.0  0.16327999999999998  0.47639  0.9019800000000001  1.0000
  C   C53       1.0  0.05606999999999998  0.43906  0.98692  1.0000
  C   C54       1.0  0.06829999999999999  0.4658  0.05520000000000001  1.0000
  C   C55       1.0  0.43224000000000007  0.49965000000000004  0.78356  1.0000
  C   C56       1.0  0.46247000000000005  0.51518  0.7407200000000003  1.0000
  C   C57       1.0  0.52749  0.52183  0.7541  1.0000
  C   C58       1.0  0.5549  0.53626  0.71364  1.0000
  C   C59       1.0  0.5186200000000001  0.5455200000000001  0.6596400000000001  1.0000
  C   C60       1.0  0.4536199999999999  0.5393700000000001  0.6472200000000001  1.0000
  C   C61       1.0  0.42557999999999996  0.52368  0.68681  1.0000
  C   C62       1.0  0.5478799999999999  0.5610700000000001  0.6169400000000002  1.0000
  C   C63       1.0  0.58939  0.53433  0.60239  1.0000
  C   C64       1.0  0.7157899999999998  0.6483000000000002  0.21624  1.0000
  C   C65       1.0  0.77408  0.7214800000000001  0.25904  1.0000
  C   C66       1.0  0.7673199999999998  0.77306  0.24562  1.0000
  C   C67       1.0  0.8222800000000001  0.84103  0.28613000000000005  1.0000
  C   C68       1.0  0.8856399999999998  0.8589000000000001  0.34023000000000003  1.0000
  C   C69       1.0  0.8918599999999998  0.8063  0.35263  1.0000
  C   C70       1.0  0.8365199999999998  0.73859  0.31299000000000005  1.0000
  C   C71       1.0  0.9440399999999999  0.93096  0.38304  1.0000
  C   C72       1.0  0.9319399999999998  0.9871000000000001  0.39772  1.0000
  C   C73       1.0  0.50039  0.9325600000000002  0.28403000000000006  1.0000
  C   C74       1.0  0.4848499999999999  0.94731  0.2257  1.0000
  C   C75       1.0  0.47824  0.0057  0.23251  1.0000
  C   C76       1.0  0.46387  0.018760000000000006  0.17765  1.0000
  C   C77       1.0  0.4546199999999999  0.97324  0.11435  1.0000
  C   C78       1.0  0.46075  0.91438  0.10803  1.0000
  C   C79       1.0  0.47639  0.9019699999999999  0.16328  1.0000
  C   C80       1.0  0.43907000000000007  0.9869100000000001  0.05606000000000001  1.0000
  C   C81       1.0  0.4658  0.055200000000000006  0.06829  1.0000
  C   C82       1.0  0.3514899999999999  0.06747999999999997  0.56791  1.0000
  C   C83       1.0  0.27838000000000007  0.0527200000000001  0.5376200000000002  1.0000
  C   C84       1.0  0.22660999999999998  0.9943399999999999  0.4725  1.0000
  C   C85       1.0  0.15876999999999997  0.9815500000000001  0.44515  1.0000
  C   C86       1.0  0.14117000000000002  0.02715000000000003  0.48152000000000006  1.0000
  C   C87       1.0  0.19391999999999998  0.08605000000000002  0.54661  1.0000
  C   C88       1.0  0.26153  0.09821000000000003  0.57459  1.0000
  C   C89       1.0  0.06916000000000003  0.013410000000000023  0.45224000000000003  1.0000
  C   C90       1.0  0.012990000000000031  0.9450600000000001  0.41063  1.0000
  C   C91       1.0  0.6483  0.21624000000000007  0.7157800000000002  1.0000
  C   C92       1.0  0.7214900000000001  0.2590500000000001  0.7740700000000003  1.0000
  C   C93       1.0  0.7730699999999998  0.24562000000000003  0.76731  1.0000
  C   C94       1.0  0.8410399999999998  0.28613  0.82229  1.0000
  C   C95       1.0  0.85891  0.3402200000000001  0.88565  1.0000
  C   C96       1.0  0.8063099999999999  0.3526300000000001  0.8918700000000002  1.0000
  C   C97       1.0  0.7386000000000001  0.31299000000000016  0.8365200000000002  1.0000
  C   C98       1.0  0.9309799999999998  0.38303999999999994  0.9440400000000001  1.0000
  C   C99       1.0  0.9871099999999999  0.39772  0.93195  1.0000
  C   C100      1.0  0.4996799999999999  0.78357  0.43226  1.0000
  C   C101      1.0  0.5151899999999999  0.74071  0.46247000000000005  1.0000
  C   C102      1.0  0.52184  0.75409  0.52749  1.0000
  C   C103      1.0  0.53627  0.71363  0.5549  1.0000
  C   C104      1.0  0.5455299999999997  0.65963  0.51861  1.0000
  C   C105      1.0  0.5393799999999999  0.64722  0.4536200000000001  1.0000
  C   C106      1.0  0.52368  0.68681  0.42558000000000007  1.0000
  C   C107      1.0  0.56108  0.61693  0.54787  1.0000
  C   C108      1.0  0.53434  0.60239  0.58939  1.0000
  C   C109      1.0  0.7837399999999998  0.2841600000000001  0.3517100000000001  1.0000
  C   C110      1.0  0.74095  0.22592000000000004  0.27852000000000005  1.0000
  C   C111      1.0  0.7543599999999999  0.23267  0.22694000000000003  1.0000
  C   C112      1.0  0.71387  0.17772  0.15897000000000003  1.0000
  C   C113      1.0  0.65977  0.11434000000000002  0.14110000000000003  1.0000
  C   C114      1.0  0.64736  0.10812  0.19369  1.0000
  C   C115      1.0  0.68699  0.16345  0.2614  1.0000
  C   C116      1.0  0.6169699999999999  0.05597  0.06903  1.0000
  C   C117      1.0  0.6022799999999999  0.06805  0.012900000000000002  1.0000
  C   C118      1.0  0.21641999999999992  0.56772  0.50033  1.0000
  C   C119      1.0  0.2592900000000001  0.53753  0.48483000000000004  1.0000
  C   C120      1.0  0.24591000000000005  0.4724900000000001  0.4781700000000001  1.0000
  C   C121      1.0  0.28637000000000007  0.44510000000000005  0.46373  1.0000
  C   C122      1.0  0.34037000000000006  0.48138  0.45447000000000004  1.0000
  C   C123      1.0  0.35277999999999987  0.54638  0.46062  1.0000
  C   C124      1.0  0.31319  0.57442  0.47633  1.0000
  C   C125      1.0  0.38306000000000007  0.45213000000000003  0.43893000000000004  1.0000
  C   C126      1.0  0.39760999999999996  0.41062  0.46567  1.0000
  C   C127      1.0  0.06745000000000008  0.7159800000000002  0.49961000000000005  1.0000
  C   C128      1.0  0.05269000000000009  0.7743  0.5151500000000001  1.0000
  C   C129      1.0  0.99431  0.7675000000000001  0.5217600000000001  1.0000
  C   C130      1.0  0.98125  0.82234  0.53613  1.0000
  C   C131      1.0  0.02675999999999999  0.88565  0.54538  1.0000
  C   C132      1.0  0.08562000000000003  0.89196  0.53925  1.0000
  C   C133      1.0  0.09803999999999997  0.83673  0.52362  1.0000
  C   C134      1.0  0.013089999999999942  0.94393  0.56094  1.0000
  C   C135      1.0  0.9448199999999999  0.9317000000000001  0.53421  1.0000
  C   C136      1.0  0.9325100000000001  0.43208000000000013  0.6485100000000001  1.0000
  C   C137      1.0  0.9472699999999998  0.46238000000000007  0.72161  1.0000
  C   C138      1.0  0.00564000000000006  0.5274900000000001  0.7733800000000002  1.0000
  C   C139      1.0  0.018439999999999988  0.55483  0.84122  1.0000
  C   C140      1.0  0.9728400000000001  0.5184600000000001  0.8588200000000001  1.0000
  C   C141      1.0  0.91395  0.4533800000000001  0.8060700000000002  1.0000
  C   C142      1.0  0.9017700000000001  0.4254100000000001  0.7384700000000002  1.0000
  C   C143      1.0  0.9865999999999999  0.54775  0.93083  1.0000
  C   C144      1.0  0.05493000000000004  0.5893600000000001  0.9870000000000001  1.0000
  C   C145      1.0  0.43207000000000007  0.6485100000000001  0.9325000000000001  1.0000
  C   C146      1.0  0.46238  0.7216200000000002  0.94728  1.0000
  C   C147      1.0  0.5274900000000001  0.7733800000000001  0.005650000000000001  1.0000
  C   C148      1.0  0.55485  0.84122  0.01845  1.0000
  C   C149      1.0  0.51848  0.8588200000000001  0.97285  1.0000
  C   C150      1.0  0.4534  0.8060700000000001  0.91396  1.0000
  C   C151      1.0  0.4254100000000001  0.7384700000000001  0.9017800000000001  1.0000
  C   C152      1.0  0.5477599999999999  0.9308300000000002  0.98659  1.0000
  C   C153      1.0  0.58937  0.987  0.05494  1.0000
  C   C154      1.0  0.7159699999999999  0.49960000000000004  0.06741  1.0000
  C   C155      1.0  0.7742999999999999  0.51513  0.05267  1.0000
  C   C156      1.0  0.7674900000000003  0.5217500000000002  0.9942900000000002  1.0000
  C   C157      1.0  0.8223499999999999  0.5361200000000003  0.9812300000000003  1.0000
  C   C158      1.0  0.8856499999999999  0.54538  0.026750000000000003  1.0000
  C   C159      1.0  0.8919700000000002  0.53925  0.08561  1.0000
  C   C160      1.0  0.8367199999999998  0.52361  0.09802  1.0000
  C   C161      1.0  0.9439400000000001  0.56093  0.01308  1.0000
  C   C162      1.0  0.93171  0.5342  0.9448  1.0000
  C   C163      1.0  0.5677600000000002  0.5003400000000001  0.21644  1.0000
  C   C164      1.0  0.53754  0.48481  0.25928  1.0000
  C   C165      1.0  0.47250999999999993  0.47817  0.24590000000000004  1.0000
  C   C166      1.0  0.44510999999999995  0.46374  0.28636  1.0000
  C   C167      1.0  0.48138000000000003  0.45448  0.3403600000000001  1.0000
  C   C168      1.0  0.54638  0.46062  0.3527800000000001  1.0000
  C   C169      1.0  0.5744199999999999  0.4763200000000001  0.31319  1.0000
  C   C170      1.0  0.45212  0.43893000000000004  0.38306000000000007  1.0000
  C   C171      1.0  0.41061999999999993  0.46567  0.39761  1.0000
  C   C172      1.0  0.2842199999999999  0.35169  0.7837600000000001  1.0000
  C   C173      1.0  0.22592999999999996  0.27851000000000004  0.7409600000000001  1.0000
  C   C174      1.0  0.23269000000000006  0.22693000000000008  0.7543800000000003  1.0000
  C   C175      1.0  0.17772  0.15896000000000002  0.71387  1.0000
  C   C176      1.0  0.11435999999999999  0.1411  0.65977  1.0000
  C   C177      1.0  0.10814  0.19369  0.64737  1.0000
  C   C178      1.0  0.16348000000000013  0.2614000000000002  0.6870100000000002  1.0000
  C   C179      1.0  0.05596999999999999  0.06902999999999998  0.61696  1.0000
  C   C180      1.0  0.06806  0.012889999999999993  0.60228  1.0000
  C   C181      1.0  0.49962  0.06743999999999999  0.71597  1.0000
  C   C182      1.0  0.51515  0.05269000000000008  0.7743000000000001  1.0000
  C   C183      1.0  0.5217699999999998  0.99429  0.76749  1.0000
  C   C184      1.0  0.5361299999999999  0.98124  0.82235  1.0000
  C   C185      1.0  0.54538  0.02675000000000003  0.88565  1.0000
  C   C186      1.0  0.5392499999999999  0.08561000000000007  0.8919700000000002  1.0000
  C   C187      1.0  0.5236099999999999  0.09802999999999998  0.83672  1.0000
  C   C188      1.0  0.5609400000000001  0.013080000000000036  0.9439400000000001  1.0000
  C   C189      1.0  0.5342100000000001  0.9447900000000002  0.9317100000000001  1.0000
  C   C190      1.0  0.64852  0.93252  0.43209  1.0000
  C   C191      1.0  0.7216299999999999  0.9472700000000001  0.46238  1.0000
  C   C192      1.0  0.77339  0.0056499999999999806  0.5275  1.0000
  C   C193      1.0  0.8412399999999998  0.018440000000000015  0.55485  1.0000
  C   C194      1.0  0.85883  0.97284  0.5184800000000002  1.0000
  C   C195      1.0  0.80608  0.91394  0.45339000000000007  1.0000
  C   C196      1.0  0.73848  0.9017800000000001  0.42541  1.0000
  C   C197      1.0  0.9308499999999998  0.98659  0.54776  1.0000
  C   C198      1.0  0.98701  0.054939999999999996  0.58937  1.0000
  C   C199      1.0  0.35170000000000007  0.7837500000000001  0.28422000000000003  1.0000
  C   C200      1.0  0.27851  0.7409400000000002  0.22593  1.0000
  C   C201      1.0  0.22693000000000002  0.7543700000000001  0.23269  1.0000
  C   C202      1.0  0.15896000000000002  0.71386  0.17771000000000003  1.0000
  C   C203      1.0  0.14108999999999994  0.65977  0.11435  1.0000
  C   C204      1.0  0.19368999999999995  0.64736  0.10813  1.0000
  C   C205      1.0  0.26141  0.687  0.16348  1.0000
  C   C206      1.0  0.06903000000000002  0.6169600000000001  0.05596000000000001  1.0000
  C   C207      1.0  0.012890000000000006  0.60227  0.06805000000000001  1.0000
  C   C208      1.0  0.5003299999999999  0.21643000000000012  0.5677400000000001  1.0000
  C   C209      1.0  0.48480999999999996  0.25928  0.53753  1.0000
  C   C210      1.0  0.47816999999999993  0.24590000000000004  0.47251000000000004  1.0000
  C   C211      1.0  0.46372999999999986  0.28637000000000007  0.44510000000000005  1.0000
  C   C212      1.0  0.45448  0.3403700000000001  0.4813900000000001  1.0000
  C   C213      1.0  0.46061999999999986  0.3527799999999999  0.54638  1.0000
  C   C214      1.0  0.4763199999999999  0.31319  0.57442  1.0000
  C   C215      1.0  0.43893  0.38306  0.45213  1.0000
  C   C216      1.0  0.4656699999999999  0.3976100000000001  0.41061  1.0000
  O   O1        1.0  0.22587  0.7285700000000002  0.6023200000000001  1.0000
  O   O2        1.0  0.17303000000000002  0.65676  0.6327000000000002  1.0000
  O   O3        1.0  0.77428  0.37679000000000007  0.50294  1.0000
  O   O4        1.0  0.8264899999999997  0.45994  0.48359  1.0000
  O   O5        1.0  0.8738099999999998  0.27138000000000007  0.4971400000000001  1.0000
  O   O6        1.0  0.9763199999999995  0.34308000000000005  0.5165000000000001  1.0000
  O   O7        1.0  0.12632  0.62352  0.39762  1.0000
  O   O8        1.0  0.023890000000000022  0.54028  0.36689  1.0000
  O   O9        1.0  0.62355  0.3976  0.12633  1.0000
  O   O10       1.0  0.5403  0.36691000000000007  0.02393  1.0000
  O   O11       1.0  0.27139  0.49717  0.8738300000000001  1.0000
  O   O12       1.0  0.34308000000000005  0.51648  0.97632  1.0000
  O   O13       1.0  0.37678  0.50295  0.77427  1.0000
  O   O14       1.0  0.45989000000000013  0.48354000000000014  0.8264500000000002  1.0000
  O   O15       1.0  0.72853  0.6023  0.22579000000000002  1.0000
  O   O16       1.0  0.6567299999999999  0.63279  0.17312  1.0000
  O   O17       1.0  0.4971399999999999  0.8738  0.27138  1.0000
  O   O18       1.0  0.5164999999999998  0.9763  0.34308000000000005  1.0000
  O   O19       1.0  0.39760999999999996  0.12630999999999998  0.62353  1.0000
  O   O20       1.0  0.36688  0.023889999999999998  0.54027  1.0000
  O   O21       1.0  0.6023199999999999  0.22583000000000006  0.7285300000000001  1.0000
  O   O22       1.0  0.63278  0.17308000000000007  0.6567500000000001  1.0000
  O   O23       1.0  0.5029699999999999  0.7742800000000001  0.3767900000000001  1.0000
  O   O24       1.0  0.48358000000000007  0.82646  0.4599100000000001  1.0000
  O   O25       1.0  0.7741399999999998  0.27142  0.39768  1.0000
  O   O26       1.0  0.82698  0.34324000000000005  0.3673000000000001  1.0000
  O   O27       1.0  0.22571999999999995  0.6232000000000001  0.49706000000000006  1.0000
  O   O28       1.0  0.17352  0.54005  0.5164  1.0000
  O   O29       1.0  0.12620000000000003  0.72861  0.50286  1.0000
  O   O30       1.0  0.02368999999999997  0.65691  0.48350000000000004  1.0000
  O   O31       1.0  0.8736799999999998  0.37647  0.60238  1.0000
  O   O32       1.0  0.97611  0.45971000000000006  0.63311  1.0000
  O   O33       1.0  0.37645000000000006  0.6024  0.8736700000000001  1.0000
  O   O34       1.0  0.4597  0.6330800000000001  0.9760700000000002  1.0000
  O   O35       1.0  0.72861  0.50282  0.12617  1.0000
  O   O36       1.0  0.65692  0.48352  0.02368  1.0000
  O   O37       1.0  0.62323  0.49704000000000004  0.22573  1.0000
  O   O38       1.0  0.54011  0.51645  0.17355  1.0000
  O   O39       1.0  0.27147  0.39769000000000004  0.77421  1.0000
  O   O40       1.0  0.34327000000000013  0.36720000000000014  0.8268800000000002  1.0000
  O   O41       1.0  0.50286  0.12620000000000006  0.7286200000000003  1.0000
  O   O42       1.0  0.48351  0.02369  0.65692  1.0000
  O   O43       1.0  0.6023999999999999  0.87369  0.3764700000000001  1.0000
  O   O44       1.0  0.63312  0.9761  0.4597300000000001  1.0000
  O   O45       1.0  0.39769  0.77417  0.27147  1.0000
  O   O46       1.0  0.36722  0.82691  0.34325  1.0000
  O   O47       1.0  0.49702999999999997  0.22571000000000002  0.62321  1.0000
  O   O48       1.0  0.51643  0.17354  0.54009  1.0000
