data_image0
_chemical_formula_structural       Cu6H96C120N24
_chemical_formula_sum              "Cu6 H96 C120 N24"
_cell_length_a       12.92794
_cell_length_b       14.980069999999998
_cell_length_c       27.47221
_cell_angle_alpha    89.9815
_cell_angle_beta     90.03523
_cell_angle_gamma    114.67685

_symmetry_space_group_name_H-M    'P 1'
_symmetry_Int_Tables_number       1

loop_
  _symmetry_equiv_pos_as_xyz
  'x,y,z'

loop_
  _atom_site_type_symbol
  _atom_site_label
  _atom_site_symmetry_multiplicity
  _atom_site_fract_x
  _atom_site_fract_y
  _atom_site_fract_z
  _atom_site_occupancy
  Cu  Cu1       1.0  0.17646  0.7903  0.26845  1.0000
  Cu  Cu2       1.0  0.3234600000000001  0.71001  0.76812  1.0000
  Cu  Cu3       1.0  0.82342  0.20965999999999996  0.7315699999999999  1.0000
  Cu  Cu4       1.0  0.6766300000000001  0.28999  0.23183999999999994  1.0000
  Cu  Cu5       1.0  0.49962000000000006  0.50055  0.00052  1.0000
  Cu  Cu6       1.0  0.9999900000000002  0.99998  0.49999  1.0000
  H   H1        1.0  0.7233100000000001  0.49229999999999996  0.00617  1.0000
  H   H2        1.0  0.8764500000000002  0.54369  0.06697  1.0000
  H   H3        1.0  0.71774  0.7156  0.13559  1.0000
  H   H4        1.0  0.56782  0.65314  0.07319999999999997  1.0000
  H   H5        1.0  0.15909  0.6810899999999998  0.18011  1.0000
  H   H6        1.0  0.024959999999999958  0.6324399999999999  0.11082  1.0000
  H   H7        1.0  0.78578  0.68616  0.20381  1.0000
  H   H8        1.0  0.92693  0.72826  0.26899999999999996  1.0000
  H   H9        1.0  0.74742  0.20881  0.14086999999999997  1.0000
  H   H10       1.0  0.93308  0.24601  0.10269999999999997  1.0000
  H   H11       1.0  0.07584000000000002  0.49991  0.19761  1.0000
  H   H12       1.0  0.88387  0.4542399999999999  0.23019  1.0000
  H   H13       1.0  0.30155000000000004  0.31720999999999994  0.06006  1.0000
  H   H14       1.0  0.11011000000000001  0.26046  0.09627999999999998  1.0000
  H   H15       1.0  0.20687000000000005  0.55901  0.14665  1.0000
  H   H16       1.0  0.39365  0.60073  0.10982  1.0000
  H   H17       1.0  0.71277  0.10284999999999998  0.22092999999999993  1.0000
  H   H18       1.0  0.8278900000000001  0.006369999999999998  0.20969999999999994  1.0000
  H   H19       1.0  0.05597  0.1891  0.32023999999999997  1.0000
  H   H20       1.0  0.9326100000000003  0.27903  0.32579999999999987  1.0000
  H   H21       1.0  0.17821000000000006  0.9473  0.3331199999999999  1.0000
  H   H22       1.0  0.05652  0.03694  0.3399199999999999  1.0000
  H   H23       1.0  0.00344  0.00294  0.18423999999999993  1.0000
  H   H24       1.0  0.11927000000000001  0.90638  0.18454999999999994  1.0000
  H   H25       1.0  0.7764000000000001  0.00891  0.50585  1.0000
  H   H26       1.0  0.6236700000000001  0.95791  0.56674  1.0000
  H   H27       1.0  0.78238  0.78579  0.6353299999999997  1.0000
  H   H28       1.0  0.93188  0.8479799999999998  0.5728399999999999  1.0000
  H   H29       1.0  0.34075  0.81897  0.6798799999999999  1.0000
  H   H30       1.0  0.4746500000000001  0.86811  0.61059  1.0000
  H   H31       1.0  0.71464  0.815  0.7036099999999997  1.0000
  H   H32       1.0  0.5733600000000002  0.77208  0.7687099999999998  1.0000
  H   H33       1.0  0.75236  0.2902  0.6408399999999997  1.0000
  H   H34       1.0  0.56666  0.25339  0.6026999999999999  1.0000
  H   H35       1.0  0.42342000000000013  0.00010999999999999999  0.69811  1.0000
  H   H36       1.0  0.61571  0.04543999999999999  0.73058  1.0000
  H   H37       1.0  0.19822999999999996  0.18303999999999995  0.56023  1.0000
  H   H38       1.0  0.38963  0.23953  0.59658  1.0000
  H   H39       1.0  0.29221  0.94083  0.64695  1.0000
  H   H40       1.0  0.10561999999999995  0.8994499999999999  0.60993  1.0000
  H   H41       1.0  0.78633  0.39722  0.72105  1.0000
  H   H42       1.0  0.67148  0.49388  0.70951  1.0000
  H   H43       1.0  0.4427700000000001  0.31141  0.8198699999999998  1.0000
  H   H44       1.0  0.56587  0.22135  0.82576  1.0000
  H   H45       1.0  0.3211700000000001  0.55309  0.8327899999999998  1.0000
  H   H46       1.0  0.44299999999999995  0.4635699999999999  0.83956  1.0000
  H   H47       1.0  0.49535  0.49749999999999994  0.68381  1.0000
  H   H48       1.0  0.37958000000000003  0.59408  0.68423  1.0000
  H   H49       1.0  0.27607  0.51033  0.9940699999999998  1.0000
  H   H50       1.0  0.12338000000000005  0.45888  0.93304  1.0000
  H   H51       1.0  0.28314  0.28748  0.8647199999999998  1.0000
  H   H52       1.0  0.4329  0.35049  0.9271099999999998  1.0000
  H   H53       1.0  0.84014  0.31831  0.81994  1.0000
  H   H54       1.0  0.9743500000000002  0.3687  0.88921  1.0000
  H   H55       1.0  0.21420000000000003  0.3145  0.7968  1.0000
  H   H56       1.0  0.07267  0.27022  0.7317299999999998  1.0000
  H   H57       1.0  0.2529000000000001  0.79096  0.85924  1.0000
  H   H58       1.0  0.06708999999999996  0.7539099999999999  0.8972699999999998  1.0000
  H   H59       1.0  0.9244600000000002  0.50007  0.80231  1.0000
  H   H60       1.0  0.11657  0.54559  0.76988  1.0000
  H   H61       1.0  0.69768  0.68261  0.93918  1.0000
  H   H62       1.0  0.88951  0.73956  0.90324  1.0000
  H   H63       1.0  0.79399  0.4409099999999999  0.8534  1.0000
  H   H64       1.0  0.60685  0.3989  0.8899599999999998  1.0000
  H   H65       1.0  0.28722  0.89696  0.7790699999999999  1.0000
  H   H66       1.0  0.1722200000000001  0.99357  0.7902199999999999  1.0000
  H   H67       1.0  0.9440100000000001  0.8107099999999999  0.6797599999999998  1.0000
  H   H68       1.0  0.06726000000000007  0.72067  0.6742499999999999  1.0000
  H   H69       1.0  0.8218  0.05239999999999999  0.66672  1.0000
  H   H70       1.0  0.94379  0.963  0.6599899999999997  1.0000
  H   H71       1.0  0.9962900000000002  0.99678  0.8156899999999998  1.0000
  H   H72       1.0  0.8801600000000003  0.09308  0.81533  1.0000
  H   H73       1.0  0.22354999999999994  0.9910399999999999  0.4941299999999999  1.0000
  H   H74       1.0  0.37633  0.04202999999999999  0.43323999999999996  1.0000
  H   H75       1.0  0.21764000000000003  0.21417999999999995  0.3646399999999999  1.0000
  H   H76       1.0  0.06809000000000003  0.15195  0.42711  1.0000
  H   H77       1.0  0.65929  0.18097  0.32011  1.0000
  H   H78       1.0  0.5254  0.1319  0.3894199999999999  1.0000
  H   H79       1.0  0.28548  0.18516  0.2964299999999999  1.0000
  H   H80       1.0  0.4267200000000001  0.22804  0.23131999999999994  1.0000
  H   H81       1.0  0.24765  0.70998  0.3591  1.0000
  H   H82       1.0  0.4333  0.74683  0.39733  1.0000
  H   H83       1.0  0.57677  0.99996  0.30184  1.0000
  H   H84       1.0  0.3845200000000001  0.9546  0.26929  1.0000
  H   H85       1.0  0.8017399999999999  0.8168899999999998  0.43968999999999997  1.0000
  H   H86       1.0  0.61029  0.7605  0.40336  1.0000
  H   H87       1.0  0.70772  0.05924999999999998  0.3531299999999999  1.0000
  H   H88       1.0  0.8943800000000002  0.10056  0.39008999999999994  1.0000
  H   H89       1.0  0.21372999999999995  0.6026399999999998  0.27886  1.0000
  H   H90       1.0  0.32863  0.50603  0.29027  1.0000
  H   H91       1.0  0.55726  0.6888199999999999  0.17998  1.0000
  H   H92       1.0  0.4340800000000001  0.77881  0.17418999999999996  1.0000
  H   H93       1.0  0.6791400000000002  0.44712  0.16701  1.0000
  H   H94       1.0  0.55763  0.53693  0.16023  1.0000
  H   H95       1.0  0.50458  0.50241  0.31593999999999994  1.0000
  H   H96       1.0  0.62024  0.40575  0.31553  1.0000
  C   C1        1.0  0.7241200000000001  0.54009  0.03608  1.0000
  C   C2        1.0  0.81046  0.57054  0.0701  1.0000
  C   C3        1.0  0.81007  0.63142  0.10997999999999997  1.0000
  C   C4        1.0  0.7204800000000001  0.66334  0.10871  1.0000
  C   C5        1.0  0.63707  0.62997  0.07358  1.0000
  C   C6        1.0  0.07462  0.6798699999999999  0.18336999999999995  1.0000
  C   C7        1.0  0.99887  0.65323  0.14501  1.0000
  C   C8        1.0  0.89098  0.65681  0.14925  1.0000
  C   C9        1.0  0.86792  0.68559  0.19603999999999994  1.0000
  C   C10       1.0  0.9461200000000002  0.70791  0.23324999999999996  1.0000
  C   C11       1.0  0.8226400000000003  0.27245  0.15242  1.0000
  C   C12       1.0  0.92762  0.2937  0.13148999999999997  1.0000
  C   C13       1.0  0.025349999999999984  0.37717  0.14652  1.0000
  C   C14       1.0  0.006270000000000015  0.43508  0.18319999999999997  1.0000
  C   C15       1.0  0.8989200000000002  0.40951  0.20229  1.0000
  C   C16       1.0  0.27749  0.36869  0.07986  1.0000
  C   C17       1.0  0.16914  0.3373499999999999  0.09974999999999999  1.0000
  C   C18       1.0  0.13776  0.40452  0.12514  1.0000
  C   C19       1.0  0.22299  0.50176  0.1283  1.0000
  C   C20       1.0  0.3287  0.52565  0.10709999999999997  1.0000
  C   C21       1.0  0.7901700000000002  0.12014  0.24212999999999998  1.0000
  C   C22       1.0  0.8550400000000001  0.06681  0.23561  1.0000
  C   C23       1.0  0.95234  0.08811  0.26479  1.0000
  C   C24       1.0  0.98041  0.16739  0.2974999999999999  1.0000
  C   C25       1.0  0.91143  0.21766  0.30061  1.0000
  C   C26       1.0  0.13722999999999996  0.9602099999999999  0.30091  1.0000
  C   C27       1.0  0.07057  0.01226  0.3043599999999999  1.0000
  C   C28       1.0  0.020170000000000004  0.03071  0.2622399999999999  1.0000
  C   C29       1.0  0.03856999999999997  0.99071  0.21829  1.0000
  C   C30       1.0  0.10514999999999998  0.9382499999999999  0.21811999999999995  1.0000
  C   C31       1.0  0.7757400000000001  0.9612399999999999  0.53581  1.0000
  C   C32       1.0  0.6896100000000001  0.93099  0.56989  1.0000
  C   C33       1.0  0.69006  0.87006  0.6097599999999999  1.0000
  C   C34       1.0  0.77956  0.8380599999999998  0.60846  1.0000
  C   C35       1.0  0.86275  0.87128  0.57328  1.0000
  C   C36       1.0  0.42533999999999994  0.8203999999999998  0.6831  1.0000
  C   C37       1.0  0.5010499999999999  0.8474499999999999  0.6447699999999998  1.0000
  C   C38       1.0  0.60921  0.8443699999999997  0.6490399999999997  1.0000
  C   C39       1.0  0.63239  0.81537  0.69579  1.0000
  C   C40       1.0  0.5541300000000001  0.79256  0.7329699999999998  1.0000
  C   C41       1.0  0.6769800000000002  0.22678999999999996  0.6524599999999999  1.0000
  C   C42       1.0  0.57196  0.20575999999999994  0.6315799999999999  1.0000
  C   C43       1.0  0.4741200000000001  0.12254999999999999  0.6467999999999998  1.0000
  C   C44       1.0  0.4931200000000001  0.0647  0.6835699999999999  1.0000
  C   C45       1.0  0.60055  0.09005  0.7025999999999999  1.0000
  C   C46       1.0  0.22218  0.13149  0.5800499999999998  1.0000
  C   C47       1.0  0.33049  0.16266999999999995  0.6000199999999998  1.0000
  C   C48       1.0  0.36166000000000004  0.09536  0.62544  1.0000
  C   C49       1.0  0.2762800000000001  0.99819  0.6285799999999998  1.0000
  C   C50       1.0  0.17067000000000004  0.97449  0.6072899999999998  1.0000
  C   C51       1.0  0.70886  0.3800299999999999  0.74216  1.0000
  C   C52       1.0  0.6441100000000002  0.43343999999999994  0.7354299999999998  1.0000
  C   C53       1.0  0.54674  0.41226999999999997  0.76448  1.0000
  C   C54       1.0  0.51842  0.33303  0.79723  1.0000
  C   C55       1.0  0.5873100000000001  0.28269999999999995  0.8005399999999998  1.0000
  C   C56       1.0  0.3619800000000001  0.54013  0.80057  1.0000
  C   C57       1.0  0.42881  0.48824  0.8039999999999998  1.0000
  C   C58       1.0  0.4790499999999999  0.4697899999999999  0.7618599999999999  1.0000
  C   C59       1.0  0.46047  0.50975  0.71791  1.0000
  C   C60       1.0  0.39376000000000005  0.5621  0.71777  1.0000
  C   C61       1.0  0.27567  0.46269  0.96415  1.0000
  C   C62       1.0  0.18952000000000002  0.43215999999999993  0.9300199999999997  1.0000
  C   C63       1.0  0.19009999999999996  0.3711099999999999  0.89025  1.0000
  C   C64       1.0  0.28003  0.33963  0.89158  1.0000
  C   C65       1.0  0.3633200000000001  0.37321999999999994  0.9267299999999998  1.0000
  C   C66       1.0  0.9248  0.31988  0.8168299999999998  1.0000
  C   C67       1.0  0.0006700000000000061  0.34758  0.85515  1.0000
  C   C68       1.0  0.10896  0.34471  0.85104  1.0000
  C   C69       1.0  0.13195  0.31493999999999994  0.80447  1.0000
  C   C70       1.0  0.05354000000000001  0.29142  0.7672899999999999  1.0000
  C   C71       1.0  0.17766999999999997  0.7273799999999999  0.84764  1.0000
  C   C72       1.0  0.07263000000000007  0.70621  0.8684999999999998  1.0000
  C   C73       1.0  0.97493  0.6228099999999998  0.85339  1.0000
  C   C74       1.0  0.9940500000000001  0.56484  0.81676  1.0000
  C   C75       1.0  0.10144999999999994  0.5903399999999999  0.7977499999999997  1.0000
  C   C76       1.0  0.72211  0.63114  0.9195699999999998  1.0000
  C   C77       1.0  0.83063  0.66262  0.8998099999999998  1.0000
  C   C78       1.0  0.8624000000000002  0.5954599999999999  0.8746499999999998  1.0000
  C   C79       1.0  0.7774500000000002  0.49811999999999995  0.8715499999999998  1.0000
  C   C80       1.0  0.67158  0.4740899999999999  0.89261  1.0000
  C   C81       1.0  0.20981000000000002  0.8796799999999999  0.7578599999999998  1.0000
  C   C82       1.0  0.145  0.93307  0.76435  1.0000
  C   C83       1.0  0.04769999999999997  0.91175  0.73517  1.0000
  C   C84       1.0  0.01957999999999997  0.83242  0.7024999999999999  1.0000
  C   C85       1.0  0.08846999999999995  0.78208  0.6994199999999998  1.0000
  C   C86       1.0  0.86275  0.03953  0.69895  1.0000
  C   C87       1.0  0.9295500000000002  0.9876  0.6955399999999999  1.0000
  C   C88       1.0  0.9798300000000002  0.9691299999999999  0.7376899999999997  1.0000
  C   C89       1.0  0.9612100000000002  0.009  0.7816199999999999  1.0000
  C   C90       1.0  0.8944700000000002  0.061319999999999986  0.78176  1.0000
  C   C91       1.0  0.22421  0.03869  0.46416  1.0000
  C   C92       1.0  0.31038  0.06896  0.43008999999999986  1.0000
  C   C93       1.0  0.3099400000000001  0.12991  0.3902299999999999  1.0000
  C   C94       1.0  0.22043  0.1619  0.39151999999999987  1.0000
  C   C95       1.0  0.13721  0.12864  0.4266799999999999  1.0000
  C   C96       1.0  0.57473  0.17963  0.3169099999999999  1.0000
  C   C97       1.0  0.4990000000000001  0.15257999999999997  0.35523999999999994  1.0000
  C   C98       1.0  0.39085  0.15565  0.35097  1.0000
  C   C99       1.0  0.3677200000000001  0.18472999999999995  0.30423  1.0000
  C   C100      1.0  0.44599000000000005  0.20756  0.26706  1.0000
  C   C101      1.0  0.32306000000000007  0.77338  0.34749999999999986  1.0000
  C   C102      1.0  0.42803  0.79441  0.36842  1.0000
  C   C103      1.0  0.52589  0.87759  0.35319999999999996  1.0000
  C   C104      1.0  0.5070099999999998  0.9354099999999997  0.3163799999999999  1.0000
  C   C105      1.0  0.3996099999999999  0.9100399999999997  0.29730999999999996  1.0000
  C   C106      1.0  0.7777699999999999  0.8684699999999997  0.41989  1.0000
  C   C107      1.0  0.66945  0.83735  0.3999499999999999  1.0000
  C   C108      1.0  0.6382999999999999  0.9047299999999999  0.37459  1.0000
  C   C109      1.0  0.7236700000000003  0.0018799999999999997  0.37146999999999997  1.0000
  C   C110      1.0  0.82931  0.02553  0.39272  1.0000
  C   C111      1.0  0.29119  0.61991  0.25773999999999997  1.0000
  C   C112      1.0  0.356  0.56653  0.26438999999999996  1.0000
  C   C113      1.0  0.45337  0.5878  0.23533  1.0000
  C   C114      1.0  0.4816099999999999  0.6670999999999998  0.20261999999999997  1.0000
  C   C115      1.0  0.41269  0.7174  0.19936999999999996  1.0000
  C   C116      1.0  0.63824  0.46001999999999993  0.19921999999999998  1.0000
  C   C117      1.0  0.57154  0.51203  0.19579  1.0000
  C   C118      1.0  0.52113  0.53034  0.23790999999999998  1.0000
  C   C119      1.0  0.53954  0.4902299999999999  0.2818399999999999  1.0000
  C   C120      1.0  0.6061700000000001  0.43783  0.282  1.0000
  N   N1        1.0  0.634  0.56582  0.0375  1.0000
  N   N2        1.0  0.051510000000000014  0.70741  0.22814999999999994  1.0000
  N   N3        1.0  0.80583  0.32805  0.18825  1.0000
  N   N4        1.0  0.35882  0.4617  0.08289999999999999  1.0000
  N   N5        1.0  0.8151500000000003  0.1942  0.2744  1.0000
  N   N6        1.0  0.15611999999999998  0.92266  0.25854  1.0000
  N   N7        1.0  0.8657200000000003  0.93533  0.53716  1.0000
  N   N8        1.0  0.44861999999999996  0.7928399999999999  0.7278599999999997  1.0000
  N   N9        1.0  0.6937300000000002  0.17124  0.6883599999999997  1.0000
  N   N10       1.0  0.14075999999999997  0.03853  0.5830199999999998  1.0000
  N   N11       1.0  0.6836900000000002  0.30605  0.77449  1.0000
  N   N12       1.0  0.34287  0.57759  0.7581899999999999  1.0000
  N   N13       1.0  0.36588  0.43705  0.9628699999999998  1.0000
  N   N14       1.0  0.94806  0.2918  0.77222  1.0000
  N   N15       1.0  0.19451000000000004  0.67176  0.81184  1.0000
  N   N16       1.0  0.64109  0.53801  0.9166099999999998  1.0000
  N   N17       1.0  0.1847300000000001  0.80553  0.72564  1.0000
  N   N18       1.0  0.8436  0.07690999999999999  0.74131  1.0000
  N   N19       1.0  0.13422  0.06458  0.46278999999999987  1.0000
  N   N20       1.0  0.55148  0.20724  0.27215  1.0000
  N   N21       1.0  0.30639999999999995  0.82892  0.3115799999999999  1.0000
  N   N22       1.0  0.8592000000000001  0.96142  0.41693  1.0000
  N   N23       1.0  0.31631999999999993  0.6939699999999998  0.22545  1.0000
  N   N24       1.0  0.65713  0.4223799999999999  0.24157999999999993  1.0000
