data_image0
_chemical_formula_structural       Cd4H112C144N8O24
_chemical_formula_sum              "Cd4 H112 C144 N8 O24"
_cell_length_a       12.93496
_cell_length_b       13.53445
_cell_length_c       19.3174
_cell_angle_alpha    90.0
_cell_angle_beta     89.95434000000002
_cell_angle_gamma    90.0

_symmetry_space_group_name_H-M    'P 1'
_symmetry_Int_Tables_number       1

loop_
  _symmetry_equiv_pos_as_xyz
  'x,y,z'

loop_
  _atom_site_type_symbol
  _atom_site_label
  _atom_site_symmetry_multiplicity
  _atom_site_fract_x
  _atom_site_fract_y
  _atom_site_fract_z
  _atom_site_occupancy
  Cd  Cd1       1.0  0.7326199999999998  0.37367  0.23656000000000002  1.0000
  Cd  Cd2       1.0  0.26737999999999995  0.8736700000000001  0.76345  1.0000
  Cd  Cd3       1.0  0.23241999999999993  0.37331  0.2636  1.0000
  Cd  Cd4       1.0  0.76758  0.87331  0.73641  1.0000
  H   H1        1.0  0.06854999999999999  0.75046  0.78162  1.0000
  H   H2        1.0  0.67361  0.4352  0.50868  1.0000
  H   H3        1.0  0.7891799999999999  0.13599  0.8702  1.0000
  H   H4        1.0  0.62982  0.4091300000000001  0.9119000000000002  1.0000
  H   H5        1.0  0.5014299999999999  0.20468  0.56064  1.0000
  H   H6        1.0  0.9986099999999999  0.7047700000000001  0.06061  1.0000
  H   H7        1.0  0.43114999999999987  0.55048  0.37843  1.0000
  H   H8        1.0  0.05565  0.18824000000000002  0.13143  1.0000
  H   H9        1.0  0.55028  0.42727000000000004  0.79478  1.0000
  H   H10       1.0  0.6006399999999998  0.5237  0.69665  1.0000
  H   H11       1.0  0.16846999999999998  0.69026  0.37365  1.0000
  H   H12       1.0  0.44713999999999987  0.6428500000000003  0.78206  1.0000
  H   H13       1.0  0.06915999999999999  0.05064  0.87767  1.0000
  H   H14       1.0  0.04055  0.54765  0.94314  1.0000
  H   H15       1.0  0.9314499999999998  0.25046  0.21837999999999996  1.0000
  H   H16       1.0  0.9594499999999998  0.04765  0.05686  1.0000
  H   H17       1.0  0.5689199999999999  0.7499700000000002  0.71823  1.0000
  H   H18       1.0  0.6438499999999998  0.22708000000000006  0.9262500000000001  1.0000
  H   H19       1.0  0.55285  0.14285  0.21794  1.0000
  H   H20       1.0  0.9482999999999999  0.6402100000000002  0.71631  1.0000
  H   H21       1.0  0.6884599999999997  0.56345  0.8556500000000001  1.0000
  H   H22       1.0  0.54056  0.54805  0.55748  1.0000
  H   H23       1.0  0.12971  0.40897  0.58813  1.0000
  H   H24       1.0  0.13333999999999996  0.03057  0.43699000000000005  1.0000
  H   H25       1.0  0.8315199999999999  0.19026000000000004  0.62635  1.0000
  H   H26       1.0  0.52802  0.48857  0.27737  1.0000
  H   H27       1.0  0.10374999999999997  0.266  0.98013  1.0000
  H   H28       1.0  0.4719799999999999  0.98857  0.72263  1.0000
  H   H29       1.0  0.35614999999999997  0.72707  0.07375  1.0000
  H   H30       1.0  0.43108  0.24997  0.28178  1.0000
  H   H31       1.0  0.05520999999999999  0.96153  0.03775  1.0000
  H   H32       1.0  0.26016999999999996  0.3747  0.09879  1.0000
  H   H33       1.0  0.14418  0.22694  0.57387  1.0000
  H   H34       1.0  0.22226999999999994  0.61625  0.87471  1.0000
  H   H35       1.0  0.27695999999999993  0.11626  0.37524  1.0000
  H   H36       1.0  0.36056  0.31294000000000005  0.52723  1.0000
  H   H37       1.0  0.32638999999999996  0.9352  0.49132000000000003  1.0000
  H   H38       1.0  0.01866  0.81418  0.29502  1.0000
  H   H39       1.0  0.9003299999999999  0.02322  0.19655  1.0000
  H   H40       1.0  0.08030999999999999  0.7240900000000001  0.19815  1.0000
  H   H41       1.0  0.8494299999999999  0.59146  0.03449  1.0000
  H   H42       1.0  0.66844  0.69039  0.12684  1.0000
  H   H43       1.0  0.08712999999999999  0.10248  0.72657  1.0000
  H   H44       1.0  0.9813299999999998  0.31418  0.70498  1.0000
  H   H45       1.0  0.9447899999999999  0.46153  0.96225  1.0000
  H   H46       1.0  0.44436  0.68841  0.63137  1.0000
  H   H47       1.0  0.7600699999999999  0.37387  0.40162  1.0000
  H   H48       1.0  0.97134  0.99019  0.7766  1.0000
  H   H49       1.0  0.75359  0.8761700000000002  0.56646  1.0000
  H   H50       1.0  0.4195799999999999  0.22473  0.69835  1.0000
  H   H51       1.0  0.23992999999999995  0.87387  0.59839  1.0000
  H   H52       1.0  0.63431  0.030880000000000008  0.06333  1.0000
  H   H53       1.0  0.58424  0.10198  0.77085  1.0000
  H   H54       1.0  0.4594399999999999  0.04805  0.44253  1.0000
  H   H55       1.0  0.7230399999999999  0.6162600000000001  0.62476  1.0000
  H   H56       1.0  0.02866  0.49019  0.2234  1.0000
  H   H57       1.0  0.3993499999999999  0.023700000000000002  0.30335  1.0000
  H   H58       1.0  0.37016999999999994  0.90913  0.08811  1.0000
  H   H59       1.0  0.8124899999999998  0.06318  0.35564  1.0000
  H   H60       1.0  0.6147899999999998  0.84852  0.07444  1.0000
  H   H61       1.0  0.7777299999999998  0.11625  0.12529  1.0000
  H   H62       1.0  0.13933999999999994  0.81275  0.027070000000000004  1.0000
  H   H63       1.0  0.5688499999999999  0.05048  0.62157  1.0000
  H   H64       1.0  0.8861999999999999  0.34833  0.57462  1.0000
  H   H65       1.0  0.24640999999999993  0.37617  0.43354000000000004  1.0000
  H   H66       1.0  0.6394299999999999  0.81294  0.47277  1.0000
  H   H67       1.0  0.9128699999999998  0.60248  0.27343  1.0000
  H   H68       1.0  0.9308399999999998  0.55064  0.12234  1.0000
  H   H69       1.0  0.86065  0.31275000000000003  0.97293  1.0000
  H   H70       1.0  0.6414  0.11766  0.44586  1.0000
  H   H71       1.0  0.8585699999999998  0.6173000000000001  0.9461999999999999  1.0000
  H   H72       1.0  0.2897  0.13649  0.63  1.0000
  H   H73       1.0  0.58042  0.7247300000000001  0.30166  1.0000
  H   H74       1.0  0.5550599999999999  0.96182  0.46155999999999997  1.0000
  H   H75       1.0  0.9196899999999999  0.22409  0.80186  1.0000
  H   H76       1.0  0.5556399999999999  0.18841  0.36863  1.0000
  H   H77       1.0  0.05169999999999999  0.14021  0.28369  1.0000
  H   H78       1.0  0.34963  0.59122  0.46595000000000003  1.0000
  H   H79       1.0  0.48104  0.31563  0.79466  1.0000
  H   H80       1.0  0.09965999999999998  0.52322  0.80345  1.0000
  H   H81       1.0  0.4497199999999999  0.92727  0.20522  1.0000
  H   H82       1.0  0.65037  0.09122  0.53405  1.0000
  H   H83       1.0  0.49857  0.70467  0.43937  1.0000
  H   H84       1.0  0.18750999999999995  0.56318  0.64436  1.0000
  H   H85       1.0  0.21081999999999995  0.63599  0.1298  1.0000
  H   H86       1.0  0.4449299999999999  0.46182  0.53844  1.0000
  H   H87       1.0  0.0013799999999999995  0.20477  0.9393899999999998  1.0000
  H   H88       1.0  0.3315599999999999  0.19039  0.8731700000000001  1.0000
  H   H89       1.0  0.17307999999999996  0.43504  0.99178  1.0000
  H   H90       1.0  0.25318  0.87661  0.9332299999999999  1.0000
  H   H91       1.0  0.71029  0.63649  0.37  1.0000
  H   H92       1.0  0.95018  0.92618  0.29546  1.0000
  H   H93       1.0  0.31154  0.06345  0.14435  1.0000
  H   H94       1.0  0.04982  0.4261800000000001  0.70454  1.0000
  H   H95       1.0  0.3656899999999999  0.53088  0.9366699999999999  1.0000
  H   H96       1.0  0.39622999999999997  0.76599  0.48016000000000003  1.0000
  H   H97       1.0  0.14143  0.11730000000000002  0.05381  1.0000
  H   H98       1.0  0.38521  0.34852  0.92556  1.0000
  H   H99       1.0  0.6037699999999999  0.26599  0.51984  1.0000
  H   H100      1.0  0.7468099999999999  0.37661000000000006  0.06677  1.0000
  H   H101      1.0  0.8269199999999998  0.93504  0.00822  1.0000
  H   H102      1.0  0.94435  0.68824  0.86857  1.0000
  H   H103      1.0  0.7398199999999998  0.8747  0.90121  1.0000
  H   H104      1.0  0.8962499999999998  0.766  0.01987  1.0000
  H   H105      1.0  0.15056999999999998  0.09146  0.96551  1.0000
  H   H106      1.0  0.86666  0.53057  0.56301  1.0000
  H   H107      1.0  0.87029  0.90897  0.41187  1.0000
  H   H108      1.0  0.8558199999999998  0.7269400000000001  0.42613  1.0000
  H   H109      1.0  0.11379999999999998  0.84833  0.42538  1.0000
  H   H110      1.0  0.41575999999999996  0.60198  0.22915  1.0000
  H   H111      1.0  0.3586  0.6176600000000001  0.55414  1.0000
  H   H112      1.0  0.5189599999999999  0.81563  0.20535  1.0000
  C   C1        1.0  0.69415  0.36862  0.8890400000000002  1.0000
  C   C2        1.0  0.8321899999999999  0.8792600000000003  0.17616  1.0000
  C   C3        1.0  0.70124  0.17439  0.6932  1.0000
  C   C4        1.0  0.4010799999999999  0.8242000000000002  0.28163  1.0000
  C   C5        1.0  0.7331799999999998  0.7283200000000002  0.15105  1.0000
  C   C6        1.0  0.44227  0.97721  0.67062  1.0000
  C   C7        1.0  0.5295799999999999  0.74674  0.54371  1.0000
  C   C8        1.0  0.8122399999999997  0.48796000000000006  0.59388  1.0000
  C   C9        1.0  0.01135  0.72985  0.8857099999999999  1.0000
  C   C10       1.0  0.18774999999999994  0.98796  0.40612  1.0000
  C   C11       1.0  0.76755  0.42198  0.8487399999999999  1.0000
  C   C12       1.0  0.9099699999999998  0.52281  0.7633  1.0000
  C   C13       1.0  0.3127699999999999  0.91405  0.601  1.0000
  C   C14       1.0  0.21560999999999994  0.71597  0.13493  1.0000
  C   C15       1.0  0.18412999999999993  0.8339200000000002  0.92119  1.0000
  C   C16       1.0  0.3113899999999999  0.48807  0.9058799999999999  1.0000
  C   C17       1.0  0.49632  0.01191  0.6134  1.0000
  C   C18       1.0  0.9886499999999998  0.22985  0.11429000000000002  1.0000
  C   C19       1.0  0.042079999999999985  0.49653  0.04732  1.0000
  C   C20       1.0  0.3224899999999999  0.57496  0.70704  1.0000
  C   C21       1.0  0.19411999999999993  0.36863  0.61091  1.0000
  C   C22       1.0  0.7549899999999999  0.52382  0.8351  1.0000
  C   C23       1.0  0.75246  0.33065  0.64084  1.0000
  C   C24       1.0  0.8127499999999998  0.91473  0.8984999999999999  1.0000
  C   C25       1.0  0.25210999999999995  0.33063000000000003  0.85892  1.0000
  C   C26       1.0  0.07398  0.92237  0.22389  1.0000
  C   C27       1.0  0.057959999999999984  0.47825  0.1713  1.0000
  C   C28       1.0  0.15963999999999998  0.48371  0.83136  1.0000
  C   C29       1.0  0.23243999999999995  0.9219800000000001  0.15126  1.0000
  C   C30       1.0  0.79817  0.7676000000000002  0.39672  1.0000
  C   C31       1.0  0.6775099999999998  0.07496  0.29297  1.0000
  C   C32       1.0  0.90502  0.61048  0.99355  1.0000
  C   C33       1.0  0.8403599999999998  0.98371  0.16864  1.0000
  C   C34       1.0  0.19698999999999997  0.17956  0.22549  1.0000
  C   C35       1.0  0.38353  0.7231  0.27294  1.0000
  C   C36       1.0  0.48853999999999986  0.22991  0.38579  1.0000
  C   C37       1.0  0.31556  0.33364  0.4214  1.0000
  C   C38       1.0  0.6467999999999999  0.87085  0.3177  1.0000
  C   C39       1.0  0.8058799999999998  0.86863  0.38909  1.0000
  C   C40       1.0  0.88074  0.29932  0.026740000000000003  1.0000
  C   C41       1.0  0.17672999999999994  0.07438000000000002  0.20755  1.0000
  C   C42       1.0  0.3586  0.2664  0.67301  1.0000
  C   C43       1.0  0.6193799999999999  0.79939  0.52659  1.0000
  C   C44       1.0  0.82327  0.57438  0.79245  1.0000
  C   C45       1.0  0.24753999999999995  0.83065  0.35916  1.0000
  C   C46       1.0  0.88239  0.7228  0.22806999999999997  1.0000
  C   C47       1.0  0.18724999999999994  0.41473  0.1015  1.0000
  C   C48       1.0  0.015949999999999995  0.02732  0.01678  1.0000
  C   C49       1.0  0.81587  0.33392  0.07881  1.0000
  C   C50       1.0  0.54242  0.49649000000000004  0.45332999999999996  1.0000
  C   C51       1.0  0.9964899999999998  0.012270000000000003  0.8859000000000001  1.0000
  C   C52       1.0  0.32193  0.38699  0.8999500000000001  1.0000
  C   C53       1.0  0.09919999999999997  0.32364  0.78109  1.0000
  C   C54       1.0  0.26972999999999997  0.03636  0.3713  1.0000
  C   C55       1.0  0.55773  0.47721000000000013  0.32939  1.0000
  C   C56       1.0  0.6780699999999997  0.88699  0.10005  1.0000
  C   C57       1.0  0.0035099999999999997  0.51227  0.11410000000000001  1.0000
  C   C58       1.0  0.45757999999999993  0.99649  0.54667  1.0000
  C   C59       1.0  0.09498  0.11048000000000001  0.00645  1.0000
  C   C60       1.0  0.69877  0.17987000000000003  0.27506  1.0000
  C   C61       1.0  0.59892  0.3242  0.71837  1.0000
  C   C62       1.0  0.02952  0.74658  0.9562  1.0000
  C   C63       1.0  0.3318  0.87956  0.32408  1.0000
  C   C64       1.0  0.64139  0.7664  0.32699  1.0000
  C   C65       1.0  0.40984  0.52433  0.73616  1.0000
  C   C66       1.0  0.3806199999999999  0.29939  0.47341  1.0000
  C   C67       1.0  0.5948499999999999  0.11057  0.49319  1.0000
  C   C68       1.0  0.014089999999999997  0.3713500000000001  0.73877  1.0000
  C   C69       1.0  0.41943999999999987  0.2647  0.3366  1.0000
  C   C70       1.0  0.80301  0.6795600000000002  0.77452  1.0000
  C   C71       1.0  0.6844399999999999  0.83364  0.5786  1.0000
  C   C72       1.0  0.8530699999999998  0.37  0.81751  1.0000
  C   C73       1.0  0.5140599999999999  0.37254  0.76073  1.0000
  C   C74       1.0  0.48426  0.52754  0.51738  1.0000
  C   C75       1.0  0.14159  0.76564  0.17297  1.0000
  C   C76       1.0  0.11759999999999997  0.2228  0.77193  1.0000
  C   C77       1.0  0.7978299999999998  0.67437  0.19396  1.0000
  C   C78       1.0  0.25445  0.52397  0.66459  1.0000
  C   C79       1.0  0.6872299999999999  0.41405  0.399  1.0000
  C   C80       1.0  0.51145  0.7299100000000001  0.61421  1.0000
  C   C81       1.0  0.66043  0.48406  0.66855  1.0000
  C   C82       1.0  0.26748999999999995  0.42224  0.65098  1.0000
  C   C83       1.0  0.6885999999999998  0.98807  0.09412  1.0000
  C   C84       1.0  0.30585  0.86862  0.11096  1.0000
  C   C85       1.0  0.48593999999999987  0.87254  0.23926999999999998  1.0000
  C   C86       1.0  0.7705499999999998  0.0363  0.129  1.0000
  C   C87       1.0  0.9260199999999997  0.42237  0.77612  1.0000
  C   C88       1.0  0.11925999999999998  0.7993200000000001  0.9732600000000001  1.0000
  C   C89       1.0  0.22944  0.5363  0.871  1.0000
  C   C90       1.0  0.27763  0.56817  0.29341  1.0000
  C   C91       1.0  0.47042  0.24674  0.4562899999999999  1.0000
  C   C92       1.0  0.9197299999999998  0.26499  0.16355  1.0000
  C   C93       1.0  0.6681999999999998  0.3795700000000001  0.67592  1.0000
  C   C94       1.0  0.22405999999999995  0.06831  0.79311  1.0000
  C   C95       1.0  0.1678  0.37926000000000004  0.82384  1.0000
  C   C96       1.0  0.20217  0.17437  0.80604  1.0000
  C   C97       1.0  0.40515  0.61057  0.50681  1.0000
  C   C98       1.0  0.74555  0.02397  0.33541  1.0000
  C   C99       1.0  0.9704699999999999  0.24658  0.0438  1.0000
  C   C100      1.0  0.45652  0.70973  0.4887  1.0000
  C   C101      1.0  0.7152699999999997  0.71648  0.36497  1.0000
  C   C102      1.0  0.7666  0.22816000000000003  0.65055  1.0000
  C   C103      1.0  0.63777  0.44738  0.45846  1.0000
  C   C104      1.0  0.20182999999999995  0.2676  0.60328  1.0000
  C   C105      1.0  0.72236  0.06817  0.70659  1.0000
  C   C106      1.0  0.58055  0.7647000000000002  0.66341  1.0000
  C   C107      1.0  0.8227099999999998  0.3869000000000001  0.6  1.0000
  C   C108      1.0  0.33956999999999987  0.98406  0.33145  1.0000
  C   C109      1.0  0.24501  0.02382  0.1649  1.0000
  C   C110      1.0  0.8625299999999998  0.9475000000000001  0.9579199999999999  1.0000
  C   C111      1.0  0.98405  0.52732  0.98322  1.0000
  C   C112      1.0  0.17727999999999994  0.8869  0.40001  1.0000
  C   C113      1.0  0.5157399999999999  0.02754  0.48262  1.0000
  C   C114      1.0  0.23338999999999996  0.72816  0.34945  1.0000
  C   C115      1.0  0.36223  0.9473800000000001  0.54155  1.0000
  C   C116      1.0  0.98591  0.87135  0.26123  1.0000
  C   C117      1.0  0.7843899999999999  0.21597000000000002  0.86507  1.0000
  C   C118      1.0  0.29875999999999997  0.67439  0.3068  1.0000
  C   C119      1.0  0.26682  0.22832000000000002  0.84895  1.0000
  C   C120      1.0  0.90079  0.82364  0.21890999999999997  1.0000
  C   C121      1.0  0.7016299999999998  0.26755  0.89677  1.0000
  C   C122      1.0  0.30123  0.6798700000000002  0.72494  1.0000
  C   C123      1.0  0.5901599999999999  0.02433  0.26384  1.0000
  C   C124      1.0  0.57396  0.92376  0.27647  1.0000
  C   C125      1.0  0.35319  0.3708500000000001  0.6823  1.0000
  C   C126      1.0  0.14693  0.87  0.18249  1.0000
  C   C127      1.0  0.13745999999999997  0.4475  0.04209  1.0000
  C   C128      1.0  0.04349999999999999  0.20967  0.98866  1.0000
  C   C129      1.0  0.74788  0.83063  0.14109  1.0000
  C   C130      1.0  0.08027  0.76499  0.83645  1.0000
  C   C131      1.0  0.9564899999999998  0.7096700000000002  0.01135  1.0000
  C   C132      1.0  0.42603999999999986  0.42376  0.72353  1.0000
  C   C133      1.0  0.9579199999999998  0.99653  0.95269  1.0000
  C   C134      1.0  0.9420299999999999  0.9782500000000002  0.8287  1.0000
  C   C135      1.0  0.6164699999999999  0.2231  0.72706  1.0000
  C   C136      1.0  0.54348  0.20973  0.51131  1.0000
  C   C137      1.0  0.7324999999999999  0.9222400000000001  0.34902  1.0000
  C   C138      1.0  0.09002999999999997  0.02281  0.23671  1.0000
  C   C139      1.0  0.2847299999999999  0.21648  0.63503  1.0000
  C   C140      1.0  0.8584099999999998  0.26564  0.82703  1.0000
  C   C141      1.0  0.7302699999999999  0.53636  0.6287  1.0000
  C   C142      1.0  0.29837  0.7675500000000001  0.10323  1.0000
  C   C143      1.0  0.7759299999999998  0.56831  0.20689  1.0000
  C   C144      1.0  0.5036799999999999  0.51191  0.3866  1.0000
  N   N1        1.0  0.35204999999999986  0.92824  0.66496  1.0000
  N   N2        1.0  0.6660699999999999  0.8163100000000001  0.64629  1.0000
  N   N3        1.0  0.14829  0.42944  0.16554  1.0000
  N   N4        1.0  0.8516999999999998  0.92944  0.8344599999999999  1.0000
  N   N5        1.0  0.8343799999999998  0.31681  0.14648  1.0000
  N   N6        1.0  0.16561999999999996  0.8168100000000001  0.85352  1.0000
  N   N7        1.0  0.33393  0.31631  0.35372  1.0000
  N   N8        1.0  0.6479399999999998  0.42824  0.33504  1.0000
  O   O1        1.0  0.0545  0.17064  0.72917  1.0000
  O   O2        1.0  0.7015099999999999  0.52484  0.17659  1.0000
  O   O3        1.0  0.16486  0.02117  0.74984  1.0000
  O   O4        1.0  0.13198999999999997  0.22401  0.26676  1.0000
  O   O5        1.0  0.44774999999999987  0.6706500000000002  0.23115  1.0000
  O   O6        1.0  0.83514  0.52117  0.25016  1.0000
  O   O7        1.0  0.22314999999999993  0.72477  0.70066  1.0000
  O   O8        1.0  0.66212  0.021150000000000002  0.7494  1.0000
  O   O9        1.0  0.29848  0.024840000000000008  0.82341  1.0000
  O   O10       1.0  0.9454999999999998  0.67064  0.27084  1.0000
  O   O11       1.0  0.02194  0.07124  0.27825  1.0000
  O   O12       1.0  0.6346799999999998  0.22429  0.23322000000000004  1.0000
  O   O13       1.0  0.4776799999999999  0.57392  0.77734  1.0000
  O   O14       1.0  0.33788  0.52115  0.2506  1.0000
  O   O15       1.0  0.7768499999999998  0.22477  0.29935  1.0000
  O   O16       1.0  0.55225  0.17065000000000002  0.76885  1.0000
  O   O17       1.0  0.8680099999999997  0.72401  0.73325  1.0000
  O   O18       1.0  0.20238  0.52475  0.32304  1.0000
  O   O19       1.0  0.36532  0.72429  0.76678  1.0000
  O   O20       1.0  0.52232  0.07392  0.22266  1.0000
  O   O21       1.0  0.9780599999999998  0.57124  0.72175  1.0000
  O   O22       1.0  0.72448  0.72434  0.79866  1.0000
  O   O23       1.0  0.79762  0.02475  0.67696  1.0000
  O   O24       1.0  0.27552  0.22434  0.20134  1.0000
