data_image0
_chemical_formula_structural       Cd16H72C184O80
_chemical_formula_sum              "Cd16 H72 C184 O80"
_cell_length_a       11.4021
_cell_length_b       23.16688
_cell_length_c       29.43468
_cell_angle_alpha    89.99683
_cell_angle_beta     89.99592
_cell_angle_gamma    89.98351

_symmetry_space_group_name_H-M    'P 1'
_symmetry_Int_Tables_number       1

loop_
  _symmetry_equiv_pos_as_xyz
  'x,y,z'

loop_
  _atom_site_type_symbol
  _atom_site_label
  _atom_site_symmetry_multiplicity
  _atom_site_fract_x
  _atom_site_fract_y
  _atom_site_fract_z
  _atom_site_occupancy
  Cd  Cd1       1.0  0.5546  0.19266  0.11888  1.0000
  Cd  Cd2       1.0  0.74745  0.09512  0.06604  1.0000
  Cd  Cd3       1.0  0.94552  0.19271  0.38113  1.0000
  Cd  Cd4       1.0  0.75228  0.095  0.43369  1.0000
  Cd  Cd5       1.0  0.05408  0.30733  0.88108  1.0000
  Cd  Cd6       1.0  0.24761999999999998  0.40495  0.93387  1.0000
  Cd  Cd7       1.0  0.44566999999999996  0.30726  0.61875  1.0000
  Cd  Cd8       1.0  0.25238  0.40492  0.56618  1.0000
  Cd  Cd9       1.0  0.44547  0.80725  0.88115  1.0000
  Cd  Cd10      1.0  0.25249  0.9049199999999998  0.93392  1.0000
  Cd  Cd11      1.0  0.05394999999999999  0.8072  0.61884  1.0000
  Cd  Cd12      1.0  0.2475  0.9049  0.5664499999999998  1.0000
  Cd  Cd13      1.0  0.9451999999999999  0.6926899999999999  0.11875  1.0000
  Cd  Cd14      1.0  0.7522999999999997  0.59501  0.06621  1.0000
  Cd  Cd15      1.0  0.55445  0.6927099999999999  0.38118  1.0000
  Cd  Cd16      1.0  0.74737  0.59511  0.43394  1.0000
  H   H1        1.0  0.57091  0.03934  0.2362  1.0000
  H   H2        1.0  0.5896999999999999  0.8573999999999999  0.20256999999999994  1.0000
  H   H3        1.0  0.56746  0.98642  0.09743  1.0000
  H   H4        1.0  0.60396  0.89533  0.40475  1.0000
  H   H5        1.0  0.6354599999999999  0.0184  0.2969  1.0000
  H   H6        1.0  0.53576  0.8411  0.26807  1.0000
  H   H7        1.0  0.55551  0.7530599999999998  0.01599  1.0000
  H   H8        1.0  0.67926  0.80738  0.14686  1.0000
  H   H9        1.0  0.46198  0.92106  0.06513  1.0000
  H   H10       1.0  0.92898  0.03924  0.2637  1.0000
  H   H11       1.0  0.9101499999999998  0.85731  0.29736  1.0000
  H   H12       1.0  0.93262  0.9864299999999999  0.40246  1.0000
  H   H13       1.0  0.89618  0.8953  0.09514  1.0000
  H   H14       1.0  0.8646799999999998  0.01854  0.20292999999999994  1.0000
  H   H15       1.0  0.96394  0.84117  0.23185  1.0000
  H   H16       1.0  0.94469  0.75315  0.48409  1.0000
  H   H17       1.0  0.82079  0.80731  0.3532  1.0000
  H   H18       1.0  0.0381  0.92108  0.43484  1.0000
  H   H19       1.0  0.07085  0.46070999999999995  0.76379  1.0000
  H   H20       1.0  0.08987999999999999  0.64265  0.79743  1.0000
  H   H21       1.0  0.06737  0.51361  0.90256  1.0000
  H   H22       1.0  0.10335999999999998  0.60467  0.59522  1.0000
  H   H23       1.0  0.13598  0.48156  0.70303  1.0000
  H   H24       1.0  0.0353  0.65876  0.73193  1.0000
  H   H25       1.0  0.05536  0.74682  0.9841  1.0000
  H   H26       1.0  0.17917  0.6926499999999999  0.8532  1.0000
  H   H27       1.0  0.96199  0.5789  0.9349199999999998  1.0000
  H   H28       1.0  0.42891999999999997  0.46068  0.7362199999999998  1.0000
  H   H29       1.0  0.4101499999999999  0.64263  0.70263  1.0000
  H   H30       1.0  0.43237999999999993  0.51364  0.59747  1.0000
  H   H31       1.0  0.39652  0.60467  0.90482  1.0000
  H   H32       1.0  0.36414  0.48156  0.79699  1.0000
  H   H33       1.0  0.46426  0.6588  0.76811  1.0000
  H   H34       1.0  0.44441  0.74696  0.516  1.0000
  H   H35       1.0  0.32058  0.69261  0.64688  1.0000
  H   H36       1.0  0.5378599999999999  0.57893  0.56516  1.0000
  H   H37       1.0  0.42904  0.96069  0.7637999999999999  1.0000
  H   H38       1.0  0.41028  0.14261  0.79748  1.0000
  H   H39       1.0  0.43251  0.01355  0.9025999999999997  1.0000
  H   H40       1.0  0.39633999999999997  0.10467999999999998  0.59529  1.0000
  H   H41       1.0  0.3642  0.9817  0.70319  1.0000
  H   H42       1.0  0.46444  0.15894  0.73198  1.0000
  H   H43       1.0  0.44447  0.24693  0.98401  1.0000
  H   H44       1.0  0.3206399999999999  0.19255  0.8531499999999999  1.0000
  H   H45       1.0  0.53799  0.07893  0.9349  1.0000
  H   H46       1.0  0.07109  0.96083  0.73632  1.0000
  H   H47       1.0  0.0899  0.14275  0.70264  1.0000
  H   H48       1.0  0.06749  0.013639999999999998  0.59754  1.0000
  H   H49       1.0  0.10319  0.1048  0.9049199999999998  1.0000
  H   H50       1.0  0.13578  0.9816499999999999  0.79709  1.0000
  H   H51       1.0  0.03553  0.15889  0.76816  1.0000
  H   H52       1.0  0.055269999999999986  0.24683  0.51592  1.0000
  H   H53       1.0  0.17915999999999999  0.19269  0.64682  1.0000
  H   H54       1.0  0.9619999999999999  0.07889  0.56516  1.0000
  H   H55       1.0  0.92907  0.53929  0.23618  1.0000
  H   H56       1.0  0.91022  0.35734  0.20258  1.0000
  H   H57       1.0  0.9325999999999999  0.48635  0.09743  1.0000
  H   H58       1.0  0.89616  0.39535  0.40478999999999987  1.0000
  H   H59       1.0  0.8646699999999999  0.51856  0.29702  1.0000
  H   H60       1.0  0.964  0.34118  0.26809  1.0000
  H   H61       1.0  0.9446499999999999  0.25316  0.01588  1.0000
  H   H62       1.0  0.8209699999999999  0.3073  0.14682  1.0000
  H   H63       1.0  0.03807  0.42106  0.06508  1.0000
  H   H64       1.0  0.57099  0.53932  0.26374  1.0000
  H   H65       1.0  0.5898299999999999  0.35738  0.29737  1.0000
  H   H66       1.0  0.56768  0.48641  0.4025099999999999  1.0000
  H   H67       1.0  0.6037  0.39528  0.09516  1.0000
  H   H68       1.0  0.63558  0.51838  0.20301  1.0000
  H   H69       1.0  0.5358  0.34112  0.23187999999999995  1.0000
  H   H70       1.0  0.55548  0.25308  0.48402  1.0000
  H   H71       1.0  0.67926  0.30732  0.35311  1.0000
  H   H72       1.0  0.46219  0.42110999999999993  0.43487  1.0000
  C   C1        1.0  0.55986  0.08029  0.15148  1.0000
  C   C2        1.0  0.569  0.01836  0.16575  1.0000
  C   C3        1.0  0.57513  0.00415  0.21178  1.0000
  C   C4        1.0  0.58341  0.94572  0.22596999999999995  1.0000
  C   C5        1.0  0.5845  0.90246  0.19249  1.0000
  C   C6        1.0  0.57591  0.9157299999999999  0.14607  1.0000
  C   C7        1.0  0.5695  0.97459  0.13313  1.0000
  C   C8        1.0  0.5416299999999998  0.80327  0.35367  1.0000
  C   C9        1.0  0.6588099999999999  0.00829  0.38510999999999995  1.0000
  C   C10       1.0  0.56588  0.8630899999999999  0.33732  1.0000
  C   C11       1.0  0.59777  0.90583  0.36882  1.0000
  C   C12       1.0  0.6216  0.96168  0.3533099999999999  1.0000
  C   C13       1.0  0.61523  0.97443  0.3070299999999999  1.0000
  C   C14       1.0  0.5865  0.9317  0.27479  1.0000
  C   C15       1.0  0.5611099999999999  0.8757199999999999  0.29101  1.0000
  C   C16       1.0  0.43629  0.85008  0.99294  1.0000
  C   C17       1.0  0.6819999999999999  0.71751  0.08868  1.0000
  C   C18       1.0  0.50306  0.8388799999999998  0.03632999999999999  1.0000
  C   C19       1.0  0.55893  0.7856499999999998  0.04251  1.0000
  C   C20       1.0  0.62026  0.77447  0.08292  1.0000
  C   C21       1.0  0.62733  0.81663  0.11671  1.0000
  C   C22       1.0  0.57187  0.87058  0.11090999999999997  1.0000
  C   C23       1.0  0.5093  0.88085  0.07022  1.0000
  C   C24       1.0  0.93995  0.08027  0.34817  1.0000
  C   C25       1.0  0.9307799999999999  0.01827  0.33412  1.0000
  C   C26       1.0  0.92467  0.00404  0.28811  1.0000
  C   C27       1.0  0.9164799999999999  0.94565  0.2739  1.0000
  C   C28       1.0  0.9154699999999999  0.90236  0.30741  1.0000
  C   C29       1.0  0.92414  0.91565  0.35384  1.0000
  C   C30       1.0  0.93049  0.97453  0.36676  1.0000
  C   C31       1.0  0.9580599999999999  0.80329  0.14634  1.0000
  C   C32       1.0  0.8411299999999999  0.00796  0.11436  1.0000
  C   C33       1.0  0.9342  0.86316  0.16258  1.0000
  C   C34       1.0  0.90235  0.90586  0.13106  1.0000
  C   C35       1.0  0.8783199999999999  0.9617299999999998  0.14651  1.0000
  C   C36       1.0  0.88469  0.97454  0.19279  1.0000
  C   C37       1.0  0.91339  0.93177  0.22505999999999998  1.0000
  C   C38       1.0  0.93891  0.8757999999999999  0.20888  1.0000
  C   C39       1.0  0.06382  0.85004  0.50708  1.0000
  C   C40       1.0  0.81792  0.71755  0.41134  1.0000
  C   C41       1.0  0.99702  0.8388999999999999  0.46364999999999995  1.0000
  C   C42       1.0  0.94115  0.7856699999999999  0.4575199999999999  1.0000
  C   C43       1.0  0.8798499999999999  0.7744599999999999  0.41711  1.0000
  C   C44       1.0  0.87287  0.81659  0.3833  1.0000
  C   C45       1.0  0.9282499999999998  0.87054  0.38905  1.0000
  C   C46       1.0  0.9907599999999999  0.88089  0.42976  1.0000
  C   C47       1.0  0.05995  0.41969  0.8484999999999999  1.0000
  C   C48       1.0  0.06903999999999999  0.48164  0.83424  1.0000
  C   C49       1.0  0.07523  0.49587  0.78821  1.0000
  C   C50       1.0  0.08359999999999998  0.5543  0.774  1.0000
  C   C51       1.0  0.08458  0.59758  0.8074699999999998  1.0000
  C   C52       1.0  0.07591  0.58428  0.85389  1.0000
  C   C53       1.0  0.06948  0.52542  0.86684  1.0000
  C   C54       1.0  0.03973  0.69657  0.64621  1.0000
  C   C55       1.0  0.15884  0.49205999999999994  0.6145  1.0000
  C   C56       1.0  0.06454  0.63679  0.66261  1.0000
  C   C57       1.0  0.09712999999999998  0.59415  0.63115  1.0000
  C   C58       1.0  0.12181999999999997  0.53835  0.64662  1.0000
  C   C59       1.0  0.11569999999999998  0.52554  0.6929  1.0000
  C   C60       1.0  0.08674  0.56825  0.7251499999999999  1.0000
  C   C61       1.0  0.060509999999999994  0.62418  0.70895  1.0000
  C   C62       1.0  0.93618  0.65007  0.00705  1.0000
  C   C63       1.0  0.18210999999999997  0.78246  0.91135  1.0000
  C   C64       1.0  0.0030799999999999985  0.66112  0.96365  1.0000
  C   C65       1.0  0.058989999999999994  0.71432  0.95751  1.0000
  C   C66       1.0  0.12032999999999999  0.7255199999999999  0.9171199999999998  1.0000
  C   C67       1.0  0.12724  0.68336  0.8833299999999998  1.0000
  C   C68       1.0  0.07187  0.62939  0.88909  1.0000
  C   C69       1.0  0.00936  0.61908  0.9298  1.0000
  C   C70       1.0  0.44001999999999997  0.4197  0.65154  1.0000
  C   C71       1.0  0.43089999999999995  0.48166  0.66579  1.0000
  C   C72       1.0  0.4247  0.49587  0.71181  1.0000
  C   C73       1.0  0.4163699999999999  0.55429  0.72603  1.0000
  C   C74       1.0  0.41531999999999997  0.59757  0.69254  1.0000
  C   C75       1.0  0.42396999999999996  0.58431  0.64611  1.0000
  C   C76       1.0  0.43041  0.52545  0.63318  1.0000
  C   C77       1.0  0.45890999999999993  0.69671  0.85362  1.0000
  C   C78       1.0  0.3413  0.49195  0.88546  1.0000
  C   C79       1.0  0.43445  0.63687  0.83737  1.0000
  C   C80       1.0  0.4026  0.59415  0.86888  1.0000
  C   C81       1.0  0.37858  0.53828  0.85343  1.0000
  C   C82       1.0  0.3845699999999999  0.5255  0.80714  1.0000
  C   C83       1.0  0.41332  0.56823  0.7748699999999998  1.0000
  C   C84       1.0  0.43895999999999996  0.62419  0.79106  1.0000
  C   C85       1.0  0.56372  0.64986  0.49297  1.0000
  C   C86       1.0  0.31764  0.78244  0.58876  1.0000
  C   C87       1.0  0.49692  0.66114  0.53635  1.0000
  C   C88       1.0  0.44095  0.71436  0.54252  1.0000
  C   C89       1.0  0.37956  0.72553  0.58294  1.0000
  C   C90       1.0  0.37253  0.68338  0.61673  1.0000
  C   C91       1.0  0.4280299999999999  0.62945  0.61093  1.0000
  C   C92       1.0  0.49062  0.61916  0.57023  1.0000
  C   C93       1.0  0.44009  0.9196799999999999  0.84854  1.0000
  C   C94       1.0  0.4309899999999999  0.98162  0.83427  1.0000
  C   C95       1.0  0.42484  0.99586  0.78824  1.0000
  C   C96       1.0  0.41657  0.05431  0.77408  1.0000
  C   C97       1.0  0.41544999999999993  0.09755  0.8075599999999997  1.0000
  C   C98       1.0  0.42405  0.08425  0.85397  1.0000
  C   C99       1.0  0.4304699999999999  0.02538  0.86689  1.0000
  C   C100      1.0  0.45911  0.19672999999999996  0.64639  1.0000
  C   C101      1.0  0.34118999999999994  0.9915299999999999  0.61503  1.0000
  C   C102      1.0  0.4344199999999999  0.13693  0.66272  1.0000
  C   C103      1.0  0.40243  0.09417  0.63122  1.0000
  C   C104      1.0  0.3783099999999999  0.03832  0.64673  1.0000
  C   C105      1.0  0.38463  0.025639999999999996  0.69304  1.0000
  C   C106      1.0  0.41349  0.06836  0.72527  1.0000
  C   C107      1.0  0.43908  0.12432999999999998  0.70905  1.0000
  C   C108      1.0  0.5637  0.14999  0.00706  1.0000
  C   C109      1.0  0.31778  0.28244  0.91127  1.0000
  C   C110      1.0  0.49686  0.16112  0.96367  1.0000
  C   C111      1.0  0.44097  0.21434999999999998  0.95748  1.0000
  C   C112      1.0  0.37961  0.22551  0.91707  1.0000
  C   C113      1.0  0.3725899999999999  0.18333  0.8832999999999999  1.0000
  C   C114      1.0  0.42808  0.12939  0.88912  1.0000
  C   C115      1.0  0.49064  0.11913  0.9298099999999998  1.0000
  C   C116      1.0  0.06015  0.91973  0.65192  1.0000
  C   C117      1.0  0.06927  0.98176  0.66591  1.0000
  C   C118      1.0  0.07538  0.9960399999999999  0.71192  1.0000
  C   C119      1.0  0.0837  0.054439999999999995  0.72611  1.0000
  C   C120      1.0  0.08462  0.09768999999999999  0.6926  1.0000
  C   C121      1.0  0.07592  0.08436  0.64618  1.0000
  C   C122      1.0  0.06956999999999999  0.02549  0.63325  1.0000
  C   C123      1.0  0.03921  0.19691  0.85354  1.0000
  C   C124      1.0  0.1588  0.99216  0.88563  1.0000
  C   C125      1.0  0.06451  0.13698  0.83749  1.0000
  C   C126      1.0  0.09705999999999998  0.09432999999999998  0.86897  1.0000
  C   C127      1.0  0.12168999999999998  0.03848  0.85351  1.0000
  C   C128      1.0  0.11563999999999999  0.025639999999999996  0.80723  1.0000
  C   C129      1.0  0.08684  0.06838  0.7749599999999999  1.0000
  C   C130      1.0  0.06064999999999999  0.12428999999999998  0.79115  1.0000
  C   C131      1.0  0.93619  0.15003  0.49294  1.0000
  C   C132      1.0  0.18213999999999994  0.28246  0.58867  1.0000
  C   C133      1.0  0.00306  0.1611  0.53637  1.0000
  C   C134      1.0  0.05891999999999999  0.21433  0.54251  1.0000
  C   C135      1.0  0.12023  0.22555  0.58291  1.0000
  C   C136      1.0  0.12718  0.18341  0.61671  1.0000
  C   C137      1.0  0.07178  0.12945  0.61096  1.0000
  C   C138      1.0  0.00933  0.1191  0.57025  1.0000
  C   C139      1.0  0.94015  0.58027  0.1515  1.0000
  C   C140      1.0  0.9309799999999999  0.51833  0.16574  1.0000
  C   C141      1.0  0.9248  0.50411  0.21178  1.0000
  C   C142      1.0  0.91652  0.44569999999999993  0.22601  1.0000
  C   C143      1.0  0.91551  0.40242  0.19253999999999996  1.0000
  C   C144      1.0  0.92413  0.4157  0.14611  1.0000
  C   C145      1.0  0.9305399999999998  0.47456  0.13314  1.0000
  C   C146      1.0  0.9592699999999998  0.30334  0.35368  1.0000
  C   C147      1.0  0.84101  0.50793  0.38558  1.0000
  C   C148      1.0  0.9344699999999998  0.36314  0.33737  1.0000
  C   C149      1.0  0.90243  0.40585  0.3688599999999999  1.0000
  C   C150      1.0  0.87833  0.46171999999999996  0.35341  1.0000
  C   C151      1.0  0.8847399999999997  0.47456  0.30714  1.0000
  C   C152      1.0  0.91339  0.4318  0.27487  1.0000
  C   C153      1.0  0.9389299999999999  0.37581  0.29106  1.0000
  C   C154      1.0  0.06387  0.34993  0.99297  1.0000
  C   C155      1.0  0.8179299999999998  0.21751  0.08865  1.0000
  C   C156      1.0  0.99697  0.33886  0.03636  1.0000
  C   C157      1.0  0.9410499999999999  0.28565  0.04249  1.0000
  C   C158      1.0  0.8797399999999999  0.27445  0.08288  1.0000
  C   C159      1.0  0.87284  0.3166  0.11669  1.0000
  C   C160      1.0  0.9282  0.37058  0.11092  1.0000
  C   C161      1.0  0.99069  0.38088  0.07020999999999997  1.0000
  C   C162      1.0  0.5598999999999998  0.58029  0.34847  1.0000
  C   C163      1.0  0.5690499999999998  0.51836  0.3342  1.0000
  C   C164      1.0  0.5752099999999999  0.50414  0.28816  1.0000
  C   C165      1.0  0.5835399999999998  0.44570999999999994  0.27398  1.0000
  C   C166      1.0  0.58467  0.40242999999999995  0.30746  1.0000
  C   C167      1.0  0.5760499999999998  0.41571  0.3538899999999999  1.0000
  C   C168      1.0  0.56963  0.47458  0.3668099999999999  1.0000
  C   C169      1.0  0.54181  0.30319  0.14642  1.0000
  C   C170      1.0  0.65873  0.50813  0.11468999999999997  1.0000
  C   C171      1.0  0.56579  0.36307  0.16263  1.0000
  C   C172      1.0  0.59755  0.4058  0.1311  1.0000
  C   C173      1.0  0.62144  0.46164999999999995  0.14658  1.0000
  C   C174      1.0  0.61529  0.47443  0.19287  1.0000
  C   C175      1.0  0.58656  0.43171  0.22514  1.0000
  C   C176      1.0  0.5610499999999999  0.37576  0.20894  1.0000
  C   C177      1.0  0.4363299999999999  0.35013999999999995  0.50708  1.0000
  C   C178      1.0  0.68213  0.21752  0.41126999999999997  1.0000
  C   C179      1.0  0.5031  0.33891  0.46367  1.0000
  C   C180      1.0  0.5589999999999999  0.28567  0.4574899999999999  1.0000
  C   C181      1.0  0.62034  0.27447  0.41707  1.0000
  C   C182      1.0  0.6274  0.31662  0.38328  1.0000
  C   C183      1.0  0.57198  0.37058  0.38908  1.0000
  C   C184      1.0  0.50939  0.38087  0.42976999999999993  1.0000
  O   O1        1.0  0.57112  0.0915  0.10846  1.0000
  O   O2        1.0  0.53987  0.11948  0.17993  1.0000
  O   O3        1.0  0.5324899999999999  0.76253  0.32463  1.0000
  O   O4        1.0  0.53558  0.7937  0.39624  1.0000
  O   O5        1.0  0.65603  0.06026  0.37043  1.0000
  O   O6        1.0  0.69621  0.99595  0.42484  1.0000
  O   O7        1.0  0.4526  0.81454  0.96095  1.0000
  O   O8        1.0  0.36886  0.89439  0.9931999999999997  1.0000
  O   O9        1.0  0.7493099999999998  0.71132  0.1226  1.0000
  O   O10       1.0  0.6601  0.67936  0.05842  1.0000
  O   O11       1.0  0.92894  0.09164  0.3912  1.0000
  O   O12       1.0  0.9596299999999999  0.11921999999999999  0.31951  1.0000
  O   O13       1.0  0.96603  0.76255  0.17541  1.0000
  O   O14       1.0  0.9643399999999999  0.79364  0.10378  1.0000
  O   O15       1.0  0.84422  0.060219999999999996  0.12851  1.0000
  O   O16       1.0  0.8034199999999999  0.9949  0.07488  1.0000
  O   O17       1.0  0.04745  0.81444  0.53901  1.0000
  O   O18       1.0  0.13108  0.89438  0.5069  1.0000
  O   O19       1.0  0.75074  0.7113299999999999  0.37738999999999995  1.0000
  O   O20       1.0  0.83967  0.67948  0.44167999999999996  1.0000
  O   O21       1.0  0.07111999999999999  0.40846999999999994  0.89152  1.0000
  O   O22       1.0  0.04007999999999999  0.38051999999999997  0.82003  1.0000
  O   O23       1.0  0.02877  0.73727  0.67522  1.0000
  O   O24       1.0  0.03578  0.7062099999999999  0.60361  1.0000
  O   O25       1.0  0.15557  0.43985  0.62876  1.0000
  O   O26       1.0  0.19648999999999997  0.50503  0.57497  1.0000
  O   O27       1.0  0.9523999999999999  0.68569  0.03899  1.0000
  O   O28       1.0  0.86891  0.60573  0.00683  1.0000
  O   O29       1.0  0.24931999999999999  0.78868  0.87739  1.0000
  O   O30       1.0  0.1603  0.82054  0.94167  1.0000
  O   O31       1.0  0.42884999999999995  0.4084999999999999  0.60851  1.0000
  O   O32       1.0  0.4599699999999999  0.38051999999999997  0.67999  1.0000
  O   O33       1.0  0.46906  0.73739  0.82458  1.0000
  O   O34       1.0  0.4643  0.70637  0.8962  1.0000
  O   O35       1.0  0.34429  0.43979  0.8710699999999998  1.0000
  O   O36       1.0  0.30367  0.50484  0.9250099999999998  1.0000
  O   O37       1.0  0.54722  0.6853  0.46092  1.0000
  O   O38       1.0  0.63134  0.60563  0.49328  1.0000
  O   O39       1.0  0.2503  0.7886299999999999  0.62266  1.0000
  O   O40       1.0  0.3398  0.8206799999999999  0.55858  1.0000
  O   O41       1.0  0.4288399999999999  0.90849  0.8915599999999998  1.0000
  O   O42       1.0  0.46006  0.8804699999999999  0.8201  1.0000
  O   O43       1.0  0.4696199999999999  0.23744  0.6753999999999998  1.0000
  O   O44       1.0  0.46427  0.20633999999999997  0.60381  1.0000
  O   O45       1.0  0.34394  0.9396299999999999  0.62978  1.0000
  O   O46       1.0  0.3038699999999999  0.00345  0.57519  1.0000
  O   O47       1.0  0.54747  0.18553  0.03902  1.0000
  O   O48       1.0  0.63106  0.10563  0.006799999999999998  1.0000
  O   O49       1.0  0.25041  0.28866  0.8773699999999998  1.0000
  O   O50       1.0  0.33989  0.3206  0.9415  1.0000
  O   O51       1.0  0.07111  0.90831  0.60888  1.0000
  O   O52       1.0  0.040519999999999994  0.8808199999999999  0.68062  1.0000
  O   O53       1.0  0.027029999999999995  0.23720999999999998  0.82433  1.0000
  O   O54       1.0  0.03609  0.20724999999999996  0.89609  1.0000
  O   O55       1.0  0.15554  0.9399  0.87145  1.0000
  O   O56       1.0  0.19652  0.00512  0.9251299999999999  1.0000
  O   O57       1.0  0.9525  0.18563  0.461  1.0000
  O   O58       1.0  0.86891  0.10568  0.49315  1.0000
  O   O59       1.0  0.24934999999999996  0.28868  0.62261  1.0000
  O   O60       1.0  0.16032999999999997  0.32052  0.55833  1.0000
  O   O61       1.0  0.92879  0.59153  0.10848999999999998  1.0000
  O   O62       1.0  0.96028  0.61941  0.17997  1.0000
  O   O63       1.0  0.9701499999999998  0.26267  0.32464  1.0000
  O   O64       1.0  0.9640299999999999  0.29367  0.39625  1.0000
  O   O65       1.0  0.8438599999999999  0.56017  0.37138  1.0000
  O   O66       1.0  0.8035  0.49487  0.4251  1.0000
  O   O67       1.0  0.04773  0.31433  0.96102  1.0000
  O   O68       1.0  0.13108  0.39431  0.9931999999999997  1.0000
  O   O69       1.0  0.7507899999999998  0.21127  0.12262  1.0000
  O   O70       1.0  0.83961  0.17948  0.05826999999999999  1.0000
  O   O71       1.0  0.5710399999999999  0.59147  0.3915  1.0000
  O   O72       1.0  0.5399399999999999  0.61951  0.32003999999999994  1.0000
  O   O73       1.0  0.53349  0.2625  0.17553  1.0000
  O   O74       1.0  0.53551  0.29344  0.10387999999999999  1.0000
  O   O75       1.0  0.6558699999999998  0.56018  0.12928  1.0000
  O   O76       1.0  0.69628  0.49548999999999993  0.07505999999999999  1.0000
  O   O77       1.0  0.45299  0.31468  0.53911  1.0000
  O   O78       1.0  0.3685999999999999  0.39431  0.50679  1.0000
  O   O79       1.0  0.7494199999999999  0.21131  0.37735  1.0000
  O   O80       1.0  0.66017  0.17935999999999996  0.44152999999999987  1.0000
