data_image0
_chemical_formula_structural       Ag24H144C72N48
_chemical_formula_sum              "Ag24 H144 C72 N48"
_cell_length_a       10.24159
_cell_length_b       20.47302
_cell_length_c       23.54564
_cell_angle_alpha    89.99984
_cell_angle_beta     89.99414000000002
_cell_angle_gamma    88.42112

_symmetry_space_group_name_H-M    'P 1'
_symmetry_Int_Tables_number       1

loop_
  _symmetry_equiv_pos_as_xyz
  'x,y,z'

loop_
  _atom_site_type_symbol
  _atom_site_label
  _atom_site_symmetry_multiplicity
  _atom_site_fract_x
  _atom_site_fract_y
  _atom_site_fract_z
  _atom_site_occupancy
  Ag  Ag1       1.0  0.61598  0.30875  0.6616800000000002  1.0000
  Ag  Ag2       1.0  0.13747  0.90333  0.7570700000000001  1.0000
  Ag  Ag3       1.0  0.016889999999999992  0.9116400000000001  0.43631  1.0000
  Ag  Ag4       1.0  0.0009599999999999996  0.40255  0.17691  1.0000
  Ag  Ag5       1.0  0.39298999999999995  0.19701  0.44516  1.0000
  Ag  Ag6       1.0  0.06478  0.30087  0.4694400000000001  1.0000
  Ag  Ag7       1.0  0.50798  0.94434  0.6798  1.0000
  Ag  Ag8       1.0  0.64075  0.8839600000000001  0.36112000000000005  1.0000
  Ag  Ag9       1.0  0.86817  0.61163  0.35327  1.0000
  Ag  Ag10      1.0  0.48899  0.5735  0.42864  1.0000
  Ag  Ag11      1.0  0.64837  0.38674  0.24158  1.0000
  Ag  Ag12      1.0  0.9500799999999999  0.20596999999999996  0.62995  1.0000
  Ag  Ag13      1.0  0.3834999999999999  0.69063  0.16199  1.0000
  Ag  Ag14      1.0  0.86341  0.09626  0.25658  1.0000
  Ag  Ag15      1.0  0.9834499999999999  0.0886  0.93723  1.0000
  Ag  Ag16      1.0  0.9986099999999999  0.5975  0.6769800000000001  1.0000
  Ag  Ag17      1.0  0.6088  0.8028600000000001  0.9457900000000002  1.0000
  Ag  Ag18      1.0  0.93536  0.69819  0.9681600000000002  1.0000
  Ag  Ag19      1.0  0.49158  0.05670000000000001  0.17891000000000004  1.0000
  Ag  Ag20      1.0  0.35991  0.11594  0.86152  1.0000
  Ag  Ag21      1.0  0.1317  0.38828  0.8535500000000001  1.0000
  Ag  Ag22      1.0  0.51002  0.4262599999999999  0.92858  1.0000
  Ag  Ag23      1.0  0.35145  0.61355  0.74174  1.0000
  Ag  Ag24      1.0  0.0508  0.79427  0.12964  1.0000
  H   H1        1.0  0.49604  0.06333  0.54669  1.0000
  H   H2        1.0  0.6468  0.04733  0.51071  1.0000
  H   H3        1.0  0.63195  0.02437  0.40209  1.0000
  H   H4        1.0  0.46829000000000004  0.02252  0.37382  1.0000
  H   H5        1.0  0.28842  0.04303  0.42223  1.0000
  H   H6        1.0  0.29051  0.06292  0.49747  1.0000
  H   H7        1.0  0.38204000000000005  0.89831  0.54253  1.0000
  H   H8        1.0  0.34691000000000005  0.98137  0.56511  1.0000
  H   H9        1.0  0.32348  0.93677  0.39189000000000007  1.0000
  H   H10       1.0  0.37  0.87284  0.4414900000000001  1.0000
  H   H11       1.0  0.56136  0.87339  0.49070000000000014  1.0000
  H   H12       1.0  0.69311  0.92838  0.47857  1.0000
  H   H13       1.0  0.9419399999999999  0.63262  0.48057  1.0000
  H   H14       1.0  0.81268  0.57424  0.4718200000000001  1.0000
  H   H15       1.0  0.15516  0.52245  0.56068  1.0000
  H   H16       1.0  0.13283  0.60547  0.53548  1.0000
  H   H17       1.0  0.19070999999999996  0.43783  0.50345  1.0000
  H   H18       1.0  0.2066  0.44575  0.4266100000000001  1.0000
  H   H19       1.0  0.84495  0.46512999999999993  0.51281  1.0000
  H   H20       1.0  0.9983000000000001  0.446  0.54836  1.0000
  H   H21       1.0  0.17964  0.55326  0.38582  1.0000
  H   H22       1.0  0.14315  0.62239  0.43163000000000007  1.0000
  H   H23       1.0  0.8570400000000001  0.47926  0.40526  1.0000
  H   H24       1.0  0.016930000000000004  0.4709  0.3726400000000001  1.0000
  H   H25       1.0  0.9478299999999998  0.69113  0.22510000000000002  1.0000
  H   H26       1.0  0.97565  0.75276  0.2787700000000001  1.0000
  H   H27       1.0  0.68085  0.72477  0.36017000000000005  1.0000
  H   H28       1.0  0.83239  0.76791  0.35599  1.0000
  H   H29       1.0  0.8547799999999999  0.85411  0.27605  1.0000
  H   H30       1.0  0.71909  0.86304  0.22815  1.0000
  H   H31       1.0  0.74802  0.62751  0.23051  1.0000
  H   H32       1.0  0.6310499999999999  0.64235  0.28669000000000006  1.0000
  H   H33       1.0  0.67781  0.78101  0.15801000000000004  1.0000
  H   H34       1.0  0.7764400000000001  0.70763  0.15742  1.0000
  H   H35       1.0  0.53265  0.8031400000000001  0.23431000000000002  1.0000
  H   H36       1.0  0.51023  0.74287  0.28919  1.0000
  H   H37       1.0  0.43027  0.62756  0.61607  1.0000
  H   H38       1.0  0.31905  0.56251  0.62867  1.0000
  H   H39       1.0  0.37749000000000005  0.45494000000000007  0.595  1.0000
  H   H40       1.0  0.52719  0.44143  0.5568600000000001  1.0000
  H   H41       1.0  0.68437  0.57319  0.71517  1.0000
  H   H42       1.0  0.62882  0.63362  0.6648600000000001  1.0000
  H   H43       1.0  0.6257  0.60988  0.56489  1.0000
  H   H44       1.0  0.67117  0.52972  0.5413300000000001  1.0000
  H   H45       1.0  0.38334999999999997  0.47522000000000003  0.6959300000000003  1.0000
  H   H46       1.0  0.53727  0.47739999999999994  0.7321300000000001  1.0000
  H   H47       1.0  0.73195  0.4474600000000001  0.60663  1.0000
  H   H48       1.0  0.73528  0.46336  0.6816100000000003  1.0000
  H   H49       1.0  0.6305  0.14837  0.32195  1.0000
  H   H50       1.0  0.75344  0.135  0.3761100000000001  1.0000
  H   H51       1.0  0.53742  0.31058  0.3731700000000001  1.0000
  H   H52       1.0  0.51365  0.25005  0.31801000000000007  1.0000
  H   H53       1.0  0.67479  0.23146  0.24687000000000003  1.0000
  H   H54       1.0  0.82672  0.27372  0.24784  1.0000
  H   H55       1.0  0.8656799999999999  0.35384  0.32292  1.0000
  H   H56       1.0  0.73773  0.37148  0.37462  1.0000
  H   H57       1.0  0.7872399999999999  0.21544999999999997  0.4484100000000001  1.0000
  H   H58       1.0  0.68908  0.29007  0.44720000000000004  1.0000
  H   H59       1.0  0.9426  0.19297  0.38056  1.0000
  H   H60       1.0  0.98373  0.25226  0.32661000000000007  1.0000
  H   H61       1.0  0.14332  0.03561  0.59818  1.0000
  H   H62       1.0  0.0019900000000000004  0.06529  0.55529  1.0000
  H   H63       1.0  0.8288  0.9433200000000002  0.7228800000000002  1.0000
  H   H64       1.0  0.86491  0.8963499999999999  0.6521200000000001  1.0000
  H   H65       1.0  0.8102099999999999  0.97627  0.55653  1.0000
  H   H66       1.0  0.8587999999999999  0.90288  0.59119  1.0000
  H   H67       1.0  0.79607  0.06709  0.60127  1.0000
  H   H68       1.0  0.78643  0.07143  0.67858  1.0000
  H   H69       1.0  0.0007699999999999999  0.04909  0.7301  1.0000
  H   H70       1.0  0.14267  0.04116  0.6832000000000001  1.0000
  H   H71       1.0  0.04002000000000001  0.88017  0.61852  1.0000
  H   H72       1.0  0.17944999999999997  0.9211400000000001  0.64162  1.0000
  H   H73       1.0  0.50426  0.9370100000000001  0.04716  1.0000
  H   H74       1.0  0.35284  0.9531000000000001  0.01037  1.0000
  H   H75       1.0  0.36739999999999995  0.9761700000000001  0.90235  1.0000
  H   H76       1.0  0.53277  0.9770200000000001  0.8737800000000001  1.0000
  H   H77       1.0  0.71045  0.9570700000000001  0.92197  1.0000
  H   H78       1.0  0.70978  0.9370100000000001  0.99739  1.0000
  H   H79       1.0  0.61671  0.10146000000000001  0.04234  1.0000
  H   H80       1.0  0.65222  0.01866  0.06494  1.0000
  H   H81       1.0  0.67661  0.06286  0.89179  1.0000
  H   H82       1.0  0.62953  0.12722  0.94158  1.0000
  H   H83       1.0  0.43945  0.12658  0.9909500000000002  1.0000
  H   H84       1.0  0.30737  0.07118  0.97791  1.0000
  H   H85       1.0  0.0582  0.3675  0.98059  1.0000
  H   H86       1.0  0.1872  0.42612999999999995  0.9718700000000002  1.0000
  H   H87       1.0  0.84543  0.47778000000000004  0.06056  1.0000
  H   H88       1.0  0.8673100000000001  0.39461999999999997  0.035530000000000006  1.0000
  H   H89       1.0  0.8095399999999999  0.56206  0.003670000000000001  1.0000
  H   H90       1.0  0.79327  0.55394  0.92653  1.0000
  H   H91       1.0  0.15507  0.53473  0.01263  1.0000
  H   H92       1.0  0.0014399999999999953  0.55383  0.04839  1.0000
  H   H93       1.0  0.82057  0.44711000000000006  0.88595  1.0000
  H   H94       1.0  0.8570800000000001  0.37763  0.93153  1.0000
  H   H95       1.0  0.14316  0.52088  0.9053800000000002  1.0000
  H   H96       1.0  0.98269  0.52906  0.8726100000000002  1.0000
  H   H97       1.0  0.05225  0.30914  0.7251400000000001  1.0000
  H   H98       1.0  0.024169999999999994  0.24736  0.7788400000000002  1.0000
  H   H99       1.0  0.31912  0.27506  0.8601200000000001  1.0000
  H   H100      1.0  0.16797  0.23178  0.8557000000000002  1.0000
  H   H101      1.0  0.1458  0.14587  0.77624  1.0000
  H   H102      1.0  0.28099  0.13697  0.7279400000000001  1.0000
  H   H103      1.0  0.25129  0.37249  0.73058  1.0000
  H   H104      1.0  0.36866  0.35776  0.78657  1.0000
  H   H105      1.0  0.32197  0.21885000000000002  0.65787  1.0000
  H   H106      1.0  0.22335  0.29237  0.6570900000000001  1.0000
  H   H107      1.0  0.46732999999999997  0.19699  0.73405  1.0000
  H   H108      1.0  0.48988  0.2571  0.7889700000000002  1.0000
  H   H109      1.0  0.56977  0.37253  0.11604000000000002  1.0000
  H   H110      1.0  0.68065  0.43785  0.12856  1.0000
  H   H111      1.0  0.62269  0.54478  0.09514  1.0000
  H   H112      1.0  0.47283  0.55847  0.05683  1.0000
  H   H113      1.0  0.31595  0.42701000000000006  0.21512  1.0000
  H   H114      1.0  0.3709999999999999  0.36645  0.16476  1.0000
  H   H115      1.0  0.3746099999999999  0.39029  0.06494  1.0000
  H   H116      1.0  0.32959  0.47047000000000005  0.04141  1.0000
  H   H117      1.0  0.61674  0.52472  0.19582  1.0000
  H   H118      1.0  0.46243000000000006  0.5224  0.23213  1.0000
  H   H119      1.0  0.26818  0.5525  0.1065  1.0000
  H   H120      1.0  0.265  0.53651  0.18170000000000006  1.0000
  H   H121      1.0  0.36992  0.8515600000000001  0.8220700000000001  1.0000
  H   H122      1.0  0.24698  0.86506  0.8760400000000002  1.0000
  H   H123      1.0  0.46289  0.68958  0.87314  1.0000
  H   H124      1.0  0.48598  0.74999  0.81799  1.0000
  H   H125      1.0  0.32527  0.76834  0.7466900000000001  1.0000
  H   H126      1.0  0.17304  0.72638  0.7478  1.0000
  H   H127      1.0  0.134  0.64629  0.8228500000000001  1.0000
  H   H128      1.0  0.26142  0.62847  0.8747200000000002  1.0000
  H   H129      1.0  0.2127  0.78439  0.9483100000000001  1.0000
  H   H130      1.0  0.31031  0.70995  0.94712  1.0000
  H   H131      1.0  0.057059999999999986  0.80701  0.8804  1.0000
  H   H132      1.0  0.01643  0.74783  0.82637  1.0000
  H   H133      1.0  0.8556199999999998  0.96468  0.09828  1.0000
  H   H134      1.0  0.99756  0.93495  0.05408000000000001  1.0000
  H   H135      1.0  0.17086  0.056949999999999994  0.22323  1.0000
  H   H136      1.0  0.13624  0.10383  0.15243  1.0000
  H   H137      1.0  0.18817  0.02388  0.056420000000000005  1.0000
  H   H138      1.0  0.13914  0.097  0.09105000000000002  1.0000
  H   H139      1.0  0.20533  0.93283  0.10172000000000003  1.0000
  H   H140      1.0  0.21176  0.92823  0.17906000000000002  1.0000
  H   H141      1.0  0.00014999999999999543  0.95068  0.23045  1.0000
  H   H142      1.0  0.85663  0.9604200000000002  0.183  1.0000
  H   H143      1.0  0.96116  0.11989  0.11855000000000002  1.0000
  H   H144      1.0  0.8209499999999998  0.07732  0.1417  1.0000
  C   C1        1.0  0.54293  0.034  0.51282  1.0000
  C   C2        1.0  0.52956  0.01215  0.41178  1.0000
  C   C3        1.0  0.33531  0.03304  0.46364  1.0000
  C   C4        1.0  0.39055000000000006  0.95026  0.5315000000000001  1.0000
  C   C5        1.0  0.37779  0.92506  0.43144  1.0000
  C   C6        1.0  0.58557  0.9245200000000001  0.48154  1.0000
  C   C7        1.0  0.91957  0.58066  0.47512000000000004  1.0000
  C   C8        1.0  0.11511  0.55375  0.52634  1.0000
  C   C9        1.0  0.1565  0.46391  0.46512  1.0000
  C   C10       1.0  0.9511699999999998  0.47408  0.51354  1.0000
  C   C11       1.0  0.12853  0.56998  0.42481  1.0000
  C   C12       1.0  0.96288  0.48711999999999994  0.41114000000000006  1.0000
  C   C13       1.0  0.90213  0.7277  0.25326000000000004  1.0000
  C   C14       1.0  0.75224  0.74668  0.33097  1.0000
  C   C15       1.0  0.7769700000000002  0.8277199999999999  0.25397  1.0000
  C   C16       1.0  0.70218  0.66519  0.25804  1.0000
  C   C17       1.0  0.73061  0.74513  0.18493  1.0000
  C   C18       1.0  0.58088  0.76606  0.26123  1.0000
  C   C19       1.0  0.42284  0.57499  0.62437  1.0000
  C   C20       1.0  0.48029  0.46935  0.59149  1.0000
  C   C21       1.0  0.62919  0.58134  0.67533  1.0000
  C   C22       1.0  0.62304  0.5578  0.57553  1.0000
  C   C23       1.0  0.48621999999999993  0.48918999999999996  0.6919100000000001  1.0000
  C   C24       1.0  0.68562  0.47495  0.64139  1.0000
  C   C25       1.0  0.70471  0.17174  0.34852000000000005  1.0000
  C   C26       1.0  0.58471  0.2734  0.34597000000000006  1.0000
  C   C27       1.0  0.75052  0.25187  0.2746700000000001  1.0000
  C   C28       1.0  0.7871300000000001  0.333  0.34901  1.0000
  C   C29       1.0  0.73958  0.2527  0.42083  1.0000
  C   C30       1.0  0.90464  0.23055000000000003  0.35111000000000003  1.0000
  C   C31       1.0  0.03697  0.0358  0.59154  1.0000
  C   C32       1.0  0.87082  0.93994  0.68035  1.0000
  C   C33       1.0  0.87628  0.95535  0.58751  1.0000
  C   C34       1.0  0.8346199999999999  0.049690000000000005  0.6417500000000002  1.0000
  C   C35       1.0  0.03717  0.02813  0.68976  1.0000
  C   C36       1.0  0.07257999999999999  0.9277500000000001  0.6330600000000001  1.0000
  C   C37       1.0  0.45699  0.96588  0.012950000000000003  1.0000
  C   C38       1.0  0.4706  0.98767  0.9115900000000001  1.0000
  C   C39       1.0  0.6646  0.96691  0.9636300000000001  1.0000
  C   C40       1.0  0.60884  0.049600000000000005  0.03126  1.0000
  C   C41       1.0  0.6226  0.07497  0.93135  1.0000
  C   C42       1.0  0.41474  0.07554  0.9813600000000001  1.0000
  C   C43       1.0  0.08040000000000001  0.41946  0.9750900000000002  1.0000
  C   C44       1.0  0.8850300000000001  0.44628000000000007  0.0263  1.0000
  C   C45       1.0  0.8433  0.53606  0.96519  1.0000
  C   C46       1.0  0.04877000000000001  0.5259  0.013520000000000003  1.0000
  C   C47       1.0  0.87149  0.43009  0.92488  1.0000
  C   C48       1.0  0.037160000000000006  0.51299  0.9111  1.0000
  C   C49       1.0  0.09771  0.27242  0.75329  1.0000
  C   C50       1.0  0.24802  0.25319  0.8308  1.0000
  C   C51       1.0  0.22324  0.17225  0.7539000000000001  1.0000
  C   C52       1.0  0.29759  0.33482  0.75798  1.0000
  C   C53       1.0  0.26916  0.2549  0.6847100000000002  1.0000
  C   C54       1.0  0.41912999999999995  0.23398  0.76103  1.0000
  C   C55       1.0  0.57706  0.42508  0.12436  1.0000
  C   C56       1.0  0.51977  0.53062  0.09151  1.0000
  C   C57       1.0  0.37078999999999995  0.41871  0.17522  1.0000
  C   C58       1.0  0.37722999999999995  0.4423  0.0756  1.0000
  C   C59       1.0  0.51373  0.51084  0.1919  1.0000
  C   C60       1.0  0.31432  0.52504  0.14136000000000004  1.0000
  C   C61       1.0  0.29554  0.82822  0.84853  1.0000
  C   C62       1.0  0.41512000000000004  0.72665  0.846  1.0000
  C   C63       1.0  0.24946  0.74814  0.7745900000000002  1.0000
  C   C64       1.0  0.21256  0.66702  0.84898  1.0000
  C   C65       1.0  0.26024  0.74729  0.92065  1.0000
  C   C66       1.0  0.09534999999999999  0.76954  0.85094  1.0000
  C   C67       1.0  0.9622199999999999  0.96377  0.09113  1.0000
  C   C68       1.0  0.13006  0.0602  0.18035000000000004  1.0000
  C   C69       1.0  0.12292  0.04457  0.08758  1.0000
  C   C70       1.0  0.16563  0.9505400000000002  0.14185  1.0000
  C   C71       1.0  0.96347  0.9718800000000001  0.18994  1.0000
  C   C72       1.0  0.9280299999999999  0.07257  0.13301000000000002  1.0000
  N   N1        1.0  0.47537  0.0514  0.45858000000000004  1.0000
  N   N2        1.0  0.32160000000000005  0.9638699999999999  0.47744000000000003  1.0000
  N   N3        1.0  0.53179  0.96464  0.5272500000000001  1.0000
  N   N4        1.0  0.52233  0.9399699999999999  0.42425  1.0000
  N   N5        1.0  0.97198  0.54391  0.52317  1.0000
  N   N6        1.0  0.18073  0.53352  0.47301000000000004  1.0000
  N   N7        1.0  0.014080000000000002  0.45036  0.45998  1.0000
  N   N8        1.0  0.9817099999999999  0.55956  0.4185900000000001  1.0000
  N   N9        1.0  0.68442  0.79888  0.29654  1.0000
  N   N10       1.0  0.63592  0.71526  0.22355000000000005  1.0000
  N   N11       1.0  0.80926  0.69413  0.29349  1.0000
  N   N12       1.0  0.8346699999999999  0.77675  0.21752  1.0000
  N   N13       1.0  0.48801  0.56153  0.68135  1.0000
  N   N14       1.0  0.54871  0.45252000000000003  0.6456  1.0000
  N   N15       1.0  0.48478999999999994  0.53897  0.57836  1.0000
  N   N16       1.0  0.69263  0.54488  0.62958  1.0000
  N   N17       1.0  0.64121  0.22267  0.38364  1.0000
  N   N18       1.0  0.8432800000000001  0.28227  0.38639000000000007  1.0000
  N   N19       1.0  0.80919  0.19910000000000003  0.31120000000000003  1.0000
  N   N20       1.0  0.6871  0.30503  0.3095  1.0000
  N   N21       1.0  0.97459  0.06251  0.6430000000000001  1.0000
  N   N22       1.0  0.015199999999999993  0.95376  0.68687  1.0000
  N   N23       1.0  0.81076  0.9814  0.63882  1.0000
  N   N24       1.0  0.016279999999999996  0.9659900000000001  0.58483  1.0000
  N   N25       1.0  0.52458  0.94849  0.9586600000000002  1.0000
  N   N26       1.0  0.67859  0.0361  0.9774100000000001  1.0000
  N   N27       1.0  0.46797  0.03527  0.027020000000000002  1.0000
  N   N28       1.0  0.4782699999999999  0.060020000000000004  0.9240400000000001  1.0000
  N   N29       1.0  0.02798000000000001  0.45612  0.0231  1.0000
  N   N30       1.0  0.81919  0.46644  0.97308  1.0000
  N   N31       1.0  0.98574  0.54966  0.9599800000000002  1.0000
  N   N32       1.0  0.018270000000000005  0.44057  0.91861  1.0000
  N   N33       1.0  0.31597  0.20103999999999997  0.7963800000000001  1.0000
  N   N34       1.0  0.36387  0.2848  0.72337  1.0000
  N   N35       1.0  0.19076  0.30583  0.7935200000000001  1.0000
  N   N36       1.0  0.16518999999999998  0.22331000000000004  0.7175100000000001  1.0000
  N   N37       1.0  0.51185  0.43854999999999994  0.18124000000000004  1.0000
  N   N38       1.0  0.45123  0.54748  0.14557  1.0000
  N   N39       1.0  0.51526  0.46105  0.0784  1.0000
  N   N40       1.0  0.30735  0.45516  0.12953  1.0000
  N   N41       1.0  0.35871  0.77731  0.88366  1.0000
  N   N42       1.0  0.15654000000000004  0.71783  0.8862300000000001  1.0000
  N   N43       1.0  0.19103  0.8009900000000001  0.81114  1.0000
  N   N44       1.0  0.31271000000000004  0.69499  0.8095600000000002  1.0000
  N   N45       1.0  0.02540999999999999  0.93739  0.14281  1.0000
  N   N46       1.0  0.98603  0.04617000000000001  0.18688  1.0000
  N   N47       1.0  0.19006  0.01876  0.13881000000000002  1.0000
  N   N48       1.0  0.98338  0.03372  0.08477  1.0000
