data_image0
_chemical_formula_structural       Co8H72C96N16O36
_chemical_formula_sum              "Co8 H72 C96 N16 O36"
_cell_length_a       11.50574
_cell_length_b       13.695209999999998
_cell_length_c       26.631190000000004
_cell_angle_alpha    89.99008
_cell_angle_beta     89.99279
_cell_angle_gamma    89.96327

_symmetry_space_group_name_H-M    'P 1'
_symmetry_Int_Tables_number       1

loop_
  _symmetry_equiv_pos_as_xyz
  'x,y,z'

loop_
  _atom_site_type_symbol
  _atom_site_label
  _atom_site_symmetry_multiplicity
  _atom_site_fract_x
  _atom_site_fract_y
  _atom_site_fract_z
  _atom_site_occupancy
  Co  Co1       1.0  0.57419  0.44335  0.13662  1.0000
  Co  Co2       1.0  0.31636  0.56024  0.07977  1.0000
  Co  Co3       1.0  0.92528  0.55755  0.6373399999999998  1.0000
  Co  Co4       1.0  0.1827  0.43937  0.57911  1.0000
  Co  Co5       1.0  0.42776999999999993  0.9426199999999998  0.36319  1.0000
  Co  Co6       1.0  0.68152  0.06105  0.42021  1.0000
  Co  Co7       1.0  0.0734  0.058179999999999996  0.8633  1.0000
  Co  Co8       1.0  0.82025  0.9389399999999998  0.92037  1.0000
  H   H1        1.0  0.32252  0.40999999999999986  0.13845999999999997  1.0000
  H   H2        1.0  0.40142000000000005  0.3635499999999999  0.09204  1.0000
  H   H3        1.0  0.75478  0.61126  0.14802  1.0000
  H   H4        1.0  0.97221  0.6269699999999998  0.14531999999999998  1.0000
  H   H5        1.0  0.99883  0.31659999999999994  0.16743999999999998  1.0000
  H   H6        1.0  0.78024  0.3068999999999999  0.1651  1.0000
  H   H7        1.0  0.8805900000000001  0.08416999999999997  0.01058  1.0000
  H   H8        1.0  0.7875  0.21661999999999998  0.06289999999999998  1.0000
  H   H9        1.0  0.45842  0.13479  0.99995  1.0000
  H   H10       1.0  0.562  0.004189999999999999  0.9504799999999998  1.0000
  H   H11       1.0  0.36287  0.8157099999999999  0.17594999999999997  1.0000
  H   H12       1.0  0.36159  0.93453  0.24920999999999993  1.0000
  H   H13       1.0  0.53563  0.7338399999999998  0.3400799999999999  1.0000
  H   H14       1.0  0.54804  0.6114599999999999  0.2690999999999999  1.0000
  H   H15       1.0  0.7569  0.6788799999999998  0.0663  1.0000
  H   H16       1.0  0.8519500000000001  0.81588  0.017649999999999996  1.0000
  H   H17       1.0  0.62252  0.7812099999999997  0.89935  1.0000
  H   H18       1.0  0.51465  0.6478099999999998  0.94517  1.0000
  H   H19       1.0  0.17939  0.5890699999999999  0.63854  1.0000
  H   H20       1.0  0.09928  0.6371199999999998  0.5929799999999998  1.0000
  H   H21       1.0  0.7446900000000001  0.38849999999999996  0.6481499999999998  1.0000
  H   H22       1.0  0.52699  0.37316  0.64537  1.0000
  H   H23       1.0  0.50079  0.6832899999999998  0.6673999999999999  1.0000
  H   H24       1.0  0.71939  0.69286  0.66519  1.0000
  H   H25       1.0  0.61912  0.9168899999999999  0.51026  1.0000
  H   H26       1.0  0.71274  0.7841  0.5624999999999999  1.0000
  H   H27       1.0  0.04144  0.8662399999999998  0.4995899999999999  1.0000
  H   H28       1.0  0.93787  0.99682  0.4502  1.0000
  H   H29       1.0  0.13759  0.18343  0.6764699999999998  1.0000
  H   H30       1.0  0.13847  0.06396  0.7494399999999999  1.0000
  H   H31       1.0  0.96418  0.26475999999999994  0.8405399999999998  1.0000
  H   H32       1.0  0.9529699999999999  0.38693999999999995  0.7694999999999997  1.0000
  H   H33       1.0  0.74176  0.32025999999999993  0.566  1.0000
  H   H34       1.0  0.64711  0.18212  0.5173999999999999  1.0000
  H   H35       1.0  0.87663  0.21741999999999995  0.39917999999999987  1.0000
  H   H36       1.0  0.9840099999999999  0.3514799999999999  0.44514  1.0000
  H   H37       1.0  0.68183  0.9080299999999999  0.36213999999999996  1.0000
  H   H38       1.0  0.60192  0.8612499999999997  0.40816  1.0000
  H   H39       1.0  0.24389  0.11117  0.35153  1.0000
  H   H40       1.0  0.025510000000000005  0.12748  0.35448999999999997  1.0000
  H   H41       1.0  0.99983  0.8166499999999998  0.33232999999999996  1.0000
  H   H42       1.0  0.21876000000000004  0.8074999999999999  0.33443999999999996  1.0000
  H   H43       1.0  0.11835  0.5832  0.49034  1.0000
  H   H44       1.0  0.21301  0.7143699999999997  0.4379599999999999  1.0000
  H   H45       1.0  0.54032  0.63251  0.50084  1.0000
  H   H46       1.0  0.43790000000000007  0.50233  0.55067  1.0000
  H   H47       1.0  0.63663  0.31837  0.32230999999999993  1.0000
  H   H48       1.0  0.63958  0.4373399999999999  0.24913999999999994  1.0000
  H   H49       1.0  0.46479  0.23683999999999994  0.15805999999999995  1.0000
  H   H50       1.0  0.45252  0.11513999999999999  0.22921  1.0000
  H   H51       1.0  0.24318999999999996  0.18091  0.43507999999999997  1.0000
  H   H52       1.0  0.14576000000000006  0.3181  0.4829699999999999  1.0000
  H   H53       1.0  0.37533  0.2844599999999999  0.6019099999999997  1.0000
  H   H54       1.0  0.48312  0.15068  0.55611  1.0000
  H   H55       1.0  0.81678  0.09139999999999997  0.8612299999999998  1.0000
  H   H56       1.0  0.89697  0.13933  0.90701  1.0000
  H   H57       1.0  0.25624  0.8887699999999997  0.85142  1.0000
  H   H58       1.0  0.47457999999999995  0.8727999999999998  0.85457  1.0000
  H   H59       1.0  0.5003  0.18327999999999997  0.8325  1.0000
  H   H60       1.0  0.28134  0.19264  0.83426  1.0000
  H   H61       1.0  0.38183  0.41729  0.9902299999999998  1.0000
  H   H62       1.0  0.28752  0.28554999999999997  0.9379799999999998  1.0000
  H   H63       1.0  0.95979  0.36824  0.0012299999999999998  1.0000
  H   H64       1.0  0.0634  0.49841999999999986  0.050609999999999995  1.0000
  H   H65       1.0  0.8636799999999999  0.6830099999999998  0.8226199999999998  1.0000
  H   H66       1.0  0.8612599999999999  0.5636999999999998  0.7497199999999998  1.0000
  H   H67       1.0  0.03529  0.7640199999999998  0.6583599999999997  1.0000
  H   H68       1.0  0.047689999999999996  0.8857999999999998  0.72955  1.0000
  H   H69       1.0  0.2585  0.81803  0.93496  1.0000
  H   H70       1.0  0.35396  0.6804599999999997  0.98323  1.0000
  H   H71       1.0  0.12468  0.7150799999999998  0.10167  1.0000
  H   H72       1.0  0.01704  0.8489799999999997  0.05589  1.0000
  C   C1        1.0  0.8116599999999999  0.54759  0.15150999999999995  1.0000
  C   C2        1.0  0.9324199999999999  0.5558199999999999  0.15106  1.0000
  C   C3        1.0  0.00209  0.4727999999999999  0.15550999999999995  1.0000
  C   C4        1.0  0.9473900000000001  0.3828699999999999  0.16291999999999995  1.0000
  C   C5        1.0  0.8263  0.37649999999999995  0.16190999999999994  1.0000
  C   C6        1.0  0.13382  0.4770699999999999  0.14869  1.0000
  C   C7        1.0  0.7861000000000001  0.09642  0.009259999999999996  1.0000
  C   C8        1.0  0.7358699999999999  0.16972999999999994  0.03834999999999999  1.0000
  C   C9        1.0  0.61569  0.18595  0.03532  1.0000
  C   C10       1.0  0.55295  0.12467  0.00349  1.0000
  C   C11       1.0  0.60973  0.052679999999999984  0.97586  1.0000
  C   C12       1.0  0.55744  0.26758  0.06508  1.0000
  C   C13       1.0  0.46070999999999995  0.63146  0.17425  1.0000
  C   C14       1.0  0.457  0.7050699999999998  0.21675999999999995  1.0000
  C   C15       1.0  0.40371999999999997  0.7968  0.21184999999999996  1.0000
  C   C16       1.0  0.40174  0.8618199999999998  0.25231  1.0000
  C   C17       1.0  0.49902  0.75102  0.30278999999999995  1.0000
  C   C18       1.0  0.5062  0.68288  0.26366  1.0000
  C   C19       1.0  0.55984  0.5828199999999999  0.04253  1.0000
  C   C20       1.0  0.62707  0.6531499999999999  0.00983  1.0000
  C   C21       1.0  0.7244899999999999  0.7006299999999998  0.02947  1.0000
  C   C22       1.0  0.77664  0.7760399999999997  0.0026399999999999996  1.0000
  C   C23       1.0  0.6492  0.75762  0.93705  1.0000
  C   C24       1.0  0.59035  0.68298  0.9621699999999997  1.0000
  C   C25       1.0  0.68799  0.4522  0.65181  1.0000
  C   C26       1.0  0.56735  0.444  0.65121  1.0000
  C   C27       1.0  0.49752  0.52672  0.65629  1.0000
  C   C28       1.0  0.55189  0.61697  0.66299  1.0000
  C   C29       1.0  0.67293  0.6233699999999999  0.6621999999999999  1.0000
  C   C30       1.0  0.36609  0.52305  0.6478999999999998  1.0000
  C   C31       1.0  0.71351  0.90422  0.5085699999999999  1.0000
  C   C32       1.0  0.7641799999999999  0.83156  0.53813  1.0000
  C   C33       1.0  0.88427  0.81477  0.53495  1.0000
  C   C34       1.0  0.94708  0.87648  0.50339  1.0000
  C   C35       1.0  0.89048  0.9476599999999997  0.4752499999999999  1.0000
  C   C36       1.0  0.9417100000000002  0.7325899999999997  0.56517  1.0000
  C   C37       1.0  0.03714  0.36822  0.67361  1.0000
  C   C38       1.0  0.045079999999999995  0.2946299999999999  0.7171899999999998  1.0000
  C   C39       1.0  0.09684000000000001  0.20249  0.7123  1.0000
  C   C40       1.0  0.09859  0.13677  0.7525299999999998  1.0000
  C   C41       1.0  0.00091  0.24787999999999996  0.80323  1.0000
  C   C42       1.0  0.99466  0.31602  0.76402  1.0000
  C   C43       1.0  0.9375599999999998  0.41871999999999987  0.5419399999999999  1.0000
  C   C44       1.0  0.87173  0.3454699999999999  0.50968  1.0000
  C   C45       1.0  0.7738699999999998  0.29806999999999995  0.5291799999999999  1.0000
  C   C46       1.0  0.72206  0.22243  0.50219  1.0000
  C   C47       1.0  0.84984  0.24157  0.4367799999999999  1.0000
  C   C48       1.0  0.90834  0.3161199999999999  0.46203  1.0000
  C   C49       1.0  0.18745  0.0471  0.3480399999999999  1.0000
  C   C50       1.0  0.06589  0.05630999999999999  0.34837999999999997  1.0000
  C   C51       1.0  0.99652  0.97296  0.3439899999999999  1.0000
  C   C52       1.0  0.05149  0.8830899999999999  0.33646  1.0000
  C   C53       1.0  0.17305  0.87741  0.3377099999999999  1.0000
  C   C54       1.0  0.86528  0.97716  0.3515499999999999  1.0000
  C   C55       1.0  0.21266000000000002  0.5957  0.49127999999999994  1.0000
  C   C56       1.0  0.26454  0.6682  0.46251999999999993  1.0000
  C   C57       1.0  0.38417  0.6839299999999999  0.4652099999999999  1.0000
  C   C58       1.0  0.44631000000000004  0.62317  0.4972799999999999  1.0000
  C   C59       1.0  0.39105000000000006  0.55109  0.5251699999999999  1.0000
  C   C60       1.0  0.44158  0.7660199999999999  0.43529999999999996  1.0000
  C   C61       1.0  0.53851  0.13303999999999996  0.32554  1.0000
  C   C62       1.0  0.54237  0.20747999999999997  0.28203  1.0000
  C   C63       1.0  0.59656  0.29871  0.28643  1.0000
  C   C64       1.0  0.59884  0.36485  0.24642999999999995  1.0000
  C   C65       1.0  0.5006  0.25323  0.19544  1.0000
  C   C66       1.0  0.4949  0.18569  0.23484999999999995  1.0000
  C   C67       1.0  0.43781  0.08135  0.4588099999999999  1.0000
  C   C68       1.0  0.37243999999999994  0.15532  0.49122999999999994  1.0000
  C   C69       1.0  0.27452  0.20208999999999996  0.47192  1.0000
  C   C70       1.0  0.22188  0.27874  0.49751999999999996  1.0000
  C   C71       1.0  0.35037  0.26048999999999994  0.56405  1.0000
  C   C72       1.0  0.40737000000000007  0.18485  0.53896  1.0000
  C   C73       1.0  0.31292  0.9526799999999997  0.8480399999999998  1.0000
  C   C74       1.0  0.43422  0.94383  0.8480999999999999  1.0000
  C   C75       1.0  0.5037  0.026829999999999993  0.8437399999999998  1.0000
  C   C76       1.0  0.44882  0.11688  0.8362699999999997  1.0000
  C   C77       1.0  0.3275  0.12303999999999997  0.83769  1.0000
  C   C78       1.0  0.63566  0.02158  0.8512899999999998  1.0000
  C   C79       1.0  0.28742  0.40476999999999996  0.9915599999999998  1.0000
  C   C80       1.0  0.23593000000000003  0.3327299999999999  0.9622899999999998  1.0000
  C   C81       1.0  0.11595000000000001  0.3165  0.9655699999999999  1.0000
  C   C82       1.0  0.05389000000000001  0.37836  0.99732  1.0000
  C   C83       1.0  0.11011  0.44933  0.025319999999999992  1.0000
  C   C84       1.0  0.05835  0.23471999999999998  0.9355499999999998  1.0000
  C   C85       1.0  0.96202  0.8679499999999999  0.8254499999999998  1.0000
  C   C86       1.0  0.95728  0.7937999999999997  0.7820099999999998  1.0000
  C   C87       1.0  0.9042699999999999  0.7023399999999999  0.7868999999999998  1.0000
  C   C88       1.0  0.90145  0.6363999999999997  0.7468799999999999  1.0000
  C   C89       1.0  0.9992500000000001  0.7476  0.69576  1.0000
  C   C90       1.0  0.00599  0.8151199999999997  0.73508  1.0000
  C   C91       1.0  0.06403  0.91792  0.9588199999999998  1.0000
  C   C92       1.0  0.12862  0.84405  0.9910199999999998  1.0000
  C   C93       1.0  0.22593  0.7961399999999997  0.9716099999999998  1.0000
  C   C94       1.0  0.27973  0.7214399999999997  0.9980699999999998  1.0000
  C   C95       1.0  0.15097  0.7403299999999999  0.06427  1.0000
  C   C96       1.0  0.09232  0.8139899999999999  0.03855  1.0000
  N   N1        1.0  0.7617  0.4584499999999999  0.15574999999999994  1.0000
  N   N2        1.0  0.72617  0.037919999999999995  0.9778199999999998  1.0000
  N   N3        1.0  0.7414300000000001  0.8058  0.9567299999999997  1.0000
  N   N4        1.0  0.4486899999999999  0.84013  0.29775  1.0000
  N   N5        1.0  0.73723  0.54146  0.6557999999999998  1.0000
  N   N6        1.0  0.77424  0.96266  0.47737999999999997  1.0000
  N   N7        1.0  0.75729  0.19363999999999998  0.4560799999999999  1.0000
  N   N8        1.0  0.05203  0.15936999999999996  0.7979099999999998  1.0000
  N   N9        1.0  0.2385  0.9585599999999997  0.34355999999999987  1.0000
  N   N10       1.0  0.27427  0.53837  0.52261  1.0000
  N   N11       1.0  0.25756  0.30694999999999995  0.5436399999999999  1.0000
  N   N12       1.0  0.55306  0.3414699999999999  0.20089999999999997  1.0000
  N   N13       1.0  0.26231  0.04146999999999999  0.84342  1.0000
  N   N14       1.0  0.22644  0.46328  0.022659999999999993  1.0000
  N   N15       1.0  0.24186  0.69145  0.0436  1.0000
  N   N16       1.0  0.94836  0.6592  0.7016099999999998  1.0000
  O   O1        1.0  0.38939000000000007  0.4236299999999999  0.11409  1.0000
  O   O2        1.0  0.52761  0.55806  0.18135999999999997  1.0000
  O   O3        1.0  0.39918  0.6503  0.13562  1.0000
  O   O4        1.0  0.61557  0.54006  0.07658999999999998  1.0000
  O   O5        1.0  0.45365  0.56919  0.029929999999999995  1.0000
  O   O6        1.0  0.17089  0.55299  0.12432999999999997  1.0000
  O   O7        1.0  0.19400000000000003  0.4053499999999999  0.16374999999999995  1.0000
  O   O8        1.0  0.44715  0.27371  0.06115  1.0000
  O   O9        1.0  0.62182  0.32101  0.09195  1.0000
  O   O10       1.0  0.11057999999999998  0.57671  0.6148099999999999  1.0000
  O   O11       1.0  0.97076  0.4399699999999999  0.68115  1.0000
  O   O12       1.0  0.10221  0.35046999999999995  0.6362899999999998  1.0000
  O   O13       1.0  0.88178  0.4601899999999999  0.57585  1.0000
  O   O14       1.0  0.0444  0.4304099999999999  0.53002  1.0000
  O   O15       1.0  0.33082  0.4464  0.62419  1.0000
  O   O16       1.0  0.30525  0.59322  0.6640799999999998  1.0000
  O   O17       1.0  0.05185000000000001  0.7268799999999999  0.5614599999999998  1.0000
  O   O18       1.0  0.87731  0.67969  0.5917099999999998  1.0000
  O   O19       1.0  0.61368  0.9206999999999997  0.38587  1.0000
  O   O20       1.0  0.47208999999999995  0.06009  0.31824  1.0000
  O   O21       1.0  0.59934  0.15439999999999995  0.3635  1.0000
  O   O22       1.0  0.38303000000000004  0.04296  0.4238399999999999  1.0000
  O   O23       1.0  0.54367  0.067  0.47139  1.0000
  O   O24       1.0  0.8283  0.05439  0.37492  1.0000
  O   O25       1.0  0.8055400000000001  0.9063099999999998  0.33578  1.0000
  O   O26       1.0  0.55162  0.7721699999999998  0.4393299999999999  1.0000
  O   O27       1.0  0.37751  0.81972  0.4080199999999999  1.0000
  O   O28       1.0  0.88657  0.07993  0.88482  1.0000
  O   O29       1.0  0.02762  0.94056  0.8187699999999998  1.0000
  O   O30       1.0  0.89906  0.8482999999999998  0.8632499999999997  1.0000
  O   O31       1.0  0.11753  0.95645  0.9234799999999997  1.0000
  O   O32       1.0  0.95694  0.9322  0.9702699999999997  1.0000
  O   O33       1.0  0.67198  0.9452399999999997  0.87447  1.0000
  O   O34       1.0  0.69408  0.09388  0.83586  1.0000
  O   O35       1.0  0.9485899999999999  0.22759  0.9401799999999998  1.0000
  O   O36       1.0  0.12244  0.18104999999999993  0.90832  1.0000
