data_image0
_chemical_formula_structural       Zn12H76C108N16O36
_chemical_formula_sum              "Zn12 H76 C108 N16 O36"
_cell_length_a       11.57955
_cell_length_b       15.836220000000003
_cell_length_c       18.45492
_cell_angle_alpha    101.41612
_cell_angle_beta     89.88208
_cell_angle_gamma    90.07765

_symmetry_space_group_name_H-M    'P 1'
_symmetry_Int_Tables_number       1

loop_
  _symmetry_equiv_pos_as_xyz
  'x,y,z'

loop_
  _atom_site_type_symbol
  _atom_site_label
  _atom_site_symmetry_multiplicity
  _atom_site_fract_x
  _atom_site_fract_y
  _atom_site_fract_z
  _atom_site_occupancy
  Zn  Zn1       1.0  0.31136  0.41206000000000004  0.8056800000000001  1.0000
  Zn  Zn2       1.0  0.18633  0.22463999999999995  0.81674  1.0000
  Zn  Zn3       1.0  0.9113  0.41901  0.999  1.0000
  Zn  Zn4       1.0  0.31205999999999995  0.08859  0.69289  1.0000
  Zn  Zn5       1.0  0.18606  0.27516  0.68483  1.0000
  Zn  Zn6       1.0  0.91152  0.08118  0.50001  1.0000
  Zn  Zn7       1.0  0.68865  0.58793  0.19432  1.0000
  Zn  Zn8       1.0  0.81368  0.77536  0.18327  1.0000
  Zn  Zn9       1.0  0.0887  0.58099  0.001  1.0000
  Zn  Zn10      1.0  0.6879399999999999  0.9114099999999998  0.30712  1.0000
  Zn  Zn11      1.0  0.81394  0.72484  0.31518  1.0000
  Zn  Zn12      1.0  0.08848  0.91882  0.5  1.0000
  H   H1        1.0  0.8553999999999998  0.1438699999999999  0.80245  1.0000
  H   H2        1.0  0.6504499999999999  0.09657999999999997  0.7779  1.0000
  H   H3        1.0  0.53614  0.3452899999999999  0.8872699999999999  1.0000
  H   H4        1.0  0.72265  0.50086  0.84327  1.0000
  H   H5        1.0  0.8318199999999999  0.42256  0.81897  1.0000
  H   H6        1.0  0.29164  0.69459  0.96094  1.0000
  H   H7        1.0  0.32128999999999996  0.8411  0.9340400000000001  1.0000
  H   H8        1.0  0.9505399999999998  0.8730199999999999  0.94402  1.0000
  H   H9        1.0  0.9370399999999998  0.72392  0.96964  1.0000
  H   H10       1.0  0.3116999999999999  0.99069  0.9739500000000001  1.0000
  H   H11       1.0  0.3272999999999999  0.1309  0.93034  1.0000
  H   H12       1.0  0.024129999999999995  0.086  0.81274  1.0000
  H   H13       1.0  0.99446  0.94425  0.8490200000000001  1.0000
  H   H14       1.0  0.12181  0.5508399999999998  0.80975  1.0000
  H   H15       1.0  0.10790999999999999  0.7007000000000001  0.79101  1.0000
  H   H16       1.0  0.46497  0.6812  0.71938  1.0000
  H   H17       1.0  0.46184  0.52876  0.73851  1.0000
  H   H18       1.0  0.62216  0.51728  0.9463  1.0000
  H   H19       1.0  0.58456  0.42111000000000004  0.9721400000000001  1.0000
  H   H20       1.0  0.85555  0.3566899999999999  0.6975600000000001  1.0000
  H   H21       1.0  0.65106  0.40441  0.72222  1.0000
  H   H22       1.0  0.5353499999999999  0.15604  0.61269  1.0000
  H   H23       1.0  0.7213199999999999  5.999999999999746e-05  0.65638  1.0000
  H   H24       1.0  0.8286899999999998  0.07937  0.68154  1.0000
  H   H25       1.0  0.2921  0.80512  0.54035  1.0000
  H   H26       1.0  0.3214  0.6581199999999999  0.56604  1.0000
  H   H27       1.0  0.9506499999999998  0.62591  0.55612  1.0000
  H   H28       1.0  0.9375399999999999  0.77541  0.53156  1.0000
  H   H29       1.0  0.31183999999999995  0.50835  0.5266100000000001  1.0000
  H   H30       1.0  0.32711  0.36864  0.57097  1.0000
  H   H31       1.0  0.022719999999999994  0.41337999999999997  0.68792  1.0000
  H   H32       1.0  0.9936199999999997  0.55483  0.65106  1.0000
  H   H33       1.0  0.12153999999999998  0.9498599999999996  0.691  1.0000
  H   H34       1.0  0.10799  0.7998900000000001  0.70961  1.0000
  H   H35       1.0  0.465  0.8201799999999999  0.78041  1.0000
  H   H36       1.0  0.46188999999999997  0.9724400000000001  0.7610400000000003  1.0000
  H   H37       1.0  0.6210799999999999  0.98348  0.55462  1.0000
  H   H38       1.0  0.58362  0.07917999999999996  0.52796  1.0000
  H   H39       1.0  0.1446  0.85613  0.19756000000000004  1.0000
  H   H40       1.0  0.34955  0.9034199999999998  0.2221  1.0000
  H   H41       1.0  0.46387  0.65471  0.11274  1.0000
  H   H42       1.0  0.27735  0.49914000000000003  0.15674000000000002  1.0000
  H   H43       1.0  0.16817999999999997  0.57743  0.18103  1.0000
  H   H44       1.0  0.7083599999999999  0.30540000000000006  0.03906  1.0000
  H   H45       1.0  0.67871  0.15889  0.06596  1.0000
  H   H46       1.0  0.04946  0.12698  0.05598000000000001  1.0000
  H   H47       1.0  0.06297  0.27608  0.03036  1.0000
  H   H48       1.0  0.6883099999999999  0.00931  0.026050000000000004  1.0000
  H   H49       1.0  0.6726999999999999  0.8690999999999998  0.06967  1.0000
  H   H50       1.0  0.97587  0.91399  0.18726  1.0000
  H   H51       1.0  0.005539999999999999  0.05575  0.15098  1.0000
  H   H52       1.0  0.87819  0.44916  0.19026000000000007  1.0000
  H   H53       1.0  0.8921  0.2993  0.20899000000000004  1.0000
  H   H54       1.0  0.53503  0.3188  0.28063  1.0000
  H   H55       1.0  0.5381699999999999  0.47123999999999994  0.26150000000000007  1.0000
  H   H56       1.0  0.37784  0.48272  0.05371  1.0000
  H   H57       1.0  0.41544  0.57888  0.02786  1.0000
  H   H58       1.0  0.14446  0.64331  0.30244  1.0000
  H   H59       1.0  0.3489399999999999  0.59559  0.27778  1.0000
  H   H60       1.0  0.46465999999999996  0.84396  0.38731  1.0000
  H   H61       1.0  0.27868999999999994  0.9999299999999999  0.34363000000000005  1.0000
  H   H62       1.0  0.17132  0.9206199999999999  0.31846  1.0000
  H   H63       1.0  0.7079  0.19487  0.45965000000000006  1.0000
  H   H64       1.0  0.6786099999999999  0.3418799999999999  0.43397  1.0000
  H   H65       1.0  0.049359999999999994  0.37409000000000003  0.44388000000000005  1.0000
  H   H66       1.0  0.06247  0.22458999999999998  0.46843999999999997  1.0000
  H   H67       1.0  0.68817  0.49164999999999986  0.4734  1.0000
  H   H68       1.0  0.67289  0.63136  0.4290300000000001  1.0000
  H   H69       1.0  0.9772799999999998  0.58662  0.31209000000000003  1.0000
  H   H70       1.0  0.006390000000000001  0.44517  0.34895  1.0000
  H   H71       1.0  0.87846  0.05013  0.30901  1.0000
  H   H72       1.0  0.89201  0.2001  0.2904  1.0000
  H   H73       1.0  0.535  0.17982  0.2196  1.0000
  H   H74       1.0  0.53811  0.027560000000000008  0.23897000000000002  1.0000
  H   H75       1.0  0.37891999999999987  0.016519999999999993  0.44538  1.0000
  H   H76       1.0  0.4163799999999999  0.92082  0.47204000000000007  1.0000
  C   C1        1.0  0.9427799999999997  0.28608  0.86634  1.0000
  C   C2        1.0  0.81386  0.2706099999999999  0.85814  1.0000
  C   C3        1.0  0.78411  0.18699  0.82158  1.0000
  C   C4        1.0  0.6711  0.16056  0.80864  1.0000
  C   C5        1.0  0.58139  0.21805  0.83339  1.0000
  C   C6        1.0  0.60806  0.30141  0.87134  1.0000
  C   C7        1.0  0.7230499999999997  0.3293  0.88411  1.0000
  C   C8        1.0  0.45896  0.18966000000000002  0.8140100000000001  1.0000
  C   C9        1.0  0.7941299999999998  0.46802  0.86548  1.0000
  C   C10       1.0  0.88964  0.5346399999999998  0.8906600000000001  1.0000
  C   C11       1.0  0.6582  0.46372  0.96873  1.0000
  C   C12       1.0  0.69445  0.49771  0.04914  1.0000
  C   C13       1.0  0.2184  0.7364  0.95704  1.0000
  C   C14       1.0  0.23453  0.81858  0.94263  1.0000
  C   C15       1.0  0.13784  0.86986  0.936  1.0000
  C   C16       1.0  0.02853  0.8354  0.94641  1.0000
  C   C17       1.0  0.020049999999999995  0.7527499999999998  0.96113  1.0000
  C   C18       1.0  0.15021999999999996  0.9552499999999998  0.91602  1.0000
  C   C19       1.0  0.24547999999999998  0.009199999999999993  0.93832  1.0000
  C   C20       1.0  0.25433999999999996  0.08765  0.9152500000000001  1.0000
  C   C21       1.0  0.08391  0.06280999999999999  0.84961  1.0000
  C   C22       1.0  0.06805  0.98409  0.8707000000000001  1.0000
  C   C23       1.0  0.19545999999999997  0.58125  0.78846  1.0000
  C   C24       1.0  0.18855999999999998  0.6657799999999998  0.77788  1.0000
  C   C25       1.0  0.28641  0.70504  0.75414  1.0000
  C   C26       1.0  0.3870299999999999  0.6548899999999998  0.73939  1.0000
  C   C27       1.0  0.38645999999999997  0.57041  0.74987  1.0000
  C   C28       1.0  0.9424099999999999  0.21395999999999996  0.6334800000000002  1.0000
  C   C29       1.0  0.8134899999999998  0.23021  0.64121  1.0000
  C   C30       1.0  0.7842099999999999  0.31381  0.67804  1.0000
  C   C31       1.0  0.67133  0.3405299999999999  0.69112  1.0000
  C   C32       1.0  0.58131  0.28332  0.66634  1.0000
  C   C33       1.0  0.60746  0.19988  0.62832  1.0000
  C   C34       1.0  0.7223099999999998  0.17183  0.61536  1.0000
  C   C35       1.0  0.45903999999999995  0.31191  0.68579  1.0000
  C   C36       1.0  0.79288  0.03356000000000003  0.63466  1.0000
  C   C37       1.0  0.8892299999999999  0.9674899999999997  0.61015  1.0000
  C   C38       1.0  0.6572199999999999  0.03687000000000001  0.53186  1.0000
  C   C39       1.0  0.6939199999999999  0.0021300000000000078  0.45187000000000005  1.0000
  C   C40       1.0  0.21876  0.76312  0.54391  1.0000
  C   C41       1.0  0.23469  0.6806399999999999  0.55768  1.0000
  C   C42       1.0  0.13789999999999997  0.62914  0.56415  1.0000
  C   C43       1.0  0.028739999999999998  0.66363  0.55391  1.0000
  C   C44       1.0  0.02048  0.7465599999999998  0.53981  1.0000
  C   C45       1.0  0.14992  0.54378  0.58423  1.0000
  C   C46       1.0  0.24531999999999995  0.48993  0.56227  1.0000
  C   C47       1.0  0.25401  0.4117599999999999  0.58578  1.0000
  C   C48       1.0  0.08295  0.43650999999999984  0.65108  1.0000
  C   C49       1.0  0.06731999999999999  0.51501  0.6296  1.0000
  C   C50       1.0  0.19543999999999997  0.9195599999999998  0.71184  1.0000
  C   C51       1.0  0.18858999999999998  0.83503  0.72251  1.0000
  C   C52       1.0  0.28645  0.7959199999999997  0.74596  1.0000
  C   C53       1.0  0.38704  0.84627  0.7605000000000001  1.0000
  C   C54       1.0  0.38647999999999993  0.9306899999999999  0.74987  1.0000
  C   C55       1.0  0.05722  0.71391  0.13367  1.0000
  C   C56       1.0  0.18614999999999998  0.7293799999999998  0.14186  1.0000
  C   C57       1.0  0.21588999999999994  0.8129999999999997  0.17842000000000002  1.0000
  C   C58       1.0  0.3289  0.8394400000000001  0.19136  1.0000
  C   C59       1.0  0.41862  0.78195  0.16661  1.0000
  C   C60       1.0  0.39195  0.6985899999999998  0.12867  1.0000
  C   C61       1.0  0.27695  0.67069  0.1159  1.0000
  C   C62       1.0  0.5410399999999999  0.8103399999999997  0.18599  1.0000
  C   C63       1.0  0.20587  0.53198  0.13453  1.0000
  C   C64       1.0  0.11036999999999998  0.46536  0.10935  1.0000
  C   C65       1.0  0.34179999999999994  0.53627  0.03128  1.0000
  C   C66       1.0  0.30556  0.50229  0.95086  1.0000
  C   C67       1.0  0.7816  0.26359  0.04296  1.0000
  C   C68       1.0  0.76547  0.18140999999999996  0.05737  1.0000
  C   C69       1.0  0.86217  0.13014  0.06401  1.0000
  C   C70       1.0  0.9714799999999999  0.1646  0.05359  1.0000
  C   C71       1.0  0.97995  0.24724999999999994  0.03887  1.0000
  C   C72       1.0  0.8497799999999998  0.044750000000000005  0.08398000000000001  1.0000
  C   C73       1.0  0.7545199999999999  0.99079  0.061680000000000006  1.0000
  C   C74       1.0  0.7456599999999998  0.9123499999999998  0.08475  1.0000
  C   C75       1.0  0.9161  0.9371899999999997  0.1504  1.0000
  C   C76       1.0  0.9319599999999999  0.0159  0.1293  1.0000
  C   C77       1.0  0.8045399999999998  0.41875  0.21154  1.0000
  C   C78       1.0  0.81144  0.33421  0.22213  1.0000
  C   C79       1.0  0.71359  0.29496  0.24586  1.0000
  C   C80       1.0  0.61297  0.34511  0.26061  1.0000
  C   C81       1.0  0.61354  0.42959  0.25014  1.0000
  C   C82       1.0  0.057589999999999995  0.78604  0.36652  1.0000
  C   C83       1.0  0.18651  0.7697899999999998  0.35879  1.0000
  C   C84       1.0  0.2158  0.6861899999999997  0.32197  1.0000
  C   C85       1.0  0.32867  0.65947  0.30888  1.0000
  C   C86       1.0  0.41868999999999995  0.71668  0.33366  1.0000
  C   C87       1.0  0.39253999999999994  0.8001099999999999  0.37168  1.0000
  C   C88       1.0  0.27769  0.82817  0.38464  1.0000
  C   C89       1.0  0.54096  0.6880899999999998  0.31422  1.0000
  C   C90       1.0  0.20712  0.96644  0.36535  1.0000
  C   C91       1.0  0.11076999999999997  0.03250999999999998  0.38986  1.0000
  C   C92       1.0  0.34278999999999993  0.96312  0.46814000000000006  1.0000
  C   C93       1.0  0.30608  0.9978699999999998  0.54814  1.0000
  C   C94       1.0  0.7812499999999998  0.23687  0.45609  1.0000
  C   C95       1.0  0.76531  0.31936  0.44233  1.0000
  C   C96       1.0  0.8621  0.37086  0.43586  1.0000
  C   C97       1.0  0.97127  0.33637  0.44609  1.0000
  C   C98       1.0  0.97952  0.25344  0.46019000000000004  1.0000
  C   C99       1.0  0.85008  0.45622  0.41577  1.0000
  C   C100      1.0  0.7546899999999997  0.51007  0.43773  1.0000
  C   C101      1.0  0.74599  0.58824  0.41422  1.0000
  C   C102      1.0  0.91706  0.56348  0.34893  1.0000
  C   C103      1.0  0.93268  0.48498999999999987  0.3704  1.0000
  C   C104      1.0  0.8045599999999998  0.08043  0.28816  1.0000
  C   C105      1.0  0.81141  0.16497  0.2775  1.0000
  C   C106      1.0  0.71355  0.20408  0.25404  1.0000
  C   C107      1.0  0.6129599999999998  0.15373  0.2395  1.0000
  C   C108      1.0  0.61352  0.06931  0.25013  1.0000
  N   N1        1.0  0.74897  0.41778  0.91982  1.0000
  N   N2        1.0  0.11337999999999998  0.7033299999999998  0.9656  1.0000
  N   N3        1.0  0.17484  0.11477  0.87182  1.0000
  N   N4        1.0  0.293  0.53433  0.77511  1.0000
  N   N5        1.0  0.7479599999999998  0.08329000000000002  0.5801200000000001  1.0000
  N   N6        1.0  0.11383  0.79629  0.53569  1.0000
  N   N7        1.0  0.17413999999999993  0.3847099999999999  0.62927  1.0000
  N   N8        1.0  0.2931  0.9665699999999998  0.72469  1.0000
  N   N9        1.0  0.2510299999999999  0.5822199999999998  0.08018  1.0000
  N   N10       1.0  0.88662  0.29667  0.0344  1.0000
  N   N11       1.0  0.82516  0.88523  0.12818  1.0000
  N   N12       1.0  0.7069999999999997  0.46567  0.22489  1.0000
  N   N13       1.0  0.25204  0.91671  0.41989  1.0000
  N   N14       1.0  0.8861699999999998  0.20371  0.46431  1.0000
  N   N15       1.0  0.82586  0.61528  0.37073000000000006  1.0000
  N   N16       1.0  0.7068999999999998  0.03343  0.27532  1.0000
  O   O1        1.0  0.92031  0.5798299999999997  0.8462300000000003  1.0000
  O   O2        1.0  0.79201  0.4788399999999999  0.07249  1.0000
  O   O3        1.0  0.61841  0.54161  0.09072000000000001  1.0000
  O   O4        1.0  0.98339  0.35476999999999986  0.90572  1.0000
  O   O5        1.0  0.005610000000000002  0.22515999999999994  0.833  1.0000
  O   O6        1.0  0.4511699999999999  0.12420999999999996  0.7601  1.0000
  O   O7        1.0  0.377  0.22955000000000003  0.85113  1.0000
  O   O8        1.0  0.18788  0.33771  0.78897  1.0000
  O   O9        1.0  0.9313499999999998  0.53737  0.9564300000000001  1.0000
  O   O10       1.0  0.9200999999999998  0.92348  0.65538  1.0000
  O   O11       1.0  0.79123  0.021200000000000004  0.42825  1.0000
  O   O12       1.0  0.6181299999999998  0.9574100000000001  0.41075000000000006  1.0000
  O   O13       1.0  0.9830499999999998  0.14593  0.59285  1.0000
  O   O14       1.0  0.00532  0.27359000000000006  0.6686500000000001  1.0000
  O   O15       1.0  0.45095999999999997  0.3790199999999999  0.73821  1.0000
  O   O16       1.0  0.37697  0.27058  0.65015  1.0000
  O   O17       1.0  0.18857  0.16240999999999994  0.71249  1.0000
  O   O18       1.0  0.93094  0.96329  0.54408  1.0000
  O   O19       1.0  0.07969999999999998  0.42017  0.15377  1.0000
  O   O20       1.0  0.20799999999999996  0.52116  0.9275200000000001  1.0000
  O   O21       1.0  0.38159999999999994  0.4583799999999999  0.90929  1.0000
  O   O22       1.0  0.01661  0.64523  0.09428000000000002  1.0000
  O   O23       1.0  0.9943899999999998  0.7748300000000001  0.167  1.0000
  O   O24       1.0  0.54883  0.87579  0.23990000000000003  1.0000
  O   O25       1.0  0.6230099999999998  0.77045  0.14888  1.0000
  O   O26       1.0  0.81212  0.66229  0.21103  1.0000
  O   O27       1.0  0.06866  0.4626299999999999  0.04357  1.0000
  O   O28       1.0  0.07989999999999998  0.07651  0.34463  1.0000
  O   O29       1.0  0.20877999999999997  0.9788  0.57176  1.0000
  O   O30       1.0  0.38187  0.042590000000000024  0.58925  1.0000
  O   O31       1.0  0.01695  0.85407  0.40715  1.0000
  O   O32       1.0  0.99469  0.72641  0.33135  1.0000
  O   O33       1.0  0.54904  0.62098  0.2618  1.0000
  O   O34       1.0  0.62304  0.7294199999999997  0.34985  1.0000
  O   O35       1.0  0.81144  0.83758  0.28752  1.0000
  O   O36       1.0  0.06906  0.03671000000000002  0.45592000000000005  1.0000
