data_image0
_chemical_formula_structural       K4Bi4H128C216O32
_chemical_formula_sum              "K4 Bi4 H128 C216 O32"
_cell_length_a       11.89793
_cell_length_b       16.48667
_cell_length_c       39.04743
_cell_angle_alpha    98.64643
_cell_angle_beta     90.01655
_cell_angle_gamma    111.06912

_space_group_name_H-M_alt    "P 1"
_space_group_IT_number       1

loop_
  _space_group_symop_operation_xyz
  'x, y, z'

loop_
  _atom_site_type_symbol
  _atom_site_label
  _atom_site_symmetry_multiplicity
  _atom_site_fract_x
  _atom_site_fract_y
  _atom_site_fract_z
  _atom_site_occupancy
  K   K1        1.0  0.2399800000000001  0.5896600000000002  0.7646  1.0000
  K   K2        1.0  0.65057  0.41163  0.73559  1.0000
  K   K3        1.0  0.7600099999999999  0.4103400000000001  0.23539999999999997  1.0000
  K   K4        1.0  0.34943000000000013  0.5883700000000001  0.26441  1.0000
  Bi  Bi1       1.0  0.43461  0.5029  0.6946299999999999  1.0000
  Bi  Bi2       1.0  0.9328399999999999  0.4976499999999999  0.8055499999999999  1.0000
  Bi  Bi3       1.0  0.56539  0.4971000000000001  0.30537  1.0000
  Bi  Bi4       1.0  0.06715999999999997  0.50235  0.19446  1.0000
  H   H1        1.0  0.93966  0.7279699999999999  0.8806599999999999  1.0000
  H   H2        1.0  0.08535999999999992  0.81368  0.9292399999999998  1.0000
  H   H3        1.0  0.97639  0.03452999999999995  0.92682  1.0000
  H   H4        1.0  0.83044  0.9501899999999999  0.8779099999999999  1.0000
  H   H5        1.0  0.6550700000000002  0.8395000000000002  0.85607  1.0000
  H   H6        1.0  0.52183  0.75564  0.80403  1.0000
  H   H7        1.0  0.7706600000000002  0.6272400000000002  0.7736  1.0000
  H   H8        1.0  0.9085  0.71402  0.82444  1.0000
  H   H9        1.0  0.3548299999999999  0.88641  0.03419  1.0000
  H   H10       1.0  0.34381  0.96663  0.98672  1.0000
  H   H11       1.0  0.9585199999999998  0.8823199999999999  0.9926899999999999  1.0000
  H   H12       1.0  0.96898  0.80094  0.0397  1.0000
  H   H13       1.0  0.30839  0.7464  0.05063999999999999  1.0000
  H   H14       1.0  0.30015999999999987  0.6571999999999999  0.09746999999999999  1.0000
  H   H15       1.0  0.01278000000000012  0.7296200000000003  0.14161  1.0000
  H   H16       1.0  0.021919999999999943  0.82076  0.09588  1.0000
  H   H17       1.0  0.6049  0.24650000000000005  0.00074  1.0000
  H   H18       1.0  0.44999  0.16486  0.95343  1.0000
  H   H19       1.0  0.18476999999999996  0.0872  0.029060000000000002  1.0000
  H   H20       1.0  0.3376799999999999  0.16962  0.07587  1.0000
  H   H21       1.0  0.71633  0.22472000000000006  0.03972  1.0000
  H   H22       1.0  0.88422  0.3081200000000001  0.08396  1.0000
  H   H23       1.0  0.6390500000000001  0.3839200000000001  0.15024  1.0000
  H   H24       1.0  0.47112000000000004  0.3039700000000001  0.10596  1.0000
  H   H25       1.0  0.24208  0.07815000000000001  0.83936  1.0000
  H   H26       1.0  0.21476000000000003  0.99904  0.8892200000000001  1.0000
  H   H27       1.0  0.24708  0.23703999999999997  0.9579699999999999  1.0000
  H   H28       1.0  0.27335999999999994  0.31640999999999997  0.9080599999999999  1.0000
  H   H29       1.0  0.18716000000000002  0.3380800000000001  0.85965  1.0000
  H   H30       1.0  0.22593000000000002  0.41964000000000007  0.8102299999999999  1.0000
  H   H31       1.0  0.41777999999999993  0.2591  0.76278  1.0000
  H   H32       1.0  0.38077999999999995  0.17782999999999993  0.81266  1.0000
  H   H33       1.0  0.20914000000000005  0.2718200000000001  0.61921  1.0000
  H   H34       1.0  0.26957  0.18618  0.57063  1.0000
  H   H35       1.0  0.94162  0.9647700000000002  0.5732899999999999  1.0000
  H   H36       1.0  0.87918  0.04921  0.62211  1.0000
  H   H37       1.0  0.8147199999999999  0.1606  0.64454  1.0000
  H   H38       1.0  0.76751  0.24587000000000006  0.69668  1.0000
  H   H39       1.0  0.14526  0.37371  0.7259  1.0000
  H   H40       1.0  0.19409  0.28575  0.67498  1.0000
  H   H41       1.0  0.46723000000000003  0.11547000000000003  0.46618  1.0000
  H   H42       1.0  0.37694999999999995  0.034850000000000006  0.51362  1.0000
  H   H43       1.0  0.07473000000000003  0.11815000000000006  0.5078  1.0000
  H   H44       1.0  0.16565000000000002  0.20006000000000002  0.46086999999999995  1.0000
  H   H45       1.0  0.5595  0.25325000000000003  0.44961000000000007  1.0000
  H   H46       1.0  0.6408799999999999  0.3415500000000001  0.40259999999999996  1.0000
  H   H47       1.0  0.28188  0.26957  0.35807  1.0000
  H   H48       1.0  0.19927  0.17901000000000003  0.40403  1.0000
  H   H49       1.0  0.36003  0.75314  0.49924999999999997  1.0000
  H   H50       1.0  0.2874799999999999  0.83485  0.54679  1.0000
  H   H51       1.0  0.09871000000000005  0.91308  0.47157  1.0000
  H   H52       1.0  0.16847  0.83069  0.42454000000000003  1.0000
  H   H53       1.0  0.49343000000000015  0.7752500000000003  0.45988  1.0000
  H   H54       1.0  0.57759  0.6931  0.41497999999999996  1.0000
  H   H55       1.0  0.2553900000000001  0.6182000000000002  0.34939  1.0000
  H   H56       1.0  0.1682  0.69746  0.3942  1.0000
  H   H57       1.0  0.16752999999999996  0.92306  0.66119  1.0000
  H   H58       1.0  0.21837  0.0021499999999999796  0.6113  1.0000
  H   H59       1.0  0.01398000000000004  0.76391  0.54263  1.0000
  H   H60       1.0  0.9615499999999999  0.68459  0.59253  1.0000
  H   H61       1.0  0.8530300000000001  0.6630600000000002  0.64031  1.0000
  H   H62       1.0  0.8076199999999999  0.58185  0.68986  1.0000
  H   H63       1.0  0.15723  0.74291  0.7386199999999999  1.0000
  H   H64       1.0  0.20438  0.8238599999999999  0.6887  1.0000
  H   H65       1.0  0.06034  0.27202  0.11935  1.0000
  H   H66       1.0  0.9146400000000001  0.18631  0.07076  1.0000
  H   H67       1.0  0.0236100000000001  0.9654600000000002  0.07318  1.0000
  H   H68       1.0  0.16955  0.04981  0.12209  1.0000
  H   H69       1.0  0.34493  0.16050000000000003  0.14394  1.0000
  H   H70       1.0  0.47816  0.24435000000000007  0.19598  1.0000
  H   H71       1.0  0.22933000000000003  0.37275000000000014  0.2264  1.0000
  H   H72       1.0  0.09149999999999998  0.28597  0.17557  1.0000
  H   H73       1.0  0.64517  0.11358  0.96581  1.0000
  H   H74       1.0  0.65619  0.03337  0.01328  1.0000
  H   H75       1.0  0.04147000000000001  0.11768000000000003  0.00731  1.0000
  H   H76       1.0  0.031019999999999964  0.19905999999999993  0.9603  1.0000
  H   H77       1.0  0.69161  0.25359  0.94936  1.0000
  H   H78       1.0  0.69984  0.34279  0.90254  1.0000
  H   H79       1.0  0.98722  0.27038  0.8583899999999999  1.0000
  H   H80       1.0  0.9780799999999998  0.17924000000000004  0.9041299999999999  1.0000
  H   H81       1.0  0.3951000000000002  0.7535000000000002  0.99926  1.0000
  H   H82       1.0  0.55  0.83513  0.04658  1.0000
  H   H83       1.0  0.81523  0.91279  0.97094  1.0000
  H   H84       1.0  0.66232  0.8303699999999999  0.9241299999999999  1.0000
  H   H85       1.0  0.28367000000000014  0.7752700000000002  0.96029  1.0000
  H   H86       1.0  0.11578000000000005  0.6918700000000002  0.9160499999999999  1.0000
  H   H87       1.0  0.36094000000000004  0.6160700000000002  0.84976  1.0000
  H   H88       1.0  0.5288800000000001  0.6960300000000003  0.89405  1.0000
  H   H89       1.0  0.7579100000000001  0.9218400000000002  0.16064  1.0000
  H   H90       1.0  0.78524  0.0009599999999999948  0.11079  1.0000
  H   H91       1.0  0.75292  0.76295  0.04203  1.0000
  H   H92       1.0  0.72663  0.68358  0.09194  1.0000
  H   H93       1.0  0.81284  0.6619200000000002  0.14035  1.0000
  H   H94       1.0  0.77407  0.5803500000000003  0.18977999999999998  1.0000
  H   H95       1.0  0.58222  0.74089  0.23722  1.0000
  H   H96       1.0  0.6192199999999999  0.8221699999999998  0.18733999999999998  1.0000
  H   H97       1.0  0.7908600000000001  0.7281800000000003  0.38079  1.0000
  H   H98       1.0  0.73043  0.81381  0.4293699999999999  1.0000
  H   H99       1.0  0.05838  0.035219999999999994  0.42671  1.0000
  H   H100      1.0  0.12081999999999993  0.95079  0.3779  1.0000
  H   H101      1.0  0.1852800000000001  0.8394000000000003  0.35547  1.0000
  H   H102      1.0  0.23247999999999988  0.7541199999999999  0.30332  1.0000
  H   H103      1.0  0.8547399999999999  0.62628  0.27411  1.0000
  H   H104      1.0  0.8059  0.71424  0.32502  1.0000
  H   H105      1.0  0.53277  0.88453  0.53382  1.0000
  H   H106      1.0  0.6230500000000002  0.9651400000000002  0.48638999999999993  1.0000
  H   H107      1.0  0.9252700000000003  0.8818400000000002  0.4922  1.0000
  H   H108      1.0  0.83435  0.79993  0.53913  1.0000
  H   H109      1.0  0.4404999999999999  0.74675  0.5504  1.0000
  H   H110      1.0  0.35912  0.65844  0.5974  1.0000
  H   H111      1.0  0.7181199999999999  0.73042  0.64194  1.0000
  H   H112      1.0  0.8007299999999998  0.8209799999999999  0.59597  1.0000
  H   H113      1.0  0.63996  0.24685000000000004  0.50075  1.0000
  H   H114      1.0  0.71252  0.16514999999999996  0.45321999999999996  1.0000
  H   H115      1.0  0.90129  0.08690999999999997  0.52843  1.0000
  H   H116      1.0  0.8315199999999998  0.1693  0.57546  1.0000
  H   H117      1.0  0.50657  0.22474  0.54013  1.0000
  H   H118      1.0  0.42240999999999995  0.3069  0.58503  1.0000
  H   H119      1.0  0.74461  0.38180000000000014  0.65062  1.0000
  H   H120      1.0  0.8318  0.30254  0.6058  1.0000
  H   H121      1.0  0.83247  0.07694000000000002  0.33881  1.0000
  H   H122      1.0  0.7816300000000002  0.9978400000000003  0.3887  1.0000
  H   H123      1.0  0.98602  0.23608  0.45737  1.0000
  H   H124      1.0  0.03844999999999997  0.31539999999999996  0.40746999999999994  1.0000
  H   H125      1.0  0.14697  0.3369400000000001  0.35968999999999995  1.0000
  H   H126      1.0  0.19238  0.41815  0.31014  1.0000
  H   H127      1.0  0.84277  0.25709  0.26138  1.0000
  H   H128      1.0  0.79562  0.17614  0.3113  1.0000
  C   C1        1.0  0.14054999999999995  0.9816299999999999  0.9586599999999998  1.0000
  C   C2        1.0  0.2178  0.06657000000000003  0.95805  1.0000
  C   C3        1.0  0.94725  0.79537  0.89028  1.0000
  C   C4        1.0  0.02956999999999998  0.8435499999999999  0.9178699999999999  1.0000
  C   C5        1.0  0.04491  0.93142  0.93099  1.0000
  C   C6        1.0  0.9689099999999999  0.96765  0.91656  1.0000
  C   C7        1.0  0.88535  0.91932  0.88916  1.0000
  C   C8        1.0  0.87432  0.8327900000000003  0.87497  1.0000
  C   C9        1.0  0.79152  0.7825500000000002  0.84457  1.0000
  C   C10       1.0  0.68173  0.7936000000000002  0.83796  1.0000
  C   C11       1.0  0.6057500000000001  0.7458  0.80886  1.0000
  C   C12       1.0  0.63709  0.68455  0.7856999999999998  1.0000
  C   C13       1.0  0.74617  0.6733600000000002  0.79207  1.0000
  C   C14       1.0  0.8224  0.7217200000000003  0.82079  1.0000
  C   C15       1.0  0.5587800000000002  0.6312500000000002  0.7545799999999999  1.0000
  C   C16       1.0  0.2674500000000001  0.8848600000000002  0.02515  1.0000
  C   C17       1.0  0.26144999999999996  0.9306899999999999  0.9984099999999999  1.0000
  C   C18       1.0  0.15048000000000014  0.9323200000000004  0.9866099999999999  1.0000
  C   C19       1.0  0.04562999999999997  0.88366  0.0017799999999999997  1.0000
  C   C20       1.0  0.05168000000000001  0.83811  0.0285  1.0000
  C   C21       1.0  0.1626799999999999  0.83832  0.04103  1.0000
  C   C22       1.0  0.1651300000000001  0.7895400000000002  0.06959  1.0000
  C   C23       1.0  0.24516  0.74442  0.0709  1.0000
  C   C24       1.0  0.24052000000000015  0.6939200000000002  0.09682999999999999  1.0000
  C   C25       1.0  0.15498000000000012  0.6871600000000002  0.12203  1.0000
  C   C26       1.0  0.07716000000000015  0.7339300000000002  0.12157999999999998  1.0000
  C   C27       1.0  0.08255000000000007  0.78464  0.09579  1.0000
  C   C28       1.0  0.14218999999999998  0.62705  0.14789  1.0000
  C   C29       1.0  0.5129799999999999  0.21069  0.00693  1.0000
  C   C30       1.0  0.42570000000000013  0.16526000000000005  0.9803  1.0000
  C   C31       1.0  0.30581  0.11831000000000001  0.98745  1.0000
  C   C32       1.0  0.27637  0.12249  0.02244  1.0000
  C   C33       1.0  0.3637099999999999  0.16908  0.04914  1.0000
  C   C34       1.0  0.48458  0.21268000000000006  0.04196  1.0000
  C   C35       1.0  0.58127  0.25877  0.06941  1.0000
  C   C36       1.0  0.69907  0.26038  0.06368  1.0000
  C   C37       1.0  0.79294  0.30548  0.08849  1.0000
  C   C38       1.0  0.77189  0.34955000000000014  0.12004000000000001  1.0000
  C   C39       1.0  0.65492  0.34798000000000007  0.12616  1.0000
  C   C40       1.0  0.56074  0.30299  0.10117  1.0000
  C   C41       1.0  0.8747999999999999  0.39738  0.14569  1.0000
  C   C42       1.0  0.2430299999999999  0.11341999999999997  0.86532  1.0000
  C   C43       1.0  0.22669999999999996  0.06840999999999994  0.8934399999999999  1.0000
  C   C44       1.0  0.22642  0.11150999999999998  0.92741  1.0000
  C   C45       1.0  0.24331000000000005  0.20160000000000006  0.93186  1.0000
  C   C46       1.0  0.2584  0.24646999999999997  0.90367  1.0000
  C   C47       1.0  0.25969  0.20349000000000006  0.86975  1.0000
  C   C48       1.0  0.28131  0.25182  0.83999  1.0000
  C   C49       1.0  0.23928  0.32111  0.83879  1.0000
  C   C50       1.0  0.26097999999999993  0.36733999999999994  0.8109499999999998  1.0000
  C   C51       1.0  0.32663  0.3459600000000001  0.78343  1.0000
  C   C52       1.0  0.36814  0.27650000000000013  0.78426  1.0000
  C   C53       1.0  0.34584999999999994  0.23018  0.81206  1.0000
  C   C54       1.0  0.3522400000000001  0.3969000000000001  0.754  1.0000
  C   C55       1.0  0.15882  0.018399999999999993  0.54155  1.0000
  C   C56       1.0  0.15335  0.93396  0.54236  1.0000
  C   C57       1.0  0.14988  0.20433  0.60963  1.0000
  C   C58       1.0  0.1843  0.15622  0.58211  1.0000
  C   C59       1.0  0.11253  0.06818  0.56915  1.0000
  C   C60       1.0  0.000490000000000001  0.03176  0.58355  1.0000
  C   C61       1.0  0.96487  0.08013000000000006  0.61089  1.0000
  C   C62       1.0  0.03996000000000003  0.16673000000000004  0.62503  1.0000
  C   C63       1.0  0.00818000000000001  0.2173  0.65548  1.0000
  C   C64       1.0  0.88777  0.20658999999999994  0.66242  1.0000
  C   C65       1.0  0.8608  0.25507  0.69153  1.0000
  C   C66       1.0  0.9539400000000001  0.31652  0.7143799999999999  1.0000
  C   C67       1.0  0.07393000000000001  0.32734  0.70773  1.0000
  C   C68       1.0  0.10060999999999996  0.27832999999999997  0.6789599999999999  1.0000
  C   C69       1.0  0.92927  0.37031  0.74543  1.0000
  C   C70       1.0  0.38117  0.11649  0.4752  1.0000
  C   C71       1.0  0.32991  0.07041000000000001  0.50188  1.0000
  C   C72       1.0  0.21706000000000003  0.06810000000000004  0.51363  1.0000
  C   C73       1.0  0.16036999999999998  0.11684999999999997  0.49859999999999993  1.0000
  C   C74       1.0  0.21145  0.16274999999999998  0.47193999999999997  1.0000
  C   C75       1.0  0.3221800000000001  0.16270000000000012  0.45933  1.0000
  C   C76       1.0  0.37321  0.21092999999999998  0.43063999999999997  1.0000
  C   C77       1.0  0.49839  0.25536  0.42931  1.0000
  C   C78       1.0  0.5445300000000001  0.3053700000000001  0.40329  1.0000
  C   C79       1.0  0.46621000000000007  0.31233000000000005  0.378  1.0000
  C   C80       1.0  0.34166  0.26566  0.3783  1.0000
  C   C81       1.0  0.29594  0.21532000000000007  0.40418  1.0000
  C   C82       1.0  0.51443  0.37258  0.35226  1.0000
  C   C83       1.0  0.3040600000000001  0.7892900000000003  0.49319  1.0000
  C   C84       1.0  0.2626499999999999  0.83483  0.51996  1.0000
  C   C85       1.0  0.1897799999999999  0.8821499999999999  0.51298  1.0000
  C   C86       1.0  0.15545000000000006  0.87786  0.47804  1.0000
  C   C87       1.0  0.19574999999999998  0.83124  0.45122  1.0000
  C   C88       1.0  0.27338  0.7876  0.45819999999999994  1.0000
  C   C89       1.0  0.3238800000000001  0.7419000000000001  0.43051  1.0000
  C   C90       1.0  0.44022  0.74021  0.43590999999999996  1.0000
  C   C91       1.0  0.48876000000000003  0.6956700000000001  0.41075  1.0000
  C   C92       1.0  0.4233199999999999  0.65195  0.37922  1.0000
  C   C93       1.0  0.30771000000000004  0.6536200000000002  0.37344  1.0000
  C   C94       1.0  0.2588699999999999  0.69827  0.39873  1.0000
  C   C95       1.0  0.4783600000000002  0.6042000000000002  0.35341  1.0000
  C   C96       1.0  0.13331000000000015  0.8877100000000002  0.63524  1.0000
  C   C97       1.0  0.16156000000000012  0.9326900000000002  0.60709  1.0000
  C   C98       1.0  0.11817000000000005  0.8894400000000002  0.5731399999999999  1.0000
  C   C99       1.0  0.04566000000000007  0.7993200000000001  0.56873  1.0000
  C   C100      1.0  0.01625  0.75452  0.59692  1.0000
  C   C101      1.0  0.060140000000000034  0.79765  0.63084  1.0000
  C   C102      1.0  0.03238000000000003  0.7495  0.66063  1.0000
  C   C103      1.0  0.92096  0.6802000000000002  0.66152  1.0000
  C   C104      1.0  0.8950499999999999  0.63411  0.6894099999999999  1.0000
  C   C105      1.0  0.98099  0.6555300000000002  0.71723  1.0000
  C   C106      1.0  0.09158000000000001  0.72529  0.71679  1.0000
  C   C107      1.0  0.1170400000000001  0.7714800000000003  0.6889699999999999  1.0000
  C   C108      1.0  0.9566099999999998  0.60402  0.74646  1.0000
  C   C109      1.0  0.85944  0.01837  0.04135  1.0000
  C   C110      1.0  0.7821899999999999  0.9334300000000002  0.04196  1.0000
  C   C111      1.0  0.05273999999999998  0.20461999999999997  0.10971999999999998  1.0000
  C   C112      1.0  0.97042  0.15645000000000003  0.08213  1.0000
  C   C113      1.0  0.9550899999999999  0.06858000000000003  0.06901  1.0000
  C   C114      1.0  0.03109  0.03235  0.08344  1.0000
  C   C115      1.0  0.11465  0.08067  0.11084  1.0000
  C   C116      1.0  0.12568  0.1672  0.12503  1.0000
  C   C117      1.0  0.20848000000000003  0.21745000000000006  0.15543  1.0000
  C   C118      1.0  0.31827  0.2064  0.16205  1.0000
  C   C119      1.0  0.39424999999999993  0.2542  0.19115  1.0000
  C   C120      1.0  0.36291  0.31545  0.2143  1.0000
  C   C121      1.0  0.25382  0.32664  0.20793999999999999  1.0000
  C   C122      1.0  0.17760000000000004  0.2782700000000001  0.17921  1.0000
  C   C123      1.0  0.44122  0.36875  0.24543  1.0000
  C   C124      1.0  0.7325499999999999  0.11512999999999998  0.97486  1.0000
  C   C125      1.0  0.73855  0.0693  0.0016  1.0000
  C   C126      1.0  0.84952  0.06767000000000002  0.013399999999999999  1.0000
  C   C127      1.0  0.95437  0.11633999999999999  0.9982199999999999  1.0000
  C   C128      1.0  0.9483199999999996  0.16188999999999995  0.9715099999999999  1.0000
  C   C129      1.0  0.83732  0.16166999999999995  0.9589799999999999  1.0000
  C   C130      1.0  0.83487  0.21044999999999997  0.93041  1.0000
  C   C131      1.0  0.75483  0.25557000000000013  0.9291  1.0000
  C   C132      1.0  0.75948  0.30608  0.90317  1.0000
  C   C133      1.0  0.8450199999999999  0.3128400000000001  0.87797  1.0000
  C   C134      1.0  0.92284  0.26607000000000003  0.8784300000000002  1.0000
  C   C135      1.0  0.9174400000000001  0.21535000000000012  0.90421  1.0000
  C   C136      1.0  0.8578  0.37295  0.8521199999999999  1.0000
  C   C137      1.0  0.48701999999999995  0.7892999999999999  0.9930699999999999  1.0000
  C   C138      1.0  0.57429  0.83473  0.0197  1.0000
  C   C139      1.0  0.69419  0.8816900000000002  0.01255  1.0000
  C   C140      1.0  0.72363  0.87751  0.9775699999999999  1.0000
  C   C141      1.0  0.63629  0.8309199999999999  0.9508599999999999  1.0000
  C   C142      1.0  0.51542  0.7873100000000002  0.95804  1.0000
  C   C143      1.0  0.41872999999999994  0.74123  0.9306  1.0000
  C   C144      1.0  0.3009199999999999  0.73962  0.93633  1.0000
  C   C145      1.0  0.20705000000000007  0.6945200000000002  0.91152  1.0000
  C   C146      1.0  0.22811  0.65044  0.87997  1.0000
  C   C147      1.0  0.34508000000000005  0.6520100000000001  0.8738399999999998  1.0000
  C   C148      1.0  0.43926000000000004  0.6970000000000001  0.8988300000000001  1.0000
  C   C149      1.0  0.12519999999999998  0.60261  0.85431  1.0000
  C   C150      1.0  0.7569699999999999  0.8865700000000002  0.13469  1.0000
  C   C151      1.0  0.77329  0.93159  0.10656999999999998  1.0000
  C   C152      1.0  0.77358  0.88849  0.07259  1.0000
  C   C153      1.0  0.75669  0.7984  0.06814  1.0000
  C   C154      1.0  0.7415999999999998  0.75353  0.09634  1.0000
  C   C155      1.0  0.7403100000000001  0.7965000000000002  0.13025  1.0000
  C   C156      1.0  0.7186900000000003  0.7481700000000002  0.16001  1.0000
  C   C157      1.0  0.7607199999999998  0.67888  0.16121  1.0000
  C   C158      1.0  0.73902  0.63265  0.18905  1.0000
  C   C159      1.0  0.67337  0.6540400000000002  0.21656999999999998  1.0000
  C   C160      1.0  0.63186  0.72349  0.21573999999999996  1.0000
  C   C161      1.0  0.65415  0.7698100000000001  0.18794  1.0000
  C   C162      1.0  0.6477500000000002  0.6030900000000002  0.24599999999999997  1.0000
  C   C163      1.0  0.84118  0.9816  0.45846  1.0000
  C   C164      1.0  0.84665  0.06604  0.45764  1.0000
  C   C165      1.0  0.8501200000000001  0.7956600000000003  0.39037  1.0000
  C   C166      1.0  0.8157  0.84378  0.41789999999999994  1.0000
  C   C167      1.0  0.8874700000000001  0.9318200000000002  0.43085999999999997  1.0000
  C   C168      1.0  0.99951  0.96823  0.41646  1.0000
  C   C169      1.0  0.035130000000000015  0.91987  0.38911  1.0000
  C   C170      1.0  0.96004  0.8332600000000002  0.3749799999999999  1.0000
  C   C171      1.0  0.9918200000000001  0.7827000000000003  0.34451999999999994  1.0000
  C   C172      1.0  0.11221999999999997  0.79341  0.33759  1.0000
  C   C173      1.0  0.1392  0.74492  0.30847  1.0000
  C   C174      1.0  0.04605000000000001  0.68348  0.28562  1.0000
  C   C175      1.0  0.92607  0.67266  0.29228  1.0000
  C   C176      1.0  0.8993899999999999  0.7216599999999999  0.32104  1.0000
  C   C177      1.0  0.07073000000000011  0.6296900000000002  0.25457  1.0000
  C   C178      1.0  0.61883  0.88351  0.52481  1.0000
  C   C179      1.0  0.6700900000000001  0.9295900000000002  0.49812  1.0000
  C   C180      1.0  0.7829300000000002  0.9319000000000002  0.48637  1.0000
  C   C181      1.0  0.8396299999999999  0.88314  0.5014  1.0000
  C   C182      1.0  0.7885500000000001  0.8372500000000003  0.52806  1.0000
  C   C183      1.0  0.6778099999999999  0.8373000000000003  0.54068  1.0000
  C   C184      1.0  0.62679  0.7890700000000003  0.56937  1.0000
  C   C185      1.0  0.5016099999999999  0.74464  0.57069  1.0000
  C   C186      1.0  0.4554600000000001  0.6946200000000002  0.59671  1.0000
  C   C187      1.0  0.5337799999999999  0.68767  0.622  1.0000
  C   C188      1.0  0.65834  0.73434  0.6217  1.0000
  C   C189      1.0  0.70406  0.7846800000000002  0.59582  1.0000
  C   C190      1.0  0.4855700000000001  0.6274100000000001  0.64774  1.0000
  C   C191      1.0  0.69594  0.21070000000000005  0.50681  1.0000
  C   C192      1.0  0.73734  0.16517000000000007  0.48005  1.0000
  C   C193      1.0  0.81022  0.11785000000000001  0.48701999999999995  1.0000
  C   C194      1.0  0.84455  0.12212999999999993  0.5219699999999999  1.0000
  C   C195      1.0  0.80425  0.16876  0.54879  1.0000
  C   C196      1.0  0.72662  0.21239000000000005  0.54181  1.0000
  C   C197      1.0  0.67612  0.25809  0.56949  1.0000
  C   C198      1.0  0.5597800000000003  0.25978  0.5641  1.0000
  C   C199      1.0  0.5112400000000001  0.3043300000000001  0.58925  1.0000
  C   C200      1.0  0.5766800000000001  0.34805000000000014  0.62078  1.0000
  C   C201      1.0  0.69229  0.34638000000000013  0.62656  1.0000
  C   C202      1.0  0.74113  0.30172  0.60128  1.0000
  C   C203      1.0  0.52164  0.3958  0.64659  1.0000
  C   C204      1.0  0.86669  0.11229000000000001  0.36476  1.0000
  C   C205      1.0  0.83844  0.0673  0.39291  1.0000
  C   C206      1.0  0.8818300000000002  0.11055  0.42687  1.0000
  C   C207      1.0  0.95434  0.20067  0.43127  1.0000
  C   C208      1.0  0.98375  0.24547000000000002  0.40308  1.0000
  C   C209      1.0  0.93986  0.20235  0.36917  1.0000
  C   C210      1.0  0.9676199999999999  0.25049  0.33936999999999995  1.0000
  C   C211      1.0  0.07904000000000003  0.31979  0.33848  1.0000
  C   C212      1.0  0.10495  0.36589  0.31059  1.0000
  C   C213      1.0  0.019010000000000065  0.3444600000000001  0.28277  1.0000
  C   C214      1.0  0.9084199999999999  0.27471  0.28322  1.0000
  C   C215      1.0  0.88296  0.22851000000000005  0.31104  1.0000
  C   C216      1.0  0.04339000000000002  0.39597000000000004  0.25354  1.0000
  O   O1        1.0  0.58818  0.56757  0.73799  1.0000
  O   O2        1.0  0.46786  0.64632  0.74472  1.0000
  O   O3        1.0  0.04536  0.61008  0.16542  1.0000
  O   O4        1.0  0.21957999999999997  0.5924  0.1517  1.0000
  O   O5        1.0  0.8575499999999999  0.44013  0.17470999999999998  1.0000
  O   O6        1.0  0.97924  0.39700000000000013  0.13899  1.0000
  O   O7        1.0  0.41254  0.37582  0.7290599999999999  1.0000
  O   O8        1.0  0.3148599999999999  0.46026999999999996  0.7542099999999999  1.0000
  O   O9        1.0  0.022529999999999998  0.43312  0.76214  1.0000
  O   O10       1.0  0.82334  0.35658  0.7551799999999999  1.0000
  O   O11       1.0  0.43521  0.39028  0.33471  1.0000
  O   O12       1.0  0.62654  0.40667  0.3486  1.0000
  O   O13       1.0  0.41714  0.55958  0.32484  1.0000
  O   O14       1.0  0.5844  0.60613  0.35958999999999997  1.0000
  O   O15       1.0  0.03930999999999999  0.624  0.77094  1.0000
  O   O16       1.0  0.85583  0.5411  0.74642  1.0000
  O   O17       1.0  0.41181  0.43242000000000014  0.26202  1.0000
  O   O18       1.0  0.5321399999999998  0.35368  0.25529  1.0000
  O   O19       1.0  0.9546399999999999  0.38992  0.83458  1.0000
  O   O20       1.0  0.7804199999999999  0.40760000000000013  0.84831  1.0000
  O   O21       1.0  0.14245000000000002  0.55987  0.8252899999999999  1.0000
  O   O22       1.0  0.020750000000000015  0.603  0.86102  1.0000
  O   O23       1.0  0.58746  0.6241700000000002  0.27094  1.0000
  O   O24       1.0  0.6851399999999999  0.5397200000000001  0.24578999999999998  1.0000
  O   O25       1.0  0.97747  0.56688  0.23786  1.0000
  O   O26       1.0  0.17666  0.64342  0.24481999999999998  1.0000
  O   O27       1.0  0.56479  0.60972  0.6653  1.0000
  O   O28       1.0  0.3734600000000002  0.5933300000000002  0.6514  1.0000
  O   O29       1.0  0.58286  0.44041000000000013  0.67517  1.0000
  O   O30       1.0  0.4156  0.39387  0.64041  1.0000
  O   O31       1.0  0.96069  0.376  0.22907  1.0000
  O   O32       1.0  0.14417000000000005  0.4589000000000001  0.25358  1.0000
