data_image0
_chemical_formula_structural       Cu8H96C132O48
_chemical_formula_sum              "Cu8 H96 C132 O48"
_cell_length_a       10.66788
_cell_length_b       18.45299
_cell_length_c       27.44153
_cell_angle_alpha    90.00974
_cell_angle_beta     90.0
_cell_angle_gamma    90.0

_symmetry_space_group_name_H-M    'P 1'
_symmetry_Int_Tables_number       1

loop_
  _symmetry_equiv_pos_as_xyz
  'x,y,z'

loop_
  _atom_site_type_symbol
  _atom_site_label
  _atom_site_symmetry_multiplicity
  _atom_site_fract_x
  _atom_site_fract_y
  _atom_site_fract_z
  _atom_site_occupancy
  Cu  Cu1       1.0  0.4409600000000001  0.94661  0.51255  1.0000
  Cu  Cu2       1.0  0.4409600000000001  0.05338  0.98745  1.0000
  Cu  Cu3       1.0  0.05922000000000001  0.44652  0.98746  1.0000
  Cu  Cu4       1.0  0.05922000000000001  0.55348  0.51254  1.0000
  Cu  Cu5       1.0  0.55904  0.053389999999999986  0.48745  1.0000
  Cu  Cu6       1.0  0.55904  0.94662  0.01255  1.0000
  Cu  Cu7       1.0  0.94078  0.55348  0.01254  1.0000
  Cu  Cu8       1.0  0.94078  0.44652  0.48746  1.0000
  H   H1        1.0  0.27293  0.18553  0.42737  1.0000
  H   H2        1.0  0.08265  0.24203  0.39188  1.0000
  H   H3        1.0  0.8696900000000001  0.05019  0.42755999999999994  1.0000
  H   H4        1.0  0.06382  0.99395  0.46219  1.0000
  H   H5        1.0  0.94998  0.23781999999999998  0.33435  1.0000
  H   H6        1.0  0.87817  0.28702  0.38318  1.0000
  H   H7        1.0  0.8144800000000001  0.17217999999999994  0.27349  1.0000
  H   H8        1.0  0.71103  0.13458  0.31843  1.0000
  H   H9        1.0  0.48533  0.24117999999999998  0.19591  1.0000
  H   H10       1.0  0.44788000000000006  0.17972999999999997  0.11588  1.0000
  H   H11       1.0  0.69809  0.00851  0.15756999999999993  1.0000
  H   H12       1.0  0.73609  0.06886  0.23734999999999998  1.0000
  H   H13       1.0  0.27293  0.81447  0.07263  1.0000
  H   H14       1.0  0.08265  0.7579699999999999  0.10812  1.0000
  H   H15       1.0  0.8696900000000001  0.9498099999999999  0.07245  1.0000
  H   H16       1.0  0.06382  0.00605  0.03781  1.0000
  H   H17       1.0  0.94998  0.76219  0.16565  1.0000
  H   H18       1.0  0.87817  0.71298  0.11681999999999998  1.0000
  H   H19       1.0  0.8144800000000001  0.82782  0.22650999999999993  1.0000
  H   H20       1.0  0.71103  0.86542  0.18157  1.0000
  H   H21       1.0  0.48533  0.75882  0.30409  1.0000
  H   H22       1.0  0.44788000000000006  0.82027  0.38412  1.0000
  H   H23       1.0  0.69809  0.9914899999999999  0.34242999999999996  1.0000
  H   H24       1.0  0.73609  0.9311499999999999  0.26265  1.0000
  H   H25       1.0  0.22733  0.6849499999999997  0.07248  1.0000
  H   H26       1.0  0.41746000000000005  0.74128  0.10814  1.0000
  H   H27       1.0  0.63039  0.54944  0.07246  1.0000
  H   H28       1.0  0.43622  0.4933199999999999  0.03762  1.0000
  H   H29       1.0  0.54988  0.73738  0.16537  1.0000
  H   H30       1.0  0.6221  0.78588  0.11638  1.0000
  H   H31       1.0  0.68349  0.67239  0.22649  1.0000
  H   H32       1.0  0.79063  0.6349499999999999  0.18289  1.0000
  H   H33       1.0  0.01455  0.7411599999999998  0.30504  1.0000
  H   H34       1.0  0.05287  0.6783799999999999  0.38455  1.0000
  H   H35       1.0  0.80212  0.50783  0.3419199999999999  1.0000
  H   H36       1.0  0.7635400000000001  0.56956  0.26261  1.0000
  H   H37       1.0  0.22733  0.31505  0.42752  1.0000
  H   H38       1.0  0.41746000000000005  0.25872  0.3918599999999999  1.0000
  H   H39       1.0  0.63039  0.45056999999999997  0.42754  1.0000
  H   H40       1.0  0.43622  0.50668  0.4623799999999999  1.0000
  H   H41       1.0  0.54988  0.26262  0.33463  1.0000
  H   H42       1.0  0.6221  0.21412  0.38362  1.0000
  H   H43       1.0  0.68349  0.32761  0.27351  1.0000
  H   H44       1.0  0.79063  0.3650499999999999  0.31711  1.0000
  H   H45       1.0  0.01455  0.25884  0.19495999999999994  1.0000
  H   H46       1.0  0.05287  0.32162999999999997  0.11544999999999997  1.0000
  H   H47       1.0  0.80212  0.49217  0.15807999999999997  1.0000
  H   H48       1.0  0.7635400000000001  0.43044  0.23739  1.0000
  H   H49       1.0  0.72707  0.81447  0.57263  1.0000
  H   H50       1.0  0.91735  0.7579699999999999  0.60812  1.0000
  H   H51       1.0  0.13031000000000004  0.9498099999999999  0.57245  1.0000
  H   H52       1.0  0.93618  0.00605  0.53781  1.0000
  H   H53       1.0  0.05002  0.76219  0.66565  1.0000
  H   H54       1.0  0.12182  0.71298  0.61682  1.0000
  H   H55       1.0  0.18552  0.82782  0.72651  1.0000
  H   H56       1.0  0.28897  0.86542  0.68157  1.0000
  H   H57       1.0  0.51467  0.75882  0.80409  1.0000
  H   H58       1.0  0.55212  0.82027  0.88412  1.0000
  H   H59       1.0  0.3019  0.9914899999999999  0.8424299999999998  1.0000
  H   H60       1.0  0.2639  0.93114  0.76265  1.0000
  H   H61       1.0  0.72707  0.18553  0.9273699999999998  1.0000
  H   H62       1.0  0.91735  0.24203  0.89188  1.0000
  H   H63       1.0  0.13031000000000004  0.05019  0.92756  1.0000
  H   H64       1.0  0.93618  0.99395  0.9621899999999998  1.0000
  H   H65       1.0  0.05002  0.23781  0.83435  1.0000
  H   H66       1.0  0.12182  0.28702  0.8831799999999999  1.0000
  H   H67       1.0  0.18552  0.17217999999999994  0.7734899999999998  1.0000
  H   H68       1.0  0.28897  0.13458  0.8184299999999999  1.0000
  H   H69       1.0  0.51467  0.24117999999999998  0.69591  1.0000
  H   H70       1.0  0.55212  0.17972999999999997  0.61588  1.0000
  H   H71       1.0  0.3019  0.00851  0.65757  1.0000
  H   H72       1.0  0.2639  0.06886  0.73735  1.0000
  H   H73       1.0  0.77267  0.31505  0.9275199999999999  1.0000
  H   H74       1.0  0.58253  0.25872  0.89186  1.0000
  H   H75       1.0  0.36961  0.45055999999999996  0.92754  1.0000
  H   H76       1.0  0.56378  0.50668  0.96238  1.0000
  H   H77       1.0  0.4501200000000001  0.26262  0.83463  1.0000
  H   H78       1.0  0.37789000000000006  0.21412  0.8836299999999999  1.0000
  H   H79       1.0  0.31651  0.32761  0.7735099999999998  1.0000
  H   H80       1.0  0.20937  0.3650499999999999  0.8171099999999998  1.0000
  H   H81       1.0  0.98545  0.25884  0.69496  1.0000
  H   H82       1.0  0.94713  0.32161999999999996  0.61545  1.0000
  H   H83       1.0  0.19788000000000003  0.49217  0.6580799999999998  1.0000
  H   H84       1.0  0.23646000000000003  0.43044  0.7373899999999999  1.0000
  H   H85       1.0  0.77267  0.6849499999999997  0.57248  1.0000
  H   H86       1.0  0.58253  0.74128  0.6081399999999998  1.0000
  H   H87       1.0  0.36961  0.54943  0.57246  1.0000
  H   H88       1.0  0.56378  0.4933199999999999  0.53762  1.0000
  H   H89       1.0  0.4501200000000001  0.73738  0.66537  1.0000
  H   H90       1.0  0.37789000000000006  0.78588  0.61638  1.0000
  H   H91       1.0  0.31651  0.67239  0.72649  1.0000
  H   H92       1.0  0.20937  0.6349499999999999  0.68289  1.0000
  H   H93       1.0  0.98545  0.7411599999999998  0.8050399999999999  1.0000
  H   H94       1.0  0.94713  0.6783799999999999  0.88455  1.0000
  H   H95       1.0  0.19788000000000003  0.50783  0.84192  1.0000
  H   H96       1.0  0.23646000000000003  0.56956  0.76261  1.0000
  C   C1        1.0  0.29718  0.05368  0.46616  1.0000
  C   C2        1.0  0.18096000000000004  0.08617999999999998  0.44622  1.0000
  C   C3        1.0  0.18474  0.15611  0.42655999999999994  1.0000
  C   C4        1.0  0.07788  0.18758  0.40665  1.0000
  C   C5        1.0  0.9650000000000001  0.1485  0.40628  1.0000
  C   C6        1.0  0.9587600000000001  0.07898  0.42713999999999996  1.0000
  C   C7        1.0  0.06655  0.04812999999999999  0.44665  1.0000
  C   C8        1.0  0.86763  0.24061999999999997  0.3583  1.0000
  C   C9        1.0  0.73017  0.18206999999999998  0.29541  1.0000
  C   C10       1.0  0.6124600000000001  0.15892  0.22135  1.0000
  C   C11       1.0  0.53052  0.19002  0.18714  1.0000
  C   C12       1.0  0.51025  0.156  0.1428  1.0000
  C   C13       1.0  0.5705  0.09023  0.13165  1.0000
  C   C14       1.0  0.65169  0.05942999999999999  0.16613999999999995  1.0000
  C   C15       1.0  0.67343  0.09338999999999997  0.21086999999999997  1.0000
  C   C16       1.0  0.54745  0.055299999999999995  0.08369  1.0000
  C   C17       1.0  0.29718  0.9463199999999999  0.03384  1.0000
  C   C18       1.0  0.18096000000000004  0.91382  0.05378  1.0000
  C   C19       1.0  0.18474  0.84389  0.07344  1.0000
  C   C20       1.0  0.07788  0.81243  0.09335  1.0000
  C   C21       1.0  0.9650000000000001  0.8515  0.09371999999999997  1.0000
  C   C22       1.0  0.9587600000000001  0.9210199999999998  0.07286  1.0000
  C   C23       1.0  0.06655  0.95187  0.05335  1.0000
  C   C24       1.0  0.86763  0.75938  0.1417  1.0000
  C   C25       1.0  0.73017  0.8179299999999999  0.20459  1.0000
  C   C26       1.0  0.6124600000000001  0.8410799999999998  0.27865  1.0000
  C   C27       1.0  0.53052  0.8099899999999999  0.31285999999999997  1.0000
  C   C28       1.0  0.51025  0.8440099999999999  0.3572  1.0000
  C   C29       1.0  0.5705  0.90978  0.36835  1.0000
  C   C30       1.0  0.65169  0.9405699999999999  0.3338599999999999  1.0000
  C   C31       1.0  0.67343  0.90662  0.28913  1.0000
  C   C32       1.0  0.54745  0.9447099999999999  0.41631  1.0000
  C   C33       1.0  0.20318000000000003  0.55297  0.03375  1.0000
  C   C34       1.0  0.31925  0.58555  0.05368  1.0000
  C   C35       1.0  0.31546  0.65546  0.07335  1.0000
  C   C36       1.0  0.42231  0.68685  0.09334  1.0000
  C   C37       1.0  0.53508  0.6476399999999999  0.09376  1.0000
  C   C38       1.0  0.54129  0.5781799999999999  0.07284  1.0000
  C   C39       1.0  0.43357  0.5474399999999999  0.05326  1.0000
  C   C40       1.0  0.63245  0.7398099999999997  0.14152  1.0000
  C   C41       1.0  0.76898  0.6827099999999999  0.20531999999999995  1.0000
  C   C42       1.0  0.88646  0.6595899999999998  0.27942  1.0000
  C   C43       1.0  0.9692800000000001  0.68994  0.3136  1.0000
  C   C44       1.0  0.9901300000000001  0.6551  0.35757  1.0000
  C   C45       1.0  0.9297200000000001  0.5892  0.36828  1.0000
  C   C46       1.0  0.8484600000000001  0.55888  0.33364999999999995  1.0000
  C   C47       1.0  0.8262000000000002  0.59366  0.28927  1.0000
  C   C48       1.0  0.95239  0.5539199999999997  0.41610999999999987  1.0000
  C   C49       1.0  0.20318000000000003  0.44703  0.46625  1.0000
  C   C50       1.0  0.31925  0.41444999999999993  0.44632  1.0000
  C   C51       1.0  0.31546  0.34454  0.42665  1.0000
  C   C52       1.0  0.42231  0.31316  0.40666  1.0000
  C   C53       1.0  0.53508  0.35236  0.40624  1.0000
  C   C54       1.0  0.54129  0.4218199999999999  0.42716  1.0000
  C   C55       1.0  0.43357  0.45255999999999996  0.44674  1.0000
  C   C56       1.0  0.63245  0.26019  0.35847999999999997  1.0000
  C   C57       1.0  0.76898  0.3172899999999999  0.29468  1.0000
  C   C58       1.0  0.88646  0.34041  0.22057999999999997  1.0000
  C   C59       1.0  0.9692800000000001  0.3100599999999999  0.18639999999999998  1.0000
  C   C60       1.0  0.9901300000000001  0.3449  0.14243  1.0000
  C   C61       1.0  0.9297200000000001  0.4108  0.13172  1.0000
  C   C62       1.0  0.8484600000000001  0.44112  0.16635  1.0000
  C   C63       1.0  0.8262000000000002  0.40634  0.21073  1.0000
  C   C64       1.0  0.95239  0.44609  0.08389  1.0000
  C   C65       1.0  0.70282  0.9463199999999999  0.53384  1.0000
  C   C66       1.0  0.8190400000000001  0.91382  0.55378  1.0000
  C   C67       1.0  0.81526  0.84389  0.57344  1.0000
  C   C68       1.0  0.92212  0.81243  0.59335  1.0000
  C   C69       1.0  0.035  0.8515  0.59372  1.0000
  C   C70       1.0  0.04123000000000001  0.9210199999999998  0.57286  1.0000
  C   C71       1.0  0.93345  0.95187  0.55335  1.0000
  C   C72       1.0  0.13237  0.75938  0.6416999999999999  1.0000
  C   C73       1.0  0.26983  0.8179299999999999  0.7045899999999999  1.0000
  C   C74       1.0  0.38754  0.8410799999999998  0.77865  1.0000
  C   C75       1.0  0.46948  0.8099899999999999  0.81286  1.0000
  C   C76       1.0  0.48975  0.844  0.8572  1.0000
  C   C77       1.0  0.4295  0.90978  0.8683499999999997  1.0000
  C   C78       1.0  0.34831000000000006  0.9405699999999999  0.83386  1.0000
  C   C79       1.0  0.32657  0.90662  0.78913  1.0000
  C   C80       1.0  0.45255000000000006  0.9446999999999999  0.91632  1.0000
  C   C81       1.0  0.70282  0.05368  0.96616  1.0000
  C   C82       1.0  0.8190400000000001  0.08617999999999998  0.9462199999999998  1.0000
  C   C83       1.0  0.81526  0.15611  0.92656  1.0000
  C   C84       1.0  0.92212  0.18757  0.9066499999999998  1.0000
  C   C85       1.0  0.035  0.1485  0.90628  1.0000
  C   C86       1.0  0.04123000000000001  0.07898  0.92714  1.0000
  C   C87       1.0  0.93345  0.04812999999999999  0.9466499999999998  1.0000
  C   C88       1.0  0.13237  0.24061999999999997  0.8583  1.0000
  C   C89       1.0  0.26983  0.18206999999999998  0.79541  1.0000
  C   C90       1.0  0.38754  0.15892  0.72135  1.0000
  C   C91       1.0  0.46948  0.19000999999999998  0.6871399999999998  1.0000
  C   C92       1.0  0.48975  0.15598999999999996  0.6428  1.0000
  C   C93       1.0  0.4295  0.09021999999999998  0.63165  1.0000
  C   C94       1.0  0.34831000000000006  0.05942999999999999  0.6661399999999998  1.0000
  C   C95       1.0  0.32657  0.09338  0.71087  1.0000
  C   C96       1.0  0.45255000000000006  0.055299999999999995  0.5836899999999999  1.0000
  C   C97       1.0  0.79682  0.44703  0.9662499999999999  1.0000
  C   C98       1.0  0.68075  0.41444999999999993  0.94632  1.0000
  C   C99       1.0  0.68454  0.34454  0.9266499999999999  1.0000
  C   C100      1.0  0.57769  0.31316  0.9066599999999999  1.0000
  C   C101      1.0  0.46492  0.35236  0.9062399999999999  1.0000
  C   C102      1.0  0.45871000000000006  0.4218199999999999  0.92716  1.0000
  C   C103      1.0  0.56643  0.45255999999999996  0.94674  1.0000
  C   C104      1.0  0.36755  0.26019  0.85848  1.0000
  C   C105      1.0  0.23102  0.3172899999999999  0.7946799999999999  1.0000
  C   C106      1.0  0.11354  0.34041  0.72058  1.0000
  C   C107      1.0  0.030710000000000005  0.3100599999999999  0.6864  1.0000
  C   C108      1.0  0.00987  0.3449  0.64243  1.0000
  C   C109      1.0  0.07028  0.4108  0.6317199999999997  1.0000
  C   C110      1.0  0.15154  0.44112  0.66635  1.0000
  C   C111      1.0  0.1738  0.40634  0.71073  1.0000
  C   C112      1.0  0.04761  0.44609  0.58389  1.0000
  C   C113      1.0  0.79682  0.55297  0.53375  1.0000
  C   C114      1.0  0.68075  0.58555  0.55368  1.0000
  C   C115      1.0  0.68454  0.65546  0.57335  1.0000
  C   C116      1.0  0.57769  0.68684  0.59334  1.0000
  C   C117      1.0  0.46491  0.6476399999999999  0.59376  1.0000
  C   C118      1.0  0.45871000000000006  0.5781799999999999  0.57284  1.0000
  C   C119      1.0  0.56643  0.5474399999999999  0.55326  1.0000
  C   C120      1.0  0.36755  0.7398099999999997  0.6415199999999998  1.0000
  C   C121      1.0  0.23102  0.6827099999999999  0.70532  1.0000
  C   C122      1.0  0.11354  0.6595899999999998  0.7794199999999999  1.0000
  C   C123      1.0  0.030710000000000005  0.68994  0.8136  1.0000
  C   C124      1.0  0.00987  0.6551  0.8575699999999998  1.0000
  C   C125      1.0  0.07028  0.5892  0.86828  1.0000
  C   C126      1.0  0.15154  0.55888  0.8336499999999998  1.0000
  C   C127      1.0  0.1738  0.59366  0.78927  1.0000
  C   C128      1.0  0.04761  0.55391  0.9161099999999998  1.0000
  C   C129      1.0  0.74979  0.25009  0.32717999999999997  1.0000
  C   C130      1.0  0.74979  0.74992  0.17282  1.0000
  C   C131      1.0  0.25021  0.74992  0.67282  1.0000
  C   C132      1.0  0.25021  0.25008  0.8271799999999998  1.0000
  O   O1        1.0  0.28778  0.99094  0.48604  1.0000
  O   O2        1.0  0.39880000000000004  0.09065  0.46193  1.0000
  O   O3        1.0  0.8565200000000001  0.17439  0.38579  1.0000
  O   O4        1.0  0.62486  0.19672999999999993  0.26404  1.0000
  O   O5        1.0  0.5944  0.9921199999999999  0.0764  1.0000
  O   O6        1.0  0.48157  0.09113999999999998  0.05284  1.0000
  O   O7        1.0  0.28778  0.00906  0.01396  1.0000
  O   O8        1.0  0.39880000000000004  0.9093499999999998  0.03807  1.0000
  O   O9        1.0  0.8565200000000001  0.8256199999999998  0.11420999999999998  1.0000
  O   O10       1.0  0.62486  0.80327  0.23596  1.0000
  O   O11       1.0  0.5944  0.00788  0.4235999999999999  1.0000
  O   O12       1.0  0.48157  0.90886  0.44716  1.0000
  O   O13       1.0  0.21281  0.49041999999999997  0.013679999999999996  1.0000
  O   O14       1.0  0.10133  0.58958  0.03815  1.0000
  O   O15       1.0  0.6436200000000001  0.6731899999999997  0.11438  1.0000
  O   O16       1.0  0.8721300000000001  0.69879  0.23747  1.0000
  O   O17       1.0  0.90502  0.4908499999999999  0.42338999999999993  1.0000
  O   O18       1.0  0.01839  0.5896599999999999  0.44696999999999987  1.0000
  O   O19       1.0  0.21281  0.5095799999999999  0.48632  1.0000
  O   O20       1.0  0.10133  0.41041999999999995  0.46185  1.0000
  O   O21       1.0  0.6436200000000001  0.32681  0.38562  1.0000
  O   O22       1.0  0.8721300000000001  0.3012099999999999  0.26253  1.0000
  O   O23       1.0  0.90502  0.50915  0.07660999999999997  1.0000
  O   O24       1.0  0.01839  0.41035  0.05302999999999999  1.0000
  O   O25       1.0  0.71222  0.00906  0.51396  1.0000
  O   O26       1.0  0.6012  0.9093499999999998  0.53807  1.0000
  O   O27       1.0  0.14348  0.82561  0.6142099999999999  1.0000
  O   O28       1.0  0.37514  0.80327  0.73596  1.0000
  O   O29       1.0  0.4056  0.00788  0.9235999999999998  1.0000
  O   O30       1.0  0.51843  0.90886  0.94716  1.0000
  O   O31       1.0  0.71222  0.99094  0.98604  1.0000
  O   O32       1.0  0.6012  0.09065  0.96193  1.0000
  O   O33       1.0  0.14348  0.17439  0.88579  1.0000
  O   O34       1.0  0.37514  0.19672999999999993  0.7640399999999999  1.0000
  O   O35       1.0  0.4056  0.9921199999999999  0.5764  1.0000
  O   O36       1.0  0.51843  0.09113999999999998  0.55284  1.0000
  O   O37       1.0  0.78719  0.5095799999999999  0.98632  1.0000
  O   O38       1.0  0.8986700000000001  0.41041999999999995  0.96185  1.0000
  O   O39       1.0  0.35638000000000003  0.32681  0.8856199999999997  1.0000
  O   O40       1.0  0.12787  0.3012099999999999  0.76253  1.0000
  O   O41       1.0  0.09498  0.50915  0.57661  1.0000
  O   O42       1.0  0.9816100000000001  0.4103399999999999  0.55303  1.0000
  O   O43       1.0  0.78719  0.49041999999999997  0.51368  1.0000
  O   O44       1.0  0.8986700000000001  0.58958  0.53815  1.0000
  O   O45       1.0  0.35638000000000003  0.6731899999999997  0.61438  1.0000
  O   O46       1.0  0.12787  0.69879  0.73747  1.0000
  O   O47       1.0  0.09498  0.4908499999999999  0.92339  1.0000
  O   O48       1.0  0.9816100000000001  0.5896599999999999  0.94697  1.0000
