data_image0
_chemical_formula_structural       Co4H68C120N12O24
_chemical_formula_sum              "Co4 H68 C120 N12 O24"
_cell_length_a       10.05304
_cell_length_b       12.49777
_cell_length_c       29.55715
_cell_angle_alpha    90.0
_cell_angle_beta     90.0
_cell_angle_gamma    106.88273

_symmetry_space_group_name_H-M    'P 1'
_symmetry_Int_Tables_number       1

loop_
  _symmetry_equiv_pos_as_xyz
  'x,y,z'

loop_
  _atom_site_type_symbol
  _atom_site_label
  _atom_site_symmetry_multiplicity
  _atom_site_fract_x
  _atom_site_fract_y
  _atom_site_fract_z
  _atom_site_occupancy
  Co  Co1       1.0  0.9628900000000001  0.64264  0.94335  1.0000
  Co  Co2       1.0  0.53711  0.35736000000000007  0.44335000000000013  1.0000
  Co  Co3       1.0  0.03711000000000001  0.35736000000000007  0.05665000000000001  1.0000
  Co  Co4       1.0  0.4628900000000001  0.64264  0.5566500000000001  1.0000
  H   H1        1.0  0.5927200000000001  0.14302000000000004  0.19795000000000004  1.0000
  H   H2        1.0  0.27808000000000005  0.718  0.0494  1.0000
  H   H3        1.0  0.70449  0.70679  0.054750000000000014  1.0000
  H   H4        1.0  0.46845000000000003  0.61966  0.93294  1.0000
  H   H5        1.0  0.67584  0.69181  0.12326000000000002  1.0000
  H   H6        1.0  0.6928500000000001  0.75219  0.20239  1.0000
  H   H7        1.0  0.3474300000000001  0.8865600000000002  0.18305  1.0000
  H   H8        1.0  0.33701000000000003  0.8332500000000002  0.10302000000000003  1.0000
  H   H9        1.0  0.54075  0.67928  0.26211000000000007  1.0000
  H   H10       1.0  0.29674  0.97563  0.3754  1.0000
  H   H11       1.0  0.32355000000000006  0.14791  0.42255  1.0000
  H   H12       1.0  0.71381  0.2992  0.3696600000000001  1.0000
  H   H13       1.0  0.69526  0.14104  0.31563000000000013  1.0000
  H   H14       1.0  0.42278000000000016  0.7190600000000003  0.4101300000000001  1.0000
  H   H15       1.0  0.43528000000000006  0.55641  0.4563200000000001  1.0000
  H   H16       1.0  0.6852100000000001  0.4640600000000001  0.3612700000000001  1.0000
  H   H17       1.0  0.67048  0.61583  0.3089600000000001  1.0000
  H   H18       1.0  0.90728  0.8569800000000001  0.6979500000000002  1.0000
  H   H19       1.0  0.22192000000000006  0.28200000000000003  0.5494  1.0000
  H   H20       1.0  0.79551  0.2932100000000001  0.55475  1.0000
  H   H21       1.0  0.03154999999999999  0.38034  0.4329400000000001  1.0000
  H   H22       1.0  0.8241600000000001  0.30819  0.6232600000000003  1.0000
  H   H23       1.0  0.8071499999999999  0.24781000000000003  0.70239  1.0000
  H   H24       1.0  0.15257000000000004  0.11343000000000003  0.6830500000000002  1.0000
  H   H25       1.0  0.16299000000000002  0.16675  0.60302  1.0000
  H   H26       1.0  0.95925  0.32072000000000006  0.7621100000000002  1.0000
  H   H27       1.0  0.20326  0.02437  0.8754000000000002  1.0000
  H   H28       1.0  0.17645000000000013  0.8520900000000002  0.9225500000000002  1.0000
  H   H29       1.0  0.78619  0.7008  0.8696600000000002  1.0000
  H   H30       1.0  0.8047400000000001  0.85896  0.8156300000000001  1.0000
  H   H31       1.0  0.07722  0.28094  0.9101300000000002  1.0000
  H   H32       1.0  0.06472  0.44359  0.9563200000000002  1.0000
  H   H33       1.0  0.8147900000000001  0.53594  0.86127  1.0000
  H   H34       1.0  0.82952  0.3841700000000001  0.8089600000000002  1.0000
  H   H35       1.0  0.4072800000000001  0.8569800000000001  0.8020400000000002  1.0000
  H   H36       1.0  0.72192  0.28200000000000003  0.9506000000000002  1.0000
  H   H37       1.0  0.29551  0.2932100000000001  0.9452500000000003  1.0000
  H   H38       1.0  0.53155  0.38034  0.06706000000000002  1.0000
  H   H39       1.0  0.32416  0.30819  0.8767400000000002  1.0000
  H   H40       1.0  0.30715000000000003  0.24781000000000003  0.7976100000000003  1.0000
  H   H41       1.0  0.65257  0.11343000000000003  0.81695  1.0000
  H   H42       1.0  0.66299  0.16675  0.8969800000000002  1.0000
  H   H43       1.0  0.45925  0.32072000000000006  0.73789  1.0000
  H   H44       1.0  0.70326  0.02437  0.6246000000000003  1.0000
  H   H45       1.0  0.6764500000000001  0.8520900000000002  0.5774500000000002  1.0000
  H   H46       1.0  0.28619  0.7008  0.6303400000000002  1.0000
  H   H47       1.0  0.30474  0.85896  0.68437  1.0000
  H   H48       1.0  0.57722  0.28094  0.58987  1.0000
  H   H49       1.0  0.56473  0.44359  0.5436800000000003  1.0000
  H   H50       1.0  0.31479  0.53594  0.6387300000000001  1.0000
  H   H51       1.0  0.3295200000000001  0.3841700000000001  0.69104  1.0000
  H   H52       1.0  0.09272000000000001  0.14302000000000004  0.30204  1.0000
  H   H53       1.0  0.77808  0.718  0.4506  1.0000
  H   H54       1.0  0.20449000000000003  0.70679  0.4452500000000001  1.0000
  H   H55       1.0  0.9684500000000001  0.61966  0.56705  1.0000
  H   H56       1.0  0.17584  0.69181  0.37674000000000013  1.0000
  H   H57       1.0  0.19285000000000005  0.75219  0.2976100000000001  1.0000
  H   H58       1.0  0.8474300000000001  0.8865600000000002  0.3169500000000001  1.0000
  H   H59       1.0  0.83701  0.8332500000000002  0.39698  1.0000
  H   H60       1.0  0.04074999999999998  0.67928  0.23789  1.0000
  H   H61       1.0  0.79674  0.97563  0.1246  1.0000
  H   H62       1.0  0.8235500000000001  0.14791  0.07745000000000003  1.0000
  H   H63       1.0  0.21381  0.2992  0.13034  1.0000
  H   H64       1.0  0.19526  0.14104  0.18437000000000006  1.0000
  H   H65       1.0  0.9227800000000002  0.7190600000000003  0.08987  1.0000
  H   H66       1.0  0.93528  0.55641  0.04368  1.0000
  H   H67       1.0  0.18521000000000007  0.4640600000000001  0.13873  1.0000
  H   H68       1.0  0.17048  0.61583  0.19104000000000002  1.0000
  C   C1        1.0  0.23503000000000002  0.66423  0.9607500000000002  1.0000
  C   C2        1.0  0.36146000000000006  0.6703200000000001  0.9886200000000003  1.0000
  C   C3        1.0  0.36963000000000007  0.7034500000000001  0.03406  1.0000
  C   C4        1.0  0.4927100000000001  0.7176900000000003  0.059040000000000016  1.0000
  C   C5        1.0  0.6057400000000001  0.6942500000000001  0.03751  1.0000
  C   C6        1.0  0.5964000000000002  0.6569000000000002  0.99272  1.0000
  C   C7        1.0  0.47447000000000006  0.64587  0.9681000000000002  1.0000
  C   C8        1.0  0.71809  0.63546  0.9699300000000002  1.0000
  C   C9        1.0  0.50409  0.75657  0.10656000000000003  1.0000
  C   C10       1.0  0.60485  0.7360900000000001  0.13575  1.0000
  C   C11       1.0  0.6132000000000001  0.7686300000000001  0.18085  1.0000
  C   C12       1.0  0.5202600000000001  0.8226200000000001  0.19896000000000005  1.0000
  C   C13       1.0  0.42196000000000006  0.8463300000000002  0.16987  1.0000
  C   C14       1.0  0.41478999999999994  0.81427  0.12457000000000003  1.0000
  C   C15       1.0  0.52007  0.8424400000000002  0.24813000000000004  1.0000
  C   C16       1.0  0.5315700000000001  0.7564500000000002  0.2769000000000001  1.0000
  C   C17       1.0  0.52362  0.7669100000000002  0.32381  1.0000
  C   C18       1.0  0.49510999999999994  0.94285  0.31621  1.0000
  C   C19       1.0  0.5036000000000002  0.9399500000000002  0.26858  1.0000
  C   C20       1.0  0.49143  0.0368  0.24065000000000006  1.0000
  C   C21       1.0  0.494  0.04548  0.34145  1.0000
  C   C22       1.0  0.3887300000000001  0.047280000000000016  0.3722  1.0000
  C   C23       1.0  0.40387999999999996  0.14162  0.3989700000000001  1.0000
  C   C24       1.0  0.62046  0.22871  0.3679500000000001  1.0000
  C   C25       1.0  0.61025  0.13969000000000004  0.3387  1.0000
  C   C26       1.0  0.53809  0.67719  0.3541900000000001  1.0000
  C   C27       1.0  0.47751  0.66204  0.39729000000000003  1.0000
  C   C28       1.0  0.48638000000000003  0.57228  0.4236200000000001  1.0000
  C   C29       1.0  0.62356  0.5196100000000001  0.3697900000000001  1.0000
  C   C30       1.0  0.61468  0.60457  0.34093  1.0000
  C   C31       1.0  0.26497  0.33576  0.4607500000000001  1.0000
  C   C32       1.0  0.13854  0.32968  0.48862000000000005  1.0000
  C   C33       1.0  0.13037  0.29655  0.5340600000000001  1.0000
  C   C34       1.0  0.007289999999999998  0.28231  0.5590400000000002  1.0000
  C   C35       1.0  0.89426  0.3057500000000001  0.5375100000000003  1.0000
  C   C36       1.0  0.9035999999999998  0.3431  0.4927200000000001  1.0000
  C   C37       1.0  0.02553000000000003  0.35413000000000006  0.46810000000000007  1.0000
  C   C38       1.0  0.78191  0.36454000000000003  0.4699300000000001  1.0000
  C   C39       1.0  0.9959100000000001  0.24343000000000004  0.60656  1.0000
  C   C40       1.0  0.89515  0.26391  0.63575  1.0000
  C   C41       1.0  0.8867999999999999  0.23136  0.68085  1.0000
  C   C42       1.0  0.9797400000000002  0.17738000000000004  0.6989600000000002  1.0000
  C   C43       1.0  0.07804  0.15366  0.66987  1.0000
  C   C44       1.0  0.08521  0.18572  0.6245700000000001  1.0000
  C   C45       1.0  0.97993  0.15756000000000003  0.74813  1.0000
  C   C46       1.0  0.9684300000000001  0.24354  0.7769  1.0000
  C   C47       1.0  0.97638  0.23308  0.8238100000000003  1.0000
  C   C48       1.0  0.0048899999999999985  0.05714  0.8162100000000002  1.0000
  C   C49       1.0  0.9963999999999998  0.06004  0.7685800000000003  1.0000
  C   C50       1.0  0.008570000000000052  0.9631900000000001  0.74065  1.0000
  C   C51       1.0  0.0059999999999999975  0.95451  0.8414500000000003  1.0000
  C   C52       1.0  0.11127  0.95271  0.8722000000000002  1.0000
  C   C53       1.0  0.09611999999999998  0.85837  0.8989700000000003  1.0000
  C   C54       1.0  0.87954  0.77128  0.8679500000000001  1.0000
  C   C55       1.0  0.88976  0.8603  0.8387000000000002  1.0000
  C   C56       1.0  0.96191  0.32281000000000004  0.85419  1.0000
  C   C57       1.0  0.022480000000000007  0.33796  0.8972900000000003  1.0000
  C   C58       1.0  0.01362000000000002  0.42771  0.92362  1.0000
  C   C59       1.0  0.87644  0.48039  0.8697900000000001  1.0000
  C   C60       1.0  0.88532  0.39543  0.8409300000000002  1.0000
  C   C61       1.0  0.76497  0.33576  0.03924  1.0000
  C   C62       1.0  0.63854  0.32968  0.011380000000000003  1.0000
  C   C63       1.0  0.63037  0.29655  0.9659400000000002  1.0000
  C   C64       1.0  0.50729  0.28231  0.9409600000000002  1.0000
  C   C65       1.0  0.39426  0.3057500000000001  0.9624900000000002  1.0000
  C   C66       1.0  0.40360000000000007  0.3431  0.007280000000000002  1.0000
  C   C67       1.0  0.52553  0.35413000000000006  0.0319  1.0000
  C   C68       1.0  0.28191  0.36454000000000003  0.030070000000000006  1.0000
  C   C69       1.0  0.49591  0.24343000000000004  0.8934400000000002  1.0000
  C   C70       1.0  0.3951500000000001  0.26391  0.8642500000000002  1.0000
  C   C71       1.0  0.3868  0.23136  0.8191500000000003  1.0000
  C   C72       1.0  0.47973999999999994  0.17738000000000004  0.80104  1.0000
  C   C73       1.0  0.57804  0.15366  0.8301300000000003  1.0000
  C   C74       1.0  0.58521  0.18572  0.87543  1.0000
  C   C75       1.0  0.47993  0.15756000000000003  0.7518700000000003  1.0000
  C   C76       1.0  0.46843  0.24354  0.7231000000000002  1.0000
  C   C77       1.0  0.4763800000000001  0.23308  0.67618  1.0000
  C   C78       1.0  0.50489  0.05714  0.68378  1.0000
  C   C79       1.0  0.49639999999999995  0.06004  0.73142  1.0000
  C   C80       1.0  0.50857  0.9631900000000001  0.7593500000000002  1.0000
  C   C81       1.0  0.506  0.95451  0.65855  1.0000
  C   C82       1.0  0.61127  0.95271  0.6278  1.0000
  C   C83       1.0  0.59612  0.85837  0.60103  1.0000
  C   C84       1.0  0.37954  0.77128  0.63205  1.0000
  C   C85       1.0  0.38976  0.8603  0.6613000000000002  1.0000
  C   C86       1.0  0.46191000000000004  0.32281000000000004  0.6458100000000001  1.0000
  C   C87       1.0  0.52249  0.33796  0.60271  1.0000
  C   C88       1.0  0.51362  0.42771  0.5763800000000001  1.0000
  C   C89       1.0  0.37644  0.48039  0.63021  1.0000
  C   C90       1.0  0.38532000000000005  0.39543  0.65907  1.0000
  C   C91       1.0  0.73503  0.66423  0.53924  1.0000
  C   C92       1.0  0.86146  0.6703200000000001  0.5113800000000001  1.0000
  C   C93       1.0  0.86963  0.7034500000000001  0.46594  1.0000
  C   C94       1.0  0.9927099999999999  0.7176900000000003  0.44096  1.0000
  C   C95       1.0  0.10574000000000008  0.6942500000000001  0.4624900000000001  1.0000
  C   C96       1.0  0.09640000000000004  0.6569000000000002  0.50728  1.0000
  C   C97       1.0  0.9744699999999998  0.64587  0.5319  1.0000
  C   C98       1.0  0.21808999999999998  0.63546  0.53007  1.0000
  C   C99       1.0  0.004090000000000013  0.75657  0.39344  1.0000
  C   C100      1.0  0.10485  0.7360900000000001  0.36425  1.0000
  C   C101      1.0  0.11320000000000001  0.7686300000000001  0.31915  1.0000
  C   C102      1.0  0.02026000000000004  0.8226200000000001  0.30104000000000003  1.0000
  C   C103      1.0  0.9219600000000002  0.8463300000000002  0.3301300000000001  1.0000
  C   C104      1.0  0.91479  0.81427  0.3754300000000001  1.0000
  C   C105      1.0  0.020070000000000098  0.8424400000000002  0.25187  1.0000
  C   C106      1.0  0.0315700000000001  0.7564500000000002  0.22310000000000005  1.0000
  C   C107      1.0  0.023620000000000065  0.7669100000000002  0.17619  1.0000
  C   C108      1.0  0.99511  0.94285  0.18378000000000005  1.0000
  C   C109      1.0  0.003600000000000078  0.9399500000000002  0.23142000000000004  1.0000
  C   C110      1.0  0.99143  0.0368  0.25935000000000014  1.0000
  C   C111      1.0  0.9939999999999999  0.04548  0.15855000000000005  1.0000
  C   C112      1.0  0.8887300000000001  0.047280000000000016  0.1278  1.0000
  C   C113      1.0  0.9038800000000001  0.14162  0.10103  1.0000
  C   C114      1.0  0.12046  0.22871  0.13205000000000006  1.0000
  C   C115      1.0  0.11024000000000002  0.13969000000000004  0.16130000000000005  1.0000
  C   C116      1.0  0.038089999999999985  0.67719  0.14581  1.0000
  C   C117      1.0  0.97752  0.66204  0.10271000000000002  1.0000
  C   C118      1.0  0.98638  0.57228  0.07638  1.0000
  C   C119      1.0  0.12356000000000006  0.5196100000000001  0.13021  1.0000
  C   C120      1.0  0.11468  0.60457  0.15907000000000004  1.0000
  N   N1        1.0  0.5018900000000001  0.8581000000000002  0.34320000000000006  1.0000
  N   N2        1.0  0.51942  0.23076000000000002  0.3979800000000001  1.0000
  N   N3        1.0  0.55707  0.50092  0.4100700000000001  1.0000
  N   N4        1.0  0.99811  0.1419  0.8432000000000002  1.0000
  N   N5        1.0  0.98058  0.76924  0.8979800000000002  1.0000
  N   N6        1.0  0.94293  0.49908  0.91007  1.0000
  N   N7        1.0  0.49811  0.1419  0.6568  1.0000
  N   N8        1.0  0.48058  0.76924  0.6020200000000002  1.0000
  N   N9        1.0  0.44293  0.49908  0.5899300000000002  1.0000
  N   N10       1.0  0.0018900000000000464  0.8581000000000002  0.15680000000000005  1.0000
  N   N11       1.0  0.019420000000000007  0.23076000000000002  0.10202000000000003  1.0000
  N   N12       1.0  0.05707  0.50092  0.08993000000000001  1.0000
  O   O1        1.0  0.12344999999999996  0.66399  0.98356  1.0000
  O   O2        1.0  0.23954  0.6614  0.9184700000000002  1.0000
  O   O3        1.0  0.8322600000000001  0.65129  0.9929600000000002  1.0000
  O   O4        1.0  0.71252  0.60697  0.9288600000000001  1.0000
  O   O5        1.0  0.3872499999999999  0.06822  0.23864000000000002  1.0000
  O   O6        1.0  0.61033  0.08495  0.21733000000000005  1.0000
  O   O7        1.0  0.37655000000000005  0.33601  0.4835600000000001  1.0000
  O   O8        1.0  0.26046  0.33860000000000007  0.41847  1.0000
  O   O9        1.0  0.66775  0.3487  0.49296  1.0000
  O   O10       1.0  0.78748  0.39303  0.42886000000000013  1.0000
  O   O11       1.0  0.11275000000000003  0.93178  0.73864  1.0000
  O   O12       1.0  0.88967  0.91505  0.71733  1.0000
  O   O13       1.0  0.87655  0.33601  0.01644  1.0000
  O   O14       1.0  0.7604700000000001  0.33860000000000007  0.08153000000000003  1.0000
  O   O15       1.0  0.16774  0.3487  0.007040000000000002  1.0000
  O   O16       1.0  0.28748  0.39303  0.07113000000000001  1.0000
  O   O17       1.0  0.61276  0.93178  0.7613600000000003  1.0000
  O   O18       1.0  0.38967  0.91505  0.7826700000000002  1.0000
  O   O19       1.0  0.62345  0.66399  0.51644  1.0000
  O   O20       1.0  0.73954  0.6614  0.5815300000000002  1.0000
  O   O21       1.0  0.33225  0.65129  0.5070400000000002  1.0000
  O   O22       1.0  0.21252  0.60697  0.57113  1.0000
  O   O23       1.0  0.88725  0.06822  0.26136000000000004  1.0000
  O   O24       1.0  0.11033  0.08495  0.2826700000000001  1.0000
