data_image0
_chemical_formula_structural       Cd8H128C160N8O36
_chemical_formula_sum              "Cd8 H128 C160 N8 O36"
_cell_length_a       9.2929
_cell_length_b       17.374639999999996
_cell_length_c       35.64246
_cell_angle_alpha    89.89675000000001
_cell_angle_beta     90.05493
_cell_angle_gamma    99.38476999999999

_symmetry_space_group_name_H-M    'P 1'
_symmetry_Int_Tables_number       1

loop_
  _symmetry_equiv_pos_as_xyz
  'x,y,z'

loop_
  _atom_site_type_symbol
  _atom_site_label
  _atom_site_symmetry_multiplicity
  _atom_site_fract_x
  _atom_site_fract_y
  _atom_site_fract_z
  _atom_site_occupancy
  Cd  Cd1       1.0  0.39877999999999997  0.9898699999999999  0.17238  1.0000
  Cd  Cd2       1.0  0.09319  0.061059999999999996  0.17839  1.0000
  Cd  Cd3       1.0  0.10022999999999996  0.5109399999999997  0.67256  1.0000
  Cd  Cd4       1.0  0.40492  0.43786  0.67903  1.0000
  Cd  Cd5       1.0  0.60122  0.01013  0.82761  1.0000
  Cd  Cd6       1.0  0.9068199999999998  0.93894  0.82161  1.0000
  Cd  Cd7       1.0  0.8997799999999999  0.48906  0.32744  1.0000
  Cd  Cd8       1.0  0.59508  0.56214  0.32097  1.0000
  H   H1        1.0  0.5589300000000001  0.34342  0.9344399999999999  1.0000
  H   H2        1.0  0.6793  0.37365  0.89716  1.0000
  H   H3        1.0  0.52205  0.418  0.9036200000000001  1.0000
  H   H4        1.0  0.50065  0.431  0.02267  1.0000
  H   H5        1.0  0.46184  0.38088  0.9798599999999998  1.0000
  H   H6        1.0  0.68436  0.45165  0.057859999999999995  1.0000
  H   H7        1.0  0.6833200000000001  0.5539  0.05659  1.0000
  H   H8        1.0  0.84831  0.51869  0.06248  1.0000
  H   H9        1.0  0.019749999999999934  0.5870599999999998  0.03686  1.0000
  H   H10       1.0  0.05963  0.65479  0.99958  1.0000
  H   H11       1.0  0.03789999999999994  0.6166099999999998  0.90416  1.0000
  H   H12       1.0  0.12286000000000004  0.62531  0.9483  1.0000
  H   H13       1.0  0.99104  0.68439  0.9371400000000001  1.0000
  H   H14       1.0  0.73361  0.49065999999999993  0.87001  1.0000
  H   H15       1.0  0.88733  0.5649  0.87491  1.0000
  H   H16       1.0  0.69951  0.22683  0.05075  1.0000
  H   H17       1.0  0.55844  0.13706  0.09785  1.0000
  H   H18       1.0  0.18865  0.25274  0.08222  1.0000
  H   H19       1.0  0.32282  0.33871  0.03369  1.0000
  H   H20       1.0  0.7443  0.75996  0.06949  1.0000
  H   H21       1.0  0.8549900000000002  0.85862  0.11732  1.0000
  H   H22       1.0  0.272  0.78983  0.10062  1.0000
  H   H23       1.0  0.16746  0.69363  0.0526  1.0000
  H   H24       1.0  0.09535  0.35063  0.86632  1.0000
  H   H25       1.0  0.23375  0.33987  0.8066  1.0000
  H   H26       1.0  0.049489999999999944  0.5300299999999998  0.7598  1.0000
  H   H27       1.0  0.90583  0.53834  0.81743  1.0000
  H   H28       1.0  0.74853  0.9561199999999999  0.18115  1.0000
  H   H29       1.0  0.0068199999999999875  0.23230999999999993  0.18079  1.0000
  H   H30       1.0  0.85984  0.34136  0.18221  1.0000
  H   H31       1.0  0.59111  0.31379  0.18511  1.0000
  H   H32       1.0  0.45648  0.17791  0.18658  1.0000
  H   H33       1.0  0.9402300000000001  0.15691  0.43407  1.0000
  H   H34       1.0  0.82032  0.1266  0.3967  1.0000
  H   H35       1.0  0.97815  0.08273999999999997  0.40327  1.0000
  H   H36       1.0  0.99927  0.06914  0.52246  1.0000
  H   H37       1.0  0.03895  0.11826999999999999  0.47945  1.0000
  H   H38       1.0  0.8161  0.04795  0.55735  1.0000
  H   H39       1.0  0.8147  0.94546  0.55627  1.0000
  H   H40       1.0  0.65081  0.98185  0.56193  1.0000
  H   H41       1.0  0.48019  0.91293  0.53645  1.0000
  H   H42       1.0  0.43902  0.84571  0.49914000000000003  1.0000
  H   H43       1.0  0.46215000000000006  0.8834999999999997  0.40356  1.0000
  H   H44       1.0  0.37704  0.8747899999999997  0.44763  1.0000
  H   H45       1.0  0.5088999999999999  0.8157199999999999  0.43667  1.0000
  H   H46       1.0  0.76685  0.0097  0.36961  1.0000
  H   H47       1.0  0.61319  0.9352599999999999  0.3744  1.0000
  H   H48       1.0  0.79869  0.27289  0.54907  1.0000
  H   H49       1.0  0.93471  0.36159999999999987  0.59726  1.0000
  H   H50       1.0  0.30745  0.24779  0.58322  1.0000
  H   H51       1.0  0.1776  0.1623  0.53386  1.0000
  H   H52       1.0  0.75793  0.7407499999999999  0.56868  1.0000
  H   H53       1.0  0.65168  0.64193  0.61682  1.0000
  H   H54       1.0  0.23208  0.7094299999999999  0.60129  1.0000
  H   H55       1.0  0.33329  0.8056  0.55294  1.0000
  H   H56       1.0  0.40605  0.14987  0.36558  1.0000
  H   H57       1.0  0.2676  0.16111  0.30591  1.0000
  H   H58       1.0  0.44997  0.97038  0.25935  1.0000
  H   H59       1.0  0.59389  0.9618799999999998  0.31696  1.0000
  H   H60       1.0  0.74898  0.5436  0.68104  1.0000
  H   H61       1.0  0.49290000000000006  0.26743  0.68055  1.0000
  H   H62       1.0  0.6402599999999999  0.15842999999999993  0.68203  1.0000
  H   H63       1.0  0.9089699999999998  0.18632  0.6852  1.0000
  H   H64       1.0  0.04301999999999998  0.32204999999999995  0.68681  1.0000
  H   H65       1.0  0.4410800000000001  0.65658  0.06556  1.0000
  H   H66       1.0  0.32071  0.6263499999999997  0.10283  1.0000
  H   H67       1.0  0.47795  0.582  0.09637  1.0000
  H   H68       1.0  0.4993600000000001  0.569  0.9773299999999999  1.0000
  H   H69       1.0  0.53817  0.61912  0.02014  1.0000
  H   H70       1.0  0.31564  0.54834  0.9421399999999999  1.0000
  H   H71       1.0  0.31668  0.4461  0.94341  1.0000
  H   H72       1.0  0.15168999999999996  0.48130999999999996  0.9375100000000001  1.0000
  H   H73       1.0  0.98025  0.4129399999999999  0.96314  1.0000
  H   H74       1.0  0.94038  0.34521  0.00042  1.0000
  H   H75       1.0  0.96211  0.38339  0.09584  1.0000
  H   H76       1.0  0.8771499999999999  0.37469  0.0517  1.0000
  H   H77       1.0  0.008969999999999994  0.31561  0.06286  1.0000
  H   H78       1.0  0.2664  0.50934  0.12999  1.0000
  H   H79       1.0  0.11268000000000002  0.4351  0.12508  1.0000
  H   H80       1.0  0.30049  0.77317  0.9492500000000001  1.0000
  H   H81       1.0  0.4415700000000001  0.86294  0.90215  1.0000
  H   H82       1.0  0.8113599999999999  0.7472599999999998  0.91778  1.0000
  H   H83       1.0  0.67719  0.66129  0.96631  1.0000
  H   H84       1.0  0.25571  0.24004  0.9305100000000001  1.0000
  H   H85       1.0  0.14502  0.14136999999999994  0.88267  1.0000
  H   H86       1.0  0.728  0.21016999999999994  0.89938  1.0000
  H   H87       1.0  0.83255  0.30636  0.9474000000000001  1.0000
  H   H88       1.0  0.90465  0.6493699999999998  0.13368  1.0000
  H   H89       1.0  0.76626  0.66012  0.1934  1.0000
  H   H90       1.0  0.95052  0.46997  0.24019000000000001  1.0000
  H   H91       1.0  0.09417  0.46166  0.18256  1.0000
  H   H92       1.0  0.25148  0.04388  0.81885  1.0000
  H   H93       1.0  0.99319  0.7676899999999998  0.81921  1.0000
  H   H94       1.0  0.14017000000000002  0.65863  0.81779  1.0000
  H   H95       1.0  0.40889  0.68621  0.81489  1.0000
  H   H96       1.0  0.54353  0.82209  0.81342  1.0000
  H   H97       1.0  0.05977999999999991  0.8430899999999998  0.56592  1.0000
  H   H98       1.0  0.17968000000000006  0.8734  0.60329  1.0000
  H   H99       1.0  0.021860000000000015  0.91726  0.59672  1.0000
  H   H100      1.0  0.0007400000000000108  0.93086  0.47754  1.0000
  H   H101      1.0  0.9610600000000001  0.88173  0.52054  1.0000
  H   H102      1.0  0.18390999999999993  0.9520499999999998  0.44265  1.0000
  H   H103      1.0  0.18531  0.054539999999999984  0.44373  1.0000
  H   H104      1.0  0.3492  0.01815  0.43807  1.0000
  H   H105      1.0  0.51982  0.08706999999999997  0.46355  1.0000
  H   H106      1.0  0.56099  0.15429  0.50086  1.0000
  H   H107      1.0  0.53785  0.11649999999999999  0.59643  1.0000
  H   H108      1.0  0.62296  0.12521  0.55237  1.0000
  H   H109      1.0  0.4911  0.18428  0.56333  1.0000
  H   H110      1.0  0.23316000000000003  0.9903  0.63039  1.0000
  H   H111      1.0  0.38682  0.06474  0.6256  1.0000
  H   H112      1.0  0.20132  0.72711  0.45093  1.0000
  H   H113      1.0  0.06529999999999994  0.6383899999999998  0.40274  1.0000
  H   H114      1.0  0.6925499999999999  0.75221  0.41677  1.0000
  H   H115      1.0  0.8223999999999999  0.8376999999999999  0.46613  1.0000
  H   H116      1.0  0.24207000000000004  0.25925  0.43132  1.0000
  H   H117      1.0  0.34832  0.35807  0.38318  1.0000
  H   H118      1.0  0.76792  0.2905699999999999  0.3987  1.0000
  H   H119      1.0  0.66671  0.1944  0.44706  1.0000
  H   H120      1.0  0.59395  0.8501299999999998  0.63442  1.0000
  H   H121      1.0  0.73241  0.83889  0.69409  1.0000
  H   H122      1.0  0.55003  0.029620000000000004  0.74065  1.0000
  H   H123      1.0  0.40611  0.03812  0.68303  1.0000
  H   H124      1.0  0.25103  0.4564  0.31896  1.0000
  H   H125      1.0  0.50711  0.73257  0.31945  1.0000
  H   H126      1.0  0.35974  0.84157  0.31797  1.0000
  H   H127      1.0  0.09103000000000004  0.81368  0.3148  1.0000
  H   H128      1.0  0.95698  0.67795  0.31319  1.0000
  C   C1        1.0  0.6731200000000002  0.45616  0.98225  1.0000
  C   C2        1.0  0.7643599999999999  0.5085599999999998  0.00566  1.0000
  C   C3        1.0  0.87609  0.5628899999999998  0.98942  1.0000
  C   C4        1.0  0.8988900000000001  0.5650799999999998  0.95024  1.0000
  C   C5        1.0  0.80912  0.51089  0.9274  1.0000
  C   C6        1.0  0.698  0.4551899999999999  0.94333  1.0000
  C   C7        1.0  0.60965  0.39454  0.91842  1.0000
  C   C8        1.0  0.54942  0.4015699999999998  0.99987  1.0000
  C   C9        1.0  0.7431699999999999  0.50747  0.04771  1.0000
  C   C10       1.0  0.9707  0.61882  0.01477  1.0000
  C   C11       1.0  0.018370000000000004  0.62548  0.9339500000000001  1.0000
  C   C12       1.0  0.83527  0.50814  0.8858  1.0000
  C   C13       1.0  0.52118  0.28862  0.03995  1.0000
  C   C14       1.0  0.58718  0.23105  0.05768  1.0000
  C   C15       1.0  0.50857  0.18149  0.08364  1.0000
  C   C16       1.0  0.36448000000000014  0.18943  0.09283  1.0000
  C   C17       1.0  0.30013  0.2471  0.07494  1.0000
  C   C18       1.0  0.3764399999999999  0.29609  0.04807  1.0000
  C   C19       1.0  0.28426  0.13781999999999994  0.12165000000000001  1.0000
  C   C20       1.0  0.9482900000000001  0.72067  0.05825  1.0000
  C   C21       1.0  0.8593999999999999  0.76694  0.07673  1.0000
  C   C22       1.0  0.92065  0.82116  0.10317  1.0000
  C   C23       1.0  0.06972  0.82967  0.11203  1.0000
  C   C24       1.0  0.15668  0.78256  0.09376  1.0000
  C   C25       1.0  0.09737  0.72848  0.06683  1.0000
  C   C26       1.0  0.13595  0.89117  0.13868  1.0000
  C   C27       1.0  0.99584  0.44651  0.84602  1.0000
  C   C28       1.0  0.08657  0.38931  0.84267  1.0000
  C   C29       1.0  0.16273  0.3834799999999999  0.80959  1.0000
  C   C30       1.0  0.15205  0.4348699999999999  0.77943  1.0000
  C   C31       1.0  0.05898999999999999  0.4903799999999999  0.78297  1.0000
  C   C32       1.0  0.9791999999999998  0.4958099999999999  0.81568  1.0000
  C   C33       1.0  0.23955  0.43073  0.74499  1.0000
  C   C34       1.0  0.74332  0.01809  0.18215  1.0000
  C   C35       1.0  0.8119  0.14429  0.1829  1.0000
  C   C36       1.0  0.8881600000000001  0.22086  0.1822  1.0000
  C   C37       1.0  0.80543  0.28092  0.18278  1.0000
  C   C38       1.0  0.6514700000000001  0.2652  0.18441  1.0000
  C   C39       1.0  0.57502  0.18916  0.18509  1.0000
  C   C40       1.0  0.65741  0.12839  0.18386  1.0000
  C   C41       1.0  0.82694  0.04375  0.48182  1.0000
  C   C42       1.0  0.73526  0.9914  0.5052  1.0000
  C   C43       1.0  0.62337  0.93721  0.48893999999999993  1.0000
  C   C44       1.0  0.60098  0.9349999999999999  0.44974  1.0000
  C   C45       1.0  0.69109  0.9891699999999999  0.42692  1.0000
  C   C46       1.0  0.80213  0.04481  0.44287  1.0000
  C   C47       1.0  0.89017  0.10579  0.41801  1.0000
  C   C48       1.0  0.95089  0.0983  0.4994100000000001  1.0000
  C   C49       1.0  0.75615  0.9924  0.54726  1.0000
  C   C50       1.0  0.52856  0.8812499999999999  0.51429  1.0000
  C   C51       1.0  0.48162  0.87465  0.43338  1.0000
  C   C52       1.0  0.6651  0.99199  0.38529  1.0000
  C   C53       1.0  0.97804  0.21151  0.53929  1.0000
  C   C54       1.0  0.9102699999999999  0.26855  0.55675  1.0000
  C   C55       1.0  0.98599  0.31753999999999993  0.58332  1.0000
  C   C56       1.0  0.12955  0.3098  0.59328  1.0000
  C   C57       1.0  0.19601999999999997  0.2529  0.57554  1.0000
  C   C58       1.0  0.12237  0.2043  0.54815  1.0000
  C   C59       1.0  0.20751  0.36155999999999994  0.62237  1.0000
  C   C60       1.0  0.55305  0.7792099999999997  0.55791  1.0000
  C   C61       1.0  0.64319  0.7332799999999999  0.57627  1.0000
  C   C62       1.0  0.5839199999999999  0.6788299999999998  0.60297  1.0000
  C   C63       1.0  0.43504999999999994  0.6699099999999998  0.61234  1.0000
  C   C64       1.0  0.34715999999999997  0.71684  0.59416  1.0000
  C   C65       1.0  0.40448000000000006  0.77099  0.56701  1.0000
  C   C66       1.0  0.36887  0.60862  0.63934  1.0000
  C   C67       1.0  0.50472  0.05383  0.34539  1.0000
  C   C68       1.0  0.41437  0.11122999999999997  0.34196  1.0000
  C   C69       1.0  0.33807  0.11722  0.30889  1.0000
  C   C70       1.0  0.34783  0.06577  0.27882  1.0000
  C   C71       1.0  0.44073  0.0101  0.28242  1.0000
  C   C72       1.0  0.52077  0.0045499999999999985  0.31511  1.0000
  C   C73       1.0  0.25973  0.06993  0.24444  1.0000
  C   C74       1.0  0.7548099999999999  0.48169999999999996  0.68211  1.0000
  C   C75       1.0  0.68752  0.35545  0.68273  1.0000
  C   C76       1.0  0.61155  0.27885999999999994  0.68198  1.0000
  C   C77       1.0  0.6944699999999999  0.21889  0.68265  1.0000
  C   C78       1.0  0.84839  0.23483999999999997  0.68443  1.0000
  C   C79       1.0  0.9245  0.31093  0.68523  1.0000
  C   C80       1.0  0.84199  0.3717  0.68391  1.0000
  C   C81       1.0  0.32689  0.54384  0.01775  1.0000
  C   C82       1.0  0.23563999999999996  0.49144  0.99434  1.0000
  C   C83       1.0  0.12392000000000002  0.43711  0.01057  1.0000
  C   C84       1.0  0.10112  0.43491999999999986  0.04975  1.0000
  C   C85       1.0  0.19088000000000002  0.48911000000000004  0.0726  1.0000
  C   C86       1.0  0.30201  0.5448  0.05666999999999999  1.0000
  C   C87       1.0  0.39036  0.60546  0.08158  1.0000
  C   C88       1.0  0.45059000000000005  0.59843  0.00013  1.0000
  C   C89       1.0  0.25684  0.49252  0.95228  1.0000
  C   C90       1.0  0.029310000000000003  0.38118  0.98523  1.0000
  C   C91       1.0  0.9816300000000001  0.3745199999999999  0.06605  1.0000
  C   C92       1.0  0.16473000000000002  0.49186  0.1142  1.0000
  C   C93       1.0  0.47881999999999997  0.7113799999999998  0.9600499999999998  1.0000
  C   C94       1.0  0.41283  0.7689499999999999  0.94232  1.0000
  C   C95       1.0  0.49143999999999993  0.8185099999999997  0.9163600000000001  1.0000
  C   C96       1.0  0.63552  0.81056  0.90717  1.0000
  C   C97       1.0  0.69987  0.7529  0.92506  1.0000
  C   C98       1.0  0.62357  0.70391  0.95193  1.0000
  C   C99       1.0  0.7157499999999998  0.86218  0.87835  1.0000
  C   C100      1.0  0.05171999999999999  0.27932999999999997  0.94175  1.0000
  C   C101      1.0  0.1406  0.23305999999999996  0.92327  1.0000
  C   C102      1.0  0.07935  0.17884  0.89683  1.0000
  C   C103      1.0  0.93028  0.17032999999999995  0.88797  1.0000
  C   C104      1.0  0.84333  0.21744  0.9062400000000002  1.0000
  C   C105      1.0  0.90264  0.27152  0.9331599999999999  1.0000
  C   C106      1.0  0.8640500000000001  0.10883  0.86132  1.0000
  C   C107      1.0  0.004160000000000007  0.55349  0.15398  1.0000
  C   C108      1.0  0.9134400000000001  0.6106899999999997  0.15733  1.0000
  C   C109      1.0  0.83727  0.61652  0.19041  1.0000
  C   C110      1.0  0.84796  0.56513  0.22057  1.0000
  C   C111      1.0  0.94102  0.50962  0.21703  1.0000
  C   C112      1.0  0.02080000000000001  0.50419  0.18432  1.0000
  C   C113      1.0  0.76046  0.56927  0.25501  1.0000
  C   C114      1.0  0.25669  0.9819099999999998  0.81785  1.0000
  C   C115      1.0  0.18810000000000002  0.85571  0.81709  1.0000
  C   C116      1.0  0.11184000000000005  0.77914  0.8178  1.0000
  C   C117      1.0  0.1945699999999999  0.7190799999999999  0.81721  1.0000
  C   C118      1.0  0.34853  0.7348  0.81559  1.0000
  C   C119      1.0  0.42498  0.8108399999999998  0.8149000000000001  1.0000
  C   C120      1.0  0.3426  0.8716099999999999  0.81613  1.0000
  C   C121      1.0  0.17306  0.95624  0.51818  1.0000
  C   C122      1.0  0.26475  0.0086  0.49479999999999996  1.0000
  C   C123      1.0  0.37664  0.06277999999999997  0.51106  1.0000
  C   C124      1.0  0.39902  0.065  0.55026  1.0000
  C   C125      1.0  0.30892  0.01083  0.57308  1.0000
  C   C126      1.0  0.19788  0.95519  0.55712  1.0000
  C   C127      1.0  0.10983  0.8942099999999998  0.58198  1.0000
  C   C128      1.0  0.04912000000000001  0.9017  0.50059  1.0000
  C   C129      1.0  0.24386000000000002  0.0076  0.45273  1.0000
  C   C130      1.0  0.4714400000000001  0.11874999999999998  0.48571000000000003  1.0000
  C   C131      1.0  0.51839  0.12534999999999993  0.56661  1.0000
  C   C132      1.0  0.3349  0.00801  0.61471  1.0000
  C   C133      1.0  0.021959999999999986  0.78849  0.46071  1.0000
  C   C134      1.0  0.08973999999999999  0.73145  0.44325  1.0000
  C   C135      1.0  0.014019999999999935  0.6824599999999997  0.41667  1.0000
  C   C136      1.0  0.87046  0.6902  0.40671  1.0000
  C   C137      1.0  0.80398  0.7471  0.42446  1.0000
  C   C138      1.0  0.87763  0.7956999999999999  0.45185000000000003  1.0000
  C   C139      1.0  0.79249  0.63843  0.37763  1.0000
  C   C140      1.0  0.44695  0.22079  0.44209  1.0000
  C   C141      1.0  0.3568200000000001  0.26672000000000007  0.42373  1.0000
  C   C142      1.0  0.41609  0.32116999999999996  0.39702  1.0000
  C   C143      1.0  0.56495  0.33009  0.38766  1.0000
  C   C144      1.0  0.65285  0.2831599999999999  0.40584  1.0000
  C   C145      1.0  0.59553  0.22901  0.43299  1.0000
  C   C146      1.0  0.6311299999999999  0.39138  0.36066  1.0000
  C   C147      1.0  0.49528999999999995  0.9461599999999999  0.65461  1.0000
  C   C148      1.0  0.58564  0.88877  0.65803  1.0000
  C   C149      1.0  0.66193  0.8827799999999998  0.6911  1.0000
  C   C150      1.0  0.65218  0.9342299999999999  0.72117  1.0000
  C   C151      1.0  0.55928  0.9899  0.71757  1.0000
  C   C152      1.0  0.47923  0.9954499999999998  0.68488  1.0000
  C   C153      1.0  0.7402799999999999  0.9300699999999997  0.75556  1.0000
  C   C154      1.0  0.2452  0.5183  0.31789  1.0000
  C   C155      1.0  0.31249  0.64455  0.31727  1.0000
  C   C156      1.0  0.38844999999999996  0.7211399999999998  0.31802  1.0000
  C   C157      1.0  0.30553  0.78111  0.31735  1.0000
  C   C158      1.0  0.15162  0.76516  0.31557  1.0000
  C   C159      1.0  0.07550000000000001  0.68907  0.31477  1.0000
  C   C160      1.0  0.15801000000000004  0.6283  0.31609  1.0000
  N   N1        1.0  0.61676  0.04729  0.1833  1.0000
  N   N2        1.0  0.8624300000000001  0.07316  0.18222  1.0000
  N   N3        1.0  0.88182  0.45294  0.68348  1.0000
  N   N4        1.0  0.63616  0.4263099999999999  0.68196  1.0000
  N   N5        1.0  0.38324  0.9527100000000001  0.8167  1.0000
  N   N6        1.0  0.13758000000000006  0.92684  0.81778  1.0000
  N   N7        1.0  0.11818  0.54706  0.31652  1.0000
  N   N8        1.0  0.36385  0.5736899999999999  0.31803  1.0000
  O   O1        1.0  0.33108  0.07436  0.12958  1.0000
  O   O2        1.0  0.17262999999999998  0.1585  0.13741  1.0000
  O   O3        1.0  0.60814  0.33547999999999994  0.015030000000000002  1.0000
  O   O4        1.0  0.05735999999999996  0.9391499999999999  0.15064  1.0000
  O   O5        1.0  0.27171  0.89032  0.14685  1.0000
  O   O6        1.0  0.87988  0.6695899999999998  0.03217  1.0000
  O   O7        1.0  0.24816  0.48883  0.72089  1.0000
  O   O8        1.0  0.30799  0.37512  0.73904  1.0000
  O   O9        1.0  0.93028  0.4502599999999999  0.8802  1.0000
  O   O10       1.0  0.15725  0.42385  0.63039  1.0000
  O   O11       1.0  0.32029  0.34171  0.6381  1.0000
  O   O12       1.0  0.8927500000000002  0.16508  0.51392  1.0000
  O   O13       1.0  0.44703  0.5605  0.65149  1.0000
  O   O14       1.0  0.23343  0.60985  0.64762  1.0000
  O   O15       1.0  0.6196799999999999  0.8301099999999998  0.53145  1.0000
  O   O16       1.0  0.25024  0.01126  0.22072  1.0000
  O   O17       1.0  0.19206  0.12568  0.23817  1.0000
  O   O18       1.0  0.57028  0.04994  0.37957  1.0000
  O   O19       1.0  0.6689199999999998  0.9256399999999999  0.87042  1.0000
  O   O20       1.0  0.82737  0.8415  0.86259  1.0000
  O   O21       1.0  0.39186999999999994  0.6645199999999998  0.9849700000000001  1.0000
  O   O22       1.0  0.9426400000000001  0.060849999999999994  0.84936  1.0000
  O   O23       1.0  0.7283  0.10968  0.85315  1.0000
  O   O24       1.0  0.12012000000000002  0.33041  0.9678300000000001  1.0000
  O   O25       1.0  0.75185  0.51117  0.27911  1.0000
  O   O26       1.0  0.6920100000000001  0.62488  0.26096  1.0000
  O   O27       1.0  0.06971999999999995  0.5497399999999999  0.11979  1.0000
  O   O28       1.0  0.84275  0.57615  0.36961  1.0000
  O   O29       1.0  0.67971  0.6582899999999998  0.3619  1.0000
  O   O30       1.0  0.10726000000000004  0.83492  0.48607999999999996  1.0000
  O   O31       1.0  0.55298  0.4395  0.3485  1.0000
  O   O32       1.0  0.76658  0.39015  0.35238  1.0000
  O   O33       1.0  0.38033  0.16988999999999996  0.46855  1.0000
  O   O34       1.0  0.7497599999999999  0.9887399999999998  0.77927  1.0000
  O   O35       1.0  0.8079499999999998  0.8743099999999999  0.76183  1.0000
  O   O36       1.0  0.42973  0.9500599999999999  0.62043  1.0000
