data_image0
_chemical_formula_structural       Ag16H64C136O32F48
_chemical_formula_sum              "Ag16 H64 C136 O32 F48"
_cell_length_a       6.71983
_cell_length_b       31.30174
_cell_length_c       31.35577
_cell_angle_alpha    89.98079
_cell_angle_beta     90.0
_cell_angle_gamma    90.0

_symmetry_space_group_name_H-M    'P 1'
_symmetry_Int_Tables_number       1

loop_
  _symmetry_equiv_pos_as_xyz
  'x,y,z'

loop_
  _atom_site_type_symbol
  _atom_site_label
  _atom_site_symmetry_multiplicity
  _atom_site_fract_x
  _atom_site_fract_y
  _atom_site_fract_z
  _atom_site_occupancy
  Ag  Ag1       1.0  0.01652  0.56584  0.51599  1.0000
  Ag  Ag2       1.0  0.67394  0.5338300000000002  0.47753999999999996  1.0000
  Ag  Ag3       1.0  0.01652  0.93416  0.98401  1.0000
  Ag  Ag4       1.0  0.6739499999999999  0.96617  0.02246  1.0000
  Ag  Ag5       1.0  0.4855999999999999  0.51609  0.93397  1.0000
  Ag  Ag6       1.0  0.82691  0.477  0.96577  1.0000
  Ag  Ag7       1.0  0.4855999999999999  0.98391  0.56603  1.0000
  Ag  Ag8       1.0  0.82691  0.023000000000000003  0.53423  1.0000
  Ag  Ag9       1.0  0.5144  0.48391  0.06603  1.0000
  Ag  Ag10      1.0  0.17309  0.523  0.03422  1.0000
  Ag  Ag11      1.0  0.5144  0.01609  0.43397  1.0000
  Ag  Ag12      1.0  0.17309  0.9770000000000002  0.46577  1.0000
  Ag  Ag13      1.0  0.98348  0.4341600000000001  0.48401  1.0000
  Ag  Ag14      1.0  0.32605  0.46617  0.52246  1.0000
  Ag  Ag15      1.0  0.98348  0.06584000000000002  0.016  1.0000
  Ag  Ag16      1.0  0.32605  0.03383000000000001  0.97754  1.0000
  H   H1        1.0  0.06527  0.69978  0.4553299999999999  1.0000
  H   H2        1.0  0.96829  0.76953  0.42356  1.0000
  H   H3        1.0  0.42355999999999994  0.7132000000000002  0.37779  1.0000
  H   H4        1.0  0.52244  0.64457  0.40972  1.0000
  H   H5        1.0  0.6167199999999999  0.7922  0.46713  1.0000
  H   H6        1.0  0.6398999999999998  0.85473  0.51545  1.0000
  H   H7        1.0  0.7994399999999998  0.93449  0.40903  1.0000
  H   H8        1.0  0.7537699999999999  0.87384  0.36063999999999996  1.0000
  H   H9        1.0  0.06527  0.80022  0.04467  1.0000
  H   H10       1.0  0.9682999999999998  0.7304700000000002  0.07643999999999997  1.0000
  H   H11       1.0  0.42355999999999994  0.7868  0.12221  1.0000
  H   H12       1.0  0.52244  0.85543  0.09028  1.0000
  H   H13       1.0  0.6167199999999999  0.7078000000000002  0.03286999999999999  1.0000
  H   H14       1.0  0.6398999999999998  0.64527  0.98455  1.0000
  H   H15       1.0  0.7994399999999998  0.56551  0.09097  1.0000
  H   H16       1.0  0.7537699999999999  0.6261600000000003  0.13936  1.0000
  H   H17       1.0  0.43472  0.45524  0.80016  1.0000
  H   H18       1.0  0.53223  0.42366  0.73057  1.0000
  H   H19       1.0  0.07929  0.3787  0.7865  1.0000
  H   H20       1.0  0.9788  0.40996  0.85518  1.0000
  H   H21       1.0  0.8819299999999998  0.46761000000000014  0.70777  1.0000
  H   H22       1.0  0.86026  0.51575  0.64486  1.0000
  H   H23       1.0  0.69939  0.40890000000000004  0.56587  1.0000
  H   H24       1.0  0.7438999999999998  0.36053  0.62674  1.0000
  H   H25       1.0  0.43471  0.04476  0.69984  1.0000
  H   H26       1.0  0.53223  0.07635  0.76943  1.0000
  H   H27       1.0  0.07929  0.1213  0.7135  1.0000
  H   H28       1.0  0.9788  0.09004  0.64482  1.0000
  H   H29       1.0  0.88192  0.03239  0.79223  1.0000
  H   H30       1.0  0.86026  0.98425  0.85514  1.0000
  H   H31       1.0  0.69939  0.0911  0.93413  1.0000
  H   H32       1.0  0.7438999999999998  0.13947  0.87326  1.0000
  H   H33       1.0  0.56528  0.54476  0.19983999999999996  1.0000
  H   H34       1.0  0.46776  0.57635  0.26943  1.0000
  H   H35       1.0  0.9207  0.6213  0.2135  1.0000
  H   H36       1.0  0.02119  0.5900400000000001  0.14481999999999995  1.0000
  H   H37       1.0  0.11807  0.53239  0.29223  1.0000
  H   H38       1.0  0.13974  0.48425  0.35513999999999996  1.0000
  H   H39       1.0  0.30061  0.5911  0.43413  1.0000
  H   H40       1.0  0.2561  0.63947  0.37326  1.0000
  H   H41       1.0  0.56528  0.95524  0.30016  1.0000
  H   H42       1.0  0.46777  0.92365  0.23057  1.0000
  H   H43       1.0  0.9207099999999999  0.8787  0.2865  1.0000
  H   H44       1.0  0.021199999999999997  0.90996  0.35518  1.0000
  H   H45       1.0  0.11807  0.96761  0.20777  1.0000
  H   H46       1.0  0.13974  0.01575  0.14486  1.0000
  H   H47       1.0  0.30061  0.9089  0.06587  1.0000
  H   H48       1.0  0.2561  0.86053  0.12674  1.0000
  H   H49       1.0  0.93473  0.30022  0.54467  1.0000
  H   H50       1.0  0.0317  0.23047  0.57644  1.0000
  H   H51       1.0  0.57644  0.2868  0.62221  1.0000
  H   H52       1.0  0.47754999999999986  0.35543  0.5902799999999998  1.0000
  H   H53       1.0  0.38328  0.20780000000000004  0.53287  1.0000
  H   H54       1.0  0.3601  0.14527  0.48455  1.0000
  H   H55       1.0  0.20056  0.06551  0.59097  1.0000
  H   H56       1.0  0.24621999999999994  0.12616  0.63936  1.0000
  H   H57       1.0  0.93472  0.19978  0.95533  1.0000
  H   H58       1.0  0.0317  0.26953  0.92356  1.0000
  H   H59       1.0  0.57644  0.2132  0.87779  1.0000
  H   H60       1.0  0.47754999999999986  0.14457  0.90972  1.0000
  H   H61       1.0  0.38328  0.2922  0.96713  1.0000
  H   H62       1.0  0.36011  0.3547300000000001  0.01545  1.0000
  H   H63       1.0  0.20056  0.4344900000000001  0.90903  1.0000
  H   H64       1.0  0.24621999999999994  0.37384  0.86064  1.0000
  C   C1        1.0  0.84325  0.62556  0.4552199999999999  1.0000
  C   C2        1.0  0.79758  0.66772  0.43483  1.0000
  C   C3        1.0  0.92499  0.70304  0.43836  1.0000
  C   C4        1.0  0.8695699999999997  0.74224  0.4206  1.0000
  C   C5        1.0  0.6869899999999999  0.7470300000000002  0.39938  1.0000
  C   C6        1.0  0.56304  0.71124  0.39497  1.0000
  C   C7        1.0  0.61811  0.67229  0.41276  1.0000
  C   C8        1.0  0.6336699999999998  0.79087  0.38025  1.0000
  C   C9        1.0  0.40601  0.79473  0.37117  1.0000
  C   C10       1.0  0.7426299999999999  0.79445  0.33637  1.0000
  C   C11       1.0  0.68445  0.82828  0.41025  1.0000
  C   C12       1.0  0.6558599999999999  0.82336  0.45437  1.0000
  C   C13       1.0  0.67052  0.85833  0.48158  1.0000
  C   C14       1.0  0.72081  0.8988100000000001  0.46547  1.0000
  C   C15       1.0  0.70526  0.93703  0.49361  1.0000
  C   C16       1.0  0.76085  0.90335  0.42197  1.0000
  C   C17       1.0  0.73752  0.86862  0.39461  1.0000
  C   C18       1.0  0.8432599999999998  0.87444  0.04478  1.0000
  C   C19       1.0  0.79758  0.8322800000000001  0.06516  1.0000
  C   C20       1.0  0.9249999999999998  0.79696  0.06164  1.0000
  C   C21       1.0  0.8695699999999997  0.75776  0.0794  1.0000
  C   C22       1.0  0.6869899999999999  0.75297  0.10062  1.0000
  C   C23       1.0  0.56304  0.7887600000000002  0.10503  1.0000
  C   C24       1.0  0.61811  0.82771  0.08724  1.0000
  C   C25       1.0  0.6336699999999998  0.7091200000000001  0.11975  1.0000
  C   C26       1.0  0.40601  0.70527  0.12883  1.0000
  C   C27       1.0  0.7426299999999999  0.70555  0.16363  1.0000
  C   C28       1.0  0.68445  0.67172  0.08975  1.0000
  C   C29       1.0  0.6558599999999999  0.67664  0.04563  1.0000
  C   C30       1.0  0.67052  0.64167  0.01842  1.0000
  C   C31       1.0  0.72081  0.60119  0.03453  1.0000
  C   C32       1.0  0.70526  0.56297  0.00639  1.0000
  C   C33       1.0  0.76085  0.59665  0.07803  1.0000
  C   C34       1.0  0.73752  0.63138  0.10539  1.0000
  C   C35       1.0  0.65679  0.45449  0.87451  1.0000
  C   C36       1.0  0.70257  0.43457  0.83223  1.0000
  C   C37       1.0  0.575  0.43823  0.79699  1.0000
  C   C38       1.0  0.6309  0.4206800000000001  0.75782  1.0000
  C   C39       1.0  0.81422  0.3997500000000001  0.75292  1.0000
  C   C40       1.0  0.93875  0.39546  0.78855  1.0000
  C   C41       1.0  0.8829099999999999  0.41286  0.82754  1.0000
  C   C42       1.0  0.8671399999999998  0.38068  0.70919  1.0000
  C   C43       1.0  0.09375999999999997  0.37143  0.70488  1.0000
  C   C44       1.0  0.76041  0.33648  0.70566  1.0000
  C   C45       1.0  0.81486  0.41051  0.67188  1.0000
  C   C46       1.0  0.84374  0.45472  0.67663  1.0000
  C   C47       1.0  0.8294299999999998  0.48181  0.64155  1.0000
  C   C48       1.0  0.77885  0.4654100000000001  0.60127  1.0000
  C   C49       1.0  0.7974699999999999  0.4929500000000001  0.56274  1.0000
  C   C50       1.0  0.73822  0.42183  0.59695  1.0000
  C   C51       1.0  0.76133  0.39458  0.63173  1.0000
  C   C52       1.0  0.65678  0.04552  0.62549  1.0000
  C   C53       1.0  0.70257  0.06543  0.66777  1.0000
  C   C54       1.0  0.575  0.061780000000000015  0.70301  1.0000
  C   C55       1.0  0.6309  0.07932000000000002  0.74218  1.0000
  C   C56       1.0  0.81422  0.10025000000000003  0.74707  1.0000
  C   C57       1.0  0.93875  0.10454  0.71145  1.0000
  C   C58       1.0  0.8829099999999999  0.08714  0.67246  1.0000
  C   C59       1.0  0.8671399999999998  0.11932  0.79081  1.0000
  C   C60       1.0  0.09375999999999997  0.12857  0.7951199999999998  1.0000
  C   C61       1.0  0.76041  0.16352  0.79434  1.0000
  C   C62       1.0  0.81486  0.08949  0.82812  1.0000
  C   C63       1.0  0.84374  0.04528  0.82337  1.0000
  C   C64       1.0  0.8294199999999999  0.01819  0.85845  1.0000
  C   C65       1.0  0.77885  0.03459  0.89873  1.0000
  C   C66       1.0  0.7974699999999999  0.00705  0.93726  1.0000
  C   C67       1.0  0.73822  0.07817  0.90305  1.0000
  C   C68       1.0  0.76133  0.10542000000000003  0.86827  1.0000
  C   C69       1.0  0.34321  0.5455200000000001  0.12549  1.0000
  C   C70       1.0  0.29743  0.56543  0.16776999999999995  1.0000
  C   C71       1.0  0.42498999999999987  0.56177  0.20301  1.0000
  C   C72       1.0  0.36909  0.57932  0.24218  1.0000
  C   C73       1.0  0.18577999999999997  0.60025  0.24708  1.0000
  C   C74       1.0  0.06124999999999999  0.60454  0.21145  1.0000
  C   C75       1.0  0.11708999999999999  0.58714  0.17246  1.0000
  C   C76       1.0  0.13286  0.61932  0.29081  1.0000
  C   C77       1.0  0.90624  0.62857  0.29512  1.0000
  C   C78       1.0  0.23958999999999994  0.6635200000000001  0.29434  1.0000
  C   C79       1.0  0.18514  0.58949  0.32812  1.0000
  C   C80       1.0  0.15626  0.54528  0.32337  1.0000
  C   C81       1.0  0.17057  0.5181900000000003  0.35845  1.0000
  C   C82       1.0  0.22114999999999996  0.53459  0.39873  1.0000
  C   C83       1.0  0.20252999999999993  0.50705  0.43726  1.0000
  C   C84       1.0  0.26178  0.57817  0.40305  1.0000
  C   C85       1.0  0.23866999999999994  0.60542  0.36827  1.0000
  C   C86       1.0  0.34321  0.95448  0.37451  1.0000
  C   C87       1.0  0.29743  0.93457  0.33223  1.0000
  C   C88       1.0  0.4249999999999999  0.93823  0.2969899999999999  1.0000
  C   C89       1.0  0.36909  0.92068  0.25782  1.0000
  C   C90       1.0  0.18577999999999997  0.89975  0.25292  1.0000
  C   C91       1.0  0.06124999999999999  0.89546  0.28855  1.0000
  C   C92       1.0  0.11708999999999999  0.91286  0.32754  1.0000
  C   C93       1.0  0.13286  0.88068  0.20919  1.0000
  C   C94       1.0  0.90624  0.87143  0.20488  1.0000
  C   C95       1.0  0.23958999999999994  0.83648  0.20566  1.0000
  C   C96       1.0  0.18514  0.91051  0.17188  1.0000
  C   C97       1.0  0.15626  0.95472  0.17663  1.0000
  C   C98       1.0  0.17057  0.98181  0.14155  1.0000
  C   C99       1.0  0.22114999999999996  0.96541  0.10127  1.0000
  C   C100      1.0  0.20253999999999997  0.99295  0.06274  1.0000
  C   C101      1.0  0.26178  0.92183  0.09695  1.0000
  C   C102      1.0  0.23866999999999994  0.89458  0.13173  1.0000
  C   C103      1.0  0.15674  0.37444  0.54478  1.0000
  C   C104      1.0  0.20242  0.33228  0.56516  1.0000
  C   C105      1.0  0.075  0.29696  0.5616399999999998  1.0000
  C   C106      1.0  0.13043  0.25776  0.5794  1.0000
  C   C107      1.0  0.3130099999999999  0.25297  0.6006199999999999  1.0000
  C   C108      1.0  0.43695999999999996  0.28876  0.60503  1.0000
  C   C109      1.0  0.38189  0.32771  0.58724  1.0000
  C   C110      1.0  0.3663299999999999  0.20913  0.61975  1.0000
  C   C111      1.0  0.59399  0.20528  0.6288299999999998  1.0000
  C   C112      1.0  0.25737  0.20555  0.66363  1.0000
  C   C113      1.0  0.3155499999999999  0.17172  0.58975  1.0000
  C   C114      1.0  0.3441399999999999  0.17664  0.5456299999999998  1.0000
  C   C115      1.0  0.32948  0.14167  0.51842  1.0000
  C   C116      1.0  0.27919  0.10119  0.53453  1.0000
  C   C117      1.0  0.29473999999999995  0.06297  0.50639  1.0000
  C   C118      1.0  0.23914  0.09666000000000001  0.57803  1.0000
  C   C119      1.0  0.26247999999999994  0.13138  0.60539  1.0000
  C   C120      1.0  0.15674999999999994  0.12556  0.95522  1.0000
  C   C121      1.0  0.20242  0.16773  0.93484  1.0000
  C   C122      1.0  0.075  0.20305  0.93836  1.0000
  C   C123      1.0  0.13043  0.24224  0.9206  1.0000
  C   C124      1.0  0.3130099999999999  0.24703  0.89938  1.0000
  C   C125      1.0  0.4369499999999999  0.21124  0.8949699999999999  1.0000
  C   C126      1.0  0.38189  0.17229000000000005  0.91276  1.0000
  C   C127      1.0  0.3663299999999999  0.29088  0.88025  1.0000
  C   C128      1.0  0.59399  0.2947300000000001  0.87117  1.0000
  C   C129      1.0  0.25737  0.29445  0.83637  1.0000
  C   C130      1.0  0.3155499999999999  0.32828  0.91025  1.0000
  C   C131      1.0  0.3441399999999999  0.32336  0.95437  1.0000
  C   C132      1.0  0.32948  0.35833  0.98158  1.0000
  C   C133      1.0  0.27919  0.39881  0.96547  1.0000
  C   C134      1.0  0.29475  0.4370300000000001  0.99361  1.0000
  C   C135      1.0  0.23914  0.40335  0.92197  1.0000
  C   C136      1.0  0.26247999999999994  0.36862  0.89461  1.0000
  O   O1        1.0  0.7184299999999998  0.59558  0.44785  1.0000
  O   O2        1.0  0.99912  0.6234  0.47856  1.0000
  O   O3        1.0  0.58544  0.9331400000000002  0.52471  1.0000
  O   O4        1.0  0.80453  0.97136  0.48381  1.0000
  O   O5        1.0  0.7184299999999998  0.90442  0.05215  1.0000
  O   O6        1.0  0.99912  0.8766  0.02144  1.0000
  O   O7        1.0  0.58545  0.56686  0.97528  1.0000
  O   O8        1.0  0.80453  0.52864  0.016189999999999993  1.0000
  O   O9        1.0  0.7793999999999999  0.44626  0.90461  1.0000
  O   O10       1.0  0.50276  0.4783900000000001  0.87664  1.0000
  O   O11       1.0  0.9207  0.52356  0.56617  1.0000
  O   O12       1.0  0.6974  0.4830500000000001  0.52859  1.0000
  O   O13       1.0  0.7793999999999999  0.05374  0.59539  1.0000
  O   O14       1.0  0.50276  0.02161  0.62336  1.0000
  O   O15       1.0  0.9207  0.97644  0.93383  1.0000
  O   O16       1.0  0.6973899999999997  0.01695  0.97141  1.0000
  O   O17       1.0  0.22059999999999994  0.55374  0.09539  1.0000
  O   O18       1.0  0.49724  0.52162  0.12335999999999998  1.0000
  O   O19       1.0  0.07929999999999997  0.47644  0.43383  1.0000
  O   O20       1.0  0.3026  0.51695  0.47141  1.0000
  O   O21       1.0  0.22059999999999994  0.94626  0.40461  1.0000
  O   O22       1.0  0.49724  0.97839  0.37664  1.0000
  O   O23       1.0  0.07931  0.02356  0.06617  1.0000
  O   O24       1.0  0.3026  0.98305  0.02859  1.0000
  O   O25       1.0  0.28157  0.40442  0.55215  1.0000
  O   O26       1.0  0.0008799999999999998  0.3766  0.52144  1.0000
  O   O27       1.0  0.41455999999999993  0.06686  0.47529  1.0000
  O   O28       1.0  0.19546999999999998  0.02864  0.51619  1.0000
  O   O29       1.0  0.28156  0.09558  0.94785  1.0000
  O   O30       1.0  0.00089  0.1234  0.97857  1.0000
  O   O31       1.0  0.4146  0.43314  0.02471  1.0000
  O   O32       1.0  0.19545  0.4713600000000001  0.98381  1.0000
  F   F1        1.0  0.34359999999999996  0.77049  0.33775  1.0000
  F   F2        1.0  0.30244999999999994  0.78188  0.40664  1.0000
  F   F3        1.0  0.3528599999999999  0.83546  0.3618  1.0000
  F   F4        1.0  0.7276099999999998  0.75769  0.31381  1.0000
  F   F5        1.0  0.93929  0.80296  0.34199  1.0000
  F   F6        1.0  0.6666  0.82663  0.31154  1.0000
  F   F7        1.0  0.34359999999999996  0.72951  0.16225  1.0000
  F   F8        1.0  0.30244999999999994  0.71812  0.09336  1.0000
  F   F9        1.0  0.3528599999999999  0.66454  0.1382  1.0000
  F   F10       1.0  0.7276099999999998  0.74231  0.18619  1.0000
  F   F11       1.0  0.93929  0.69704  0.15801  1.0000
  F   F12       1.0  0.6666  0.67337  0.18845999999999996  1.0000
  F   F13       1.0  0.15258  0.3378800000000001  0.72949  1.0000
  F   F14       1.0  0.202  0.40673  0.71637  1.0000
  F   F15       1.0  0.1432  0.36161  0.66424  1.0000
  F   F16       1.0  0.777  0.31382  0.74231  1.0000
  F   F17       1.0  0.56418  0.34194  0.69707  1.0000
  F   F18       1.0  0.8376199999999998  0.31167  0.67349  1.0000
  F   F19       1.0  0.15258  0.16213  0.77051  1.0000
  F   F20       1.0  0.202  0.09328000000000003  0.78363  1.0000
  F   F21       1.0  0.1432  0.13839  0.83576  1.0000
  F   F22       1.0  0.777  0.18618  0.75769  1.0000
  F   F23       1.0  0.56418  0.15807  0.80293  1.0000
  F   F24       1.0  0.8376199999999998  0.18833000000000005  0.82651  1.0000
  F   F25       1.0  0.84742  0.66212  0.27051  1.0000
  F   F26       1.0  0.798  0.59327  0.28363  1.0000
  F   F27       1.0  0.8567899999999998  0.63839  0.3357599999999999  1.0000
  F   F28       1.0  0.223  0.68618  0.25769  1.0000
  F   F29       1.0  0.43582  0.6580700000000002  0.30293  1.0000
  F   F30       1.0  0.16237999999999994  0.68833  0.32651  1.0000
  F   F31       1.0  0.84742  0.83788  0.22949  1.0000
  F   F32       1.0  0.798  0.9067300000000003  0.21637  1.0000
  F   F33       1.0  0.8567899999999998  0.86161  0.16424  1.0000
  F   F34       1.0  0.223  0.81382  0.24230999999999994  1.0000
  F   F35       1.0  0.43582  0.84193  0.19707  1.0000
  F   F36       1.0  0.16237999999999994  0.81167  0.17349  1.0000
  F   F37       1.0  0.6563999999999998  0.22952000000000006  0.66225  1.0000
  F   F38       1.0  0.6975499999999998  0.21812000000000006  0.59336  1.0000
  F   F39       1.0  0.64714  0.16454  0.6382  1.0000
  F   F40       1.0  0.27237999999999996  0.24231  0.68619  1.0000
  F   F41       1.0  0.06071  0.19704  0.6580099999999999  1.0000
  F   F42       1.0  0.3334  0.17337000000000005  0.68846  1.0000
  F   F43       1.0  0.6563999999999998  0.27049  0.83775  1.0000
  F   F44       1.0  0.6975499999999998  0.28188  0.90664  1.0000
  F   F45       1.0  0.64714  0.33546  0.8618  1.0000
  F   F46       1.0  0.27237999999999996  0.25769  0.81381  1.0000
  F   F47       1.0  0.06071  0.30296  0.84199  1.0000
  F   F48       1.0  0.3334  0.32663  0.81154  1.0000
