data_image0
_chemical_formula_structural       Zn6H78C132N18O24
_chemical_formula_sum              "Zn6 H78 C132 N18 O24"
_cell_length_a       18.33716
_cell_length_b       18.33507
_cell_length_c       18.3353
_cell_angle_alpha    109.57742
_cell_angle_beta     109.58970999999998
_cell_angle_gamma    109.58949

_symmetry_space_group_name_H-M    'P 1'
_symmetry_Int_Tables_number       1

loop_
  _symmetry_equiv_pos_as_xyz
  'x,y,z'

loop_
  _atom_site_type_symbol
  _atom_site_label
  _atom_site_symmetry_multiplicity
  _atom_site_fract_x
  _atom_site_fract_y
  _atom_site_fract_z
  _atom_site_occupancy
  Zn  Zn1       1.0  0.14880000000000004  0.7483600000000002  0.66835  1.0000
  Zn  Zn2       1.0  0.66835  0.14878  0.74835  1.0000
  Zn  Zn3       1.0  0.74835  0.66836  0.14882  1.0000
  Zn  Zn4       1.0  0.8512  0.25164  0.33165  1.0000
  Zn  Zn5       1.0  0.33165  0.85122  0.25165  1.0000
  Zn  Zn6       1.0  0.25165  0.33165  0.85119  1.0000
  H   H1        1.0  0.13157999999999997  0.77554  0.50525  1.0000
  H   H2        1.0  0.017199999999999896  0.68942  0.3394399999999999  1.0000
  H   H3        1.0  0.88224  0.54365  0.2782699999999999  1.0000
  H   H4        1.0  0.86149  0.48993000000000003  0.38309  1.0000
  H   H5        1.0  0.7542699999999999  0.42539999999999994  0.53425  1.0000
  H   H6        1.0  0.6476399999999999  0.3156799999999999  0.5509799999999998  1.0000
  H   H7        1.0  0.86307  0.379  0.79293  1.0000
  H   H8        1.0  0.9724199999999998  0.48872  0.77758  1.0000
  H   H9        1.0  0.19592999999999988  0.68351  0.79215  1.0000
  H   H10       1.0  0.29803  0.76559  0.95668  1.0000
  H   H11       1.0  0.07461000000000004  0.7253300000000003  0.99838  1.0000
  H   H12       1.0  0.9702699999999999  0.64194  0.83313  1.0000
  H   H13       1.0  0.85849  0.46062  0.49775999999999987  1.0000
  H   H14       1.0  0.50532  0.13156  0.77549  1.0000
  H   H15       1.0  0.3394999999999999  0.0172  0.68939  1.0000
  H   H16       1.0  0.27828000000000014  0.8822300000000002  0.54363  1.0000
  H   H17       1.0  0.3830700000000001  0.8614400000000001  0.4899  1.0000
  H   H18       1.0  0.53423  0.75427  0.42538999999999993  1.0000
  H   H19       1.0  0.5509700000000001  0.6476600000000002  0.31569  1.0000
  H   H20       1.0  0.79293  0.8631300000000001  0.37906  1.0000
  H   H21       1.0  0.77754  0.97244  0.4887499999999999  1.0000
  H   H22       1.0  0.7921599999999999  0.19594000000000006  0.68351  1.0000
  H   H23       1.0  0.9566699999999998  0.29803999999999997  0.7655899999999998  1.0000
  H   H24       1.0  0.99838  0.07460999999999998  0.72533  1.0000
  H   H25       1.0  0.8331399999999999  0.97026  0.6419399999999997  1.0000
  H   H26       1.0  0.49776000000000004  0.85847  0.46061  1.0000
  H   H27       1.0  0.7755300000000003  0.5052700000000002  0.13159  1.0000
  H   H28       1.0  0.68942  0.33946  0.0172  1.0000
  H   H29       1.0  0.5436600000000001  0.27829  0.88224  1.0000
  H   H30       1.0  0.48994000000000004  0.38311  0.86148  1.0000
  H   H31       1.0  0.42539000000000005  0.5342600000000002  0.75426  1.0000
  H   H32       1.0  0.31567  0.55099  0.64765  1.0000
  H   H33       1.0  0.37901000000000007  0.7929200000000002  0.86307  1.0000
  H   H34       1.0  0.48872  0.7775600000000003  0.97242  1.0000
  H   H35       1.0  0.68349  0.79213  0.19593  1.0000
  H   H36       1.0  0.76556  0.95665  0.29803  1.0000
  H   H37       1.0  0.7253300000000001  0.9984000000000001  0.07461  1.0000
  H   H38       1.0  0.64194  0.83315  0.97026  1.0000
  H   H39       1.0  0.46063  0.4977500000000001  0.85848  1.0000
  H   H40       1.0  0.86842  0.22446000000000005  0.49475  1.0000
  H   H41       1.0  0.9827999999999999  0.31059  0.66057  1.0000
  H   H42       1.0  0.11776000000000003  0.4563500000000001  0.72173  1.0000
  H   H43       1.0  0.13852  0.51007  0.61691  1.0000
  H   H44       1.0  0.24573999999999996  0.5746  0.46576  1.0000
  H   H45       1.0  0.3523600000000001  0.6843200000000003  0.44903  1.0000
  H   H46       1.0  0.13693  0.621  0.20707  1.0000
  H   H47       1.0  0.027580000000000014  0.51128  0.22243  1.0000
  H   H48       1.0  0.80407  0.31649  0.20785  1.0000
  H   H49       1.0  0.70197  0.23441000000000004  0.04332  1.0000
  H   H50       1.0  0.9253900000000002  0.27467  0.00162  1.0000
  H   H51       1.0  0.02973  0.35806  0.16687  1.0000
  H   H52       1.0  0.14151  0.53938  0.50225  1.0000
  H   H53       1.0  0.49468  0.8684399999999999  0.22451  1.0000
  H   H54       1.0  0.6605099999999999  0.98281  0.3106199999999999  1.0000
  H   H55       1.0  0.72172  0.11777999999999995  0.4563799999999999  1.0000
  H   H56       1.0  0.6169300000000001  0.13856  0.5101  1.0000
  H   H57       1.0  0.46577  0.24574000000000001  0.57461  1.0000
  H   H58       1.0  0.44903  0.35234  0.68431  1.0000
  H   H59       1.0  0.20707000000000006  0.13687000000000005  0.62095  1.0000
  H   H60       1.0  0.22245999999999996  0.027560000000000015  0.51125  1.0000
  H   H61       1.0  0.20785  0.80407  0.3165  1.0000
  H   H62       1.0  0.04332999999999996  0.70196  0.23440999999999995  1.0000
  H   H63       1.0  0.0016200000000000758  0.9254000000000002  0.27468  1.0000
  H   H64       1.0  0.16686999999999994  0.029739999999999944  0.3580699999999999  1.0000
  H   H65       1.0  0.50225  0.14153000000000002  0.53939  1.0000
  H   H66       1.0  0.22447000000000011  0.49473  0.86841  1.0000
  H   H67       1.0  0.31058  0.66054  0.9828  1.0000
  H   H68       1.0  0.45634  0.72171  0.11776  1.0000
  H   H69       1.0  0.51006  0.61689  0.13852  1.0000
  H   H70       1.0  0.57461  0.46574  0.24573999999999993  1.0000
  H   H71       1.0  0.6843300000000001  0.44901000000000013  0.35236  1.0000
  H   H72       1.0  0.621  0.20708  0.13693  1.0000
  H   H73       1.0  0.51128  0.22244  0.02759  1.0000
  H   H74       1.0  0.3165099999999999  0.20786999999999994  0.8040799999999998  1.0000
  H   H75       1.0  0.23444  0.04335000000000002  0.70197  1.0000
  H   H76       1.0  0.27467000000000014  0.0016000000000000142  0.92539  1.0000
  H   H77       1.0  0.35806  0.16685  0.02974  1.0000
  H   H78       1.0  0.53937  0.50225  0.14151999999999998  1.0000
  C   C1        1.0  0.07174999999999998  0.71112  0.47406  1.0000
  C   C2        1.0  0.008600000000000009  0.66324  0.38293  1.0000
  C   C3        1.0  0.9326000000000001  0.5821600000000002  0.3492  1.0000
  C   C4        1.0  0.9208299999999998  0.55183  0.4068799999999999  1.0000
  C   C5        1.0  0.9868400000000004  0.60399  0.49785  1.0000
  C   C6        1.0  0.98168  0.58405  0.56692  1.0000
  C   C7        1.0  0.018200000000000004  0.60703  0.70289  1.0000
  C   C8        1.0  0.93377  0.5284700000000002  0.64326  1.0000
  C   C9        1.0  0.87153  0.46562000000000003  0.65508  1.0000
  C   C10       1.0  0.7791299999999999  0.41588000000000014  0.59115  1.0000
  C   C11       1.0  0.71884  0.35436000000000006  0.60023  1.0000
  C   C12       1.0  0.74871  0.34107000000000004  0.67321  1.0000
  C   C13       1.0  0.8406  0.39048000000000005  0.73706  1.0000
  C   C14       1.0  0.90141  0.45175  0.72817  1.0000
  C   C15       1.0  0.68356  0.27105000000000007  0.67941  1.0000
  C   C16       1.0  0.07551000000000006  0.6546100000000002  0.80062  1.0000
  C   C17       1.0  0.16862999999999997  0.69136  0.8366  1.0000
  C   C18       1.0  0.2260900000000001  0.7373300000000002  0.92869  1.0000
  C   C19       1.0  0.19235999999999995  0.7481599999999999  0.9872999999999997  1.0000
  C   C20       1.0  0.09985000000000012  0.7144900000000002  0.95215  1.0000
  C   C21       1.0  0.04182000000000001  0.66778  0.85965  1.0000
  C   C22       1.0  0.25514  0.7915  0.08527  1.0000
  C   C23       1.0  0.47409999999999997  0.07171999999999999  0.71108  1.0000
  C   C24       1.0  0.38298  0.008579999999999987  0.66321  1.0000
  C   C25       1.0  0.34922000000000003  0.9325700000000001  0.58213  1.0000
  C   C26       1.0  0.40689000000000003  0.92079  0.5518  1.0000
  C   C27       1.0  0.4978500000000001  0.9867900000000001  0.60396  1.0000
  C   C28       1.0  0.5669199999999999  0.98165  0.5840299999999998  1.0000
  C   C29       1.0  0.70289  0.01819999999999998  0.60702  1.0000
  C   C30       1.0  0.64326  0.93376  0.52846  1.0000
  C   C31       1.0  0.65506  0.87153  0.46562  1.0000
  C   C32       1.0  0.59114  0.77913  0.4158699999999999  1.0000
  C   C33       1.0  0.6002200000000001  0.71886  0.35437  1.0000
  C   C34       1.0  0.67321  0.7487400000000002  0.34109  1.0000
  C   C35       1.0  0.73705  0.8406300000000002  0.39051  1.0000
  C   C36       1.0  0.72814  0.90143  0.45177  1.0000
  C   C37       1.0  0.67939  0.6835800000000002  0.27108  1.0000
  C   C38       1.0  0.80062  0.07551  0.65461  1.0000
  C   C39       1.0  0.8366  0.16862999999999995  0.6913699999999998  1.0000
  C   C40       1.0  0.9286899999999996  0.2260900000000001  0.73733  1.0000
  C   C41       1.0  0.9873  0.19236  0.74816  1.0000
  C   C42       1.0  0.9521500000000002  0.09984999999999997  0.71449  1.0000
  C   C43       1.0  0.8596499999999998  0.04181999999999995  0.6677799999999999  1.0000
  C   C44       1.0  0.08527  0.25514  0.79148  1.0000
  C   C45       1.0  0.71111  0.47408  0.07176  1.0000
  C   C46       1.0  0.6632400000000002  0.3829500000000001  0.0086  1.0000
  C   C47       1.0  0.58217  0.34922  0.9326  1.0000
  C   C48       1.0  0.55183  0.4068999999999999  0.92083  1.0000
  C   C49       1.0  0.60399  0.4978600000000001  0.98685  1.0000
  C   C50       1.0  0.58404  0.5669299999999999  0.9816899999999997  1.0000
  C   C51       1.0  0.6070200000000001  0.7028900000000002  0.0182  1.0000
  C   C52       1.0  0.52846  0.64326  0.93377  1.0000
  C   C53       1.0  0.46562  0.6550799999999998  0.8715299999999998  1.0000
  C   C54       1.0  0.41587000000000013  0.5911600000000002  0.77913  1.0000
  C   C55       1.0  0.3543499999999998  0.6002399999999999  0.7188399999999998  1.0000
  C   C56       1.0  0.34106  0.67322  0.74871  1.0000
  C   C57       1.0  0.39048  0.73706  0.8406  1.0000
  C   C58       1.0  0.4517500000000001  0.7281600000000003  0.9014  1.0000
  C   C59       1.0  0.27104999999999996  0.67941  0.68356  1.0000
  C   C60       1.0  0.65461  0.80062  0.07551  1.0000
  C   C61       1.0  0.69136  0.83659  0.16863  1.0000
  C   C62       1.0  0.73731  0.9286800000000001  0.22608999999999999  1.0000
  C   C63       1.0  0.74814  0.9873  0.19235  1.0000
  C   C64       1.0  0.71449  0.9521600000000001  0.09984999999999997  1.0000
  C   C65       1.0  0.66778  0.85966  0.04182  1.0000
  C   C66       1.0  0.79148  0.08526  0.25513  1.0000
  C   C67       1.0  0.92825  0.28889  0.52594  1.0000
  C   C68       1.0  0.9913999999999998  0.33675999999999995  0.6170699999999998  1.0000
  C   C69       1.0  0.0674  0.41784  0.65081  1.0000
  C   C70       1.0  0.07916999999999998  0.44817999999999997  0.59312  1.0000
  C   C71       1.0  0.01315999999999997  0.3960099999999999  0.50215  1.0000
  C   C72       1.0  0.01831999999999998  0.41595  0.43308  1.0000
  C   C73       1.0  0.9818  0.39297  0.29711  1.0000
  C   C74       1.0  0.06622999999999994  0.47153999999999996  0.35674  1.0000
  C   C75       1.0  0.12847  0.53438  0.34491999999999995  1.0000
  C   C76       1.0  0.22087  0.58413  0.40885  1.0000
  C   C77       1.0  0.28116  0.64564  0.39977  1.0000
  C   C78       1.0  0.25128999999999996  0.65893  0.32679  1.0000
  C   C79       1.0  0.15940000000000007  0.6095200000000002  0.26294  1.0000
  C   C80       1.0  0.09859  0.54825  0.27184  1.0000
  C   C81       1.0  0.31644000000000005  0.7289500000000001  0.3206  1.0000
  C   C82       1.0  0.92449  0.34539000000000003  0.19938  1.0000
  C   C83       1.0  0.83138  0.30864  0.1634  1.0000
  C   C84       1.0  0.77392  0.26267  0.07131  1.0000
  C   C85       1.0  0.80765  0.25185  0.0127  1.0000
  C   C86       1.0  0.9001500000000001  0.28551  0.04784999999999999  1.0000
  C   C87       1.0  0.95818  0.33222  0.14035  1.0000
  C   C88       1.0  0.74486  0.20850000000000007  0.91474  1.0000
  C   C89       1.0  0.5259  0.92829  0.28893  1.0000
  C   C90       1.0  0.61703  0.99142  0.3368  1.0000
  C   C91       1.0  0.65079  0.06742999999999995  0.4178699999999999  1.0000
  C   C92       1.0  0.5931199999999999  0.07920999999999993  0.4482099999999999  1.0000
  C   C93       1.0  0.50215  0.013209999999999996  0.39604  1.0000
  C   C94       1.0  0.43308  0.018360000000000008  0.41597  1.0000
  C   C95       1.0  0.29711  0.98181  0.39298  1.0000
  C   C96       1.0  0.35675  0.06623999999999995  0.4715399999999999  1.0000
  C   C97       1.0  0.34494  0.12847  0.53438  1.0000
  C   C98       1.0  0.40887000000000007  0.2208700000000001  0.58413  1.0000
  C   C99       1.0  0.39978  0.28115  0.64564  1.0000
  C   C100      1.0  0.3268  0.25126  0.65891  1.0000
  C   C101      1.0  0.26295  0.15937  0.60949  1.0000
  C   C102      1.0  0.27185999999999994  0.09857999999999992  0.5482299999999999  1.0000
  C   C103      1.0  0.32061  0.31642  0.72893  1.0000
  C   C104      1.0  0.19938000000000006  0.9244900000000001  0.34539  1.0000
  C   C105      1.0  0.16340000000000005  0.83137  0.30864  1.0000
  C   C106      1.0  0.07131000000000005  0.77392  0.26267  1.0000
  C   C107      1.0  0.012699999999999986  0.8076399999999999  0.25185  1.0000
  C   C108      1.0  0.04785000000000004  0.90015  0.28551  1.0000
  C   C109      1.0  0.14035000000000003  0.9581800000000001  0.33222  1.0000
  C   C110      1.0  0.91474  0.74487  0.20853  1.0000
  C   C111      1.0  0.28889000000000004  0.52592  0.92824  1.0000
  C   C112      1.0  0.3367599999999999  0.6170499999999999  0.9913999999999997  1.0000
  C   C113      1.0  0.41784  0.65078  0.0674  1.0000
  C   C114      1.0  0.44817  0.5931  0.07917  1.0000
  C   C115      1.0  0.39602  0.50214  0.01315  1.0000
  C   C116      1.0  0.41596  0.43308  0.01831  1.0000
  C   C117      1.0  0.39298  0.29711  0.9818  1.0000
  C   C118      1.0  0.47153999999999996  0.35674  0.06624  1.0000
  C   C119      1.0  0.53438  0.34491999999999995  0.12848  1.0000
  C   C120      1.0  0.58414  0.40884  0.22087  1.0000
  C   C121      1.0  0.64565  0.39976  0.28116  1.0000
  C   C122      1.0  0.65894  0.32679  0.25129  1.0000
  C   C123      1.0  0.60952  0.26295  0.15939999999999996  1.0000
  C   C124      1.0  0.54825  0.27185  0.0986  1.0000
  C   C125      1.0  0.72895  0.32059  0.31644  1.0000
  C   C126      1.0  0.34539  0.19937999999999997  0.92449  1.0000
  C   C127      1.0  0.30865  0.16341  0.83138  1.0000
  C   C128      1.0  0.26268999999999987  0.07131999999999988  0.7739199999999998  1.0000
  C   C129      1.0  0.25186  0.012710000000000004  0.80765  1.0000
  C   C130      1.0  0.28551  0.04783999999999996  0.90015  1.0000
  C   C131      1.0  0.33221999999999985  0.14033999999999988  0.9581899999999998  1.0000
  C   C132      1.0  0.20852  0.91474  0.7448699999999999  1.0000
  N   N1        1.0  0.061579999999999996  0.68217  0.53024  1.0000
  N   N2        1.0  0.046110000000000054  0.6392900000000001  0.65341  1.0000
  N   N3        1.0  0.91325  0.51647  0.55873  1.0000
  N   N4        1.0  0.53026  0.06154  0.68212  1.0000
  N   N5        1.0  0.6534100000000002  0.046090000000000055  0.63928  1.0000
  N   N6        1.0  0.5587300000000001  0.9132300000000001  0.51646  1.0000
  N   N7        1.0  0.68215  0.53025  0.061599999999999995  1.0000
  N   N8        1.0  0.63928  0.65341  0.04611  1.0000
  N   N9        1.0  0.51647  0.55873  0.91325  1.0000
  N   N10       1.0  0.93842  0.3178400000000001  0.46976  1.0000
  N   N11       1.0  0.9538899999999999  0.3607100000000001  0.3466  1.0000
  N   N12       1.0  0.08674999999999998  0.48353000000000007  0.4412699999999999  1.0000
  N   N13       1.0  0.46974  0.9384600000000001  0.31788  1.0000
  N   N14       1.0  0.3466  0.95392  0.36072  1.0000
  N   N15       1.0  0.44127000000000005  0.08676999999999999  0.48354  1.0000
  N   N16       1.0  0.31785  0.46975000000000006  0.9384  1.0000
  N   N17       1.0  0.36073  0.3466  0.95389  1.0000
  N   N18       1.0  0.48352999999999996  0.44127  0.08674999999999998  1.0000
  O   O1        1.0  0.7171600000000001  0.26172000000000006  0.74733  1.0000
  O   O2        1.0  0.60243  0.22473000000000007  0.61777  1.0000
  O   O3        1.0  0.33084  0.79625  0.11226  1.0000
  O   O4        1.0  0.22886  0.8211  0.14006  1.0000
  O   O5        1.0  0.7472999999999999  0.71717  0.26174  1.0000
  O   O6        1.0  0.6177499999999999  0.6024499999999999  0.22474999999999995  1.0000
  O   O7        1.0  0.11225999999999998  0.33084  0.79623  1.0000
  O   O8        1.0  0.14006  0.22884999999999997  0.82106  1.0000
  O   O9        1.0  0.26173  0.74733  0.71715  1.0000
  O   O10       1.0  0.22472999999999996  0.61777  0.60243  1.0000
  O   O11       1.0  0.7962500000000001  0.11225  0.33083  1.0000
  O   O12       1.0  0.82106  0.14006  0.22883  1.0000
  O   O13       1.0  0.2828400000000001  0.7382800000000002  0.25268  1.0000
  O   O14       1.0  0.39757  0.7752800000000002  0.38223  1.0000
  O   O15       1.0  0.6691700000000002  0.20375000000000004  0.88774  1.0000
  O   O16       1.0  0.7711399999999999  0.1789  0.85995  1.0000
  O   O17       1.0  0.2527  0.28283  0.73826  1.0000
  O   O18       1.0  0.3822499999999999  0.39755  0.7752499999999998  1.0000
  O   O19       1.0  0.88775  0.66916  0.20376999999999995  1.0000
  O   O20       1.0  0.8599500000000001  0.7711600000000002  0.17894  1.0000
  O   O21       1.0  0.7382800000000003  0.25268  0.28286  1.0000
  O   O22       1.0  0.77527  0.3822300000000001  0.39758  1.0000
  O   O23       1.0  0.20375000000000004  0.8877500000000003  0.6691699999999999  1.0000
  O   O24       1.0  0.17894999999999997  0.8599400000000001  0.7711699999999998  1.0000
