data_image0
_chemical_formula_structural       Cu24H96C144N120O8
_chemical_formula_sum              "Cu24 H96 C144 N120 O8"
_cell_length_a       25.94164
_cell_length_b       25.94128
_cell_length_c       25.943660000000005
_cell_angle_alpha    60.038590000000006
_cell_angle_beta     60.017860000000006
_cell_angle_gamma    60.01897

_space_group_name_H-M_alt    "P 1"
_space_group_IT_number       1

loop_
  _space_group_symop_operation_xyz
  'x, y, z'

loop_
  _atom_site_type_symbol
  _atom_site_label
  _atom_site_symmetry_multiplicity
  _atom_site_fract_x
  _atom_site_fract_y
  _atom_site_fract_z
  _atom_site_occupancy
  Cu  Cu1       1.0  0.6752099999999998  0.2500400000000001  0.32477  1.0000
  Cu  Cu2       1.0  0.2500599999999999  0.67522  0.24999  1.0000
  Cu  Cu3       1.0  0.7500399999999997  0.8247699999999999  0.74996  1.0000
  Cu  Cu4       1.0  0.8247300000000001  0.7499799999999999  0.17523  1.0000
  Cu  Cu5       1.0  0.7499799999999994  0.67521  0.32475  1.0000
  Cu  Cu6       1.0  0.82472  0.25002  0.25003  1.0000
  Cu  Cu7       1.0  0.6752399999999994  0.75  0.75  1.0000
  Cu  Cu8       1.0  0.25005  0.8247100000000002  0.17526  1.0000
  Cu  Cu9       1.0  0.2500399999999999  0.74999  0.32475  1.0000
  Cu  Cu10      1.0  0.67522  0.82475  0.25  1.0000
  Cu  Cu11      1.0  0.82475  0.67524  0.75  1.0000
  Cu  Cu12      1.0  0.74994  0.25008  0.17526  1.0000
  Cu  Cu13      1.0  0.32479  0.74996  0.67523  1.0000
  Cu  Cu14      1.0  0.74994  0.32477  0.75002  1.0000
  Cu  Cu15      1.0  0.24996  0.17524  0.25004  1.0000
  Cu  Cu16      1.0  0.17526999999999998  0.25002000000000013  0.82476  1.0000
  Cu  Cu17      1.0  0.2500299999999999  0.3248  0.67523  1.0000
  Cu  Cu18      1.0  0.17525000000000002  0.74998  0.74997  1.0000
  Cu  Cu19      1.0  0.32478  0.25001  0.25  1.0000
  Cu  Cu20      1.0  0.7499500000000004  0.17526000000000003  0.82476  1.0000
  Cu  Cu21      1.0  0.7499700000000001  0.24999999999999997  0.67524  1.0000
  Cu  Cu22      1.0  0.32478999999999997  0.17525  0.75  1.0000
  Cu  Cu23      1.0  0.17523999999999998  0.32477  0.25001  1.0000
  Cu  Cu24      1.0  0.25004999999999994  0.74992  0.8247500000000001  1.0000
  H   H1        1.0  0.84032  0.26412  0.44331000000000004  1.0000
  H   H2        1.0  0.8355599999999997  0.26658999999999994  0.5407300000000002  1.0000
  H   H3        1.0  0.26417999999999997  0.84052  0.95199  1.0000
  H   H4        1.0  0.26635000000000003  0.8355000000000001  0.85719  1.0000
  H   H5        1.0  0.45205  0.9433400000000001  0.7641300000000001  1.0000
  H   H6        1.0  0.35708999999999985  0.04090000000000002  0.76646  1.0000
  H   H7        1.0  0.94345  0.45199  0.34039  1.0000
  H   H8        1.0  0.04099999999999998  0.3570900000000001  0.33544  1.0000
  H   H9        1.0  0.4520099999999999  0.84037  0.44347000000000003  1.0000
  H   H10       1.0  0.3570399999999999  0.8355000000000001  0.541  1.0000
  H   H11       1.0  0.9433600000000001  0.26413  0.95204  1.0000
  H   H12       1.0  0.040919999999999984  0.26641  0.85711  1.0000
  H   H13       1.0  0.8405100000000001  0.45201999999999987  0.7641700000000001  1.0000
  H   H14       1.0  0.8355399999999998  0.35716999999999993  0.7663600000000002  1.0000
  H   H15       1.0  0.26412  0.94337  0.34024  1.0000
  H   H16       1.0  0.26657  0.04077  0.33553  1.0000
  H   H17       1.0  0.26413999999999993  0.45204  0.44334  1.0000
  H   H18       1.0  0.26642999999999994  0.3571299999999999  0.54088  1.0000
  H   H19       1.0  0.84047  0.94345  0.95192  1.0000
  H   H20       1.0  0.8355299999999999  0.040960000000000045  0.85704  1.0000
  H   H21       1.0  0.9432999999999999  0.84034  0.76411  1.0000
  H   H22       1.0  0.040729999999999954  0.8355799999999999  0.7665700000000001  1.0000
  H   H23       1.0  0.45202999999999993  0.26417  0.3405  1.0000
  H   H24       1.0  0.35718  0.26637  0.33552  1.0000
  H   H25       1.0  0.65952  0.23584  0.54796  1.0000
  H   H26       1.0  0.6644899999999999  0.23362000000000008  0.64283  1.0000
  H   H27       1.0  0.2358999999999999  0.6597300000000001  0.05663000000000001  1.0000
  H   H28       1.0  0.23342999999999994  0.6644700000000001  0.95924  1.0000
  H   H29       1.0  0.048020000000000014  0.5565  0.15961  1.0000
  H   H30       1.0  0.14296000000000003  0.45898  0.16452  1.0000
  H   H31       1.0  0.5566400000000001  0.04793000000000003  0.73587  1.0000
  H   H32       1.0  0.45907  0.14288000000000003  0.73357  1.0000
  H   H33       1.0  0.04799999999999997  0.6594899999999999  0.7358300000000001  1.0000
  H   H34       1.0  0.14284  0.66449  0.73364  1.0000
  H   H35       1.0  0.5566799999999997  0.23589000000000002  0.15965  1.0000
  H   H36       1.0  0.45924  0.23343  0.16443  1.0000
  H   H37       1.0  0.65955  0.04807000000000001  0.05653  1.0000
  H   H38       1.0  0.6645199999999998  0.14293999999999998  0.95903  1.0000
  H   H39       1.0  0.23586999999999989  0.5566200000000002  0.54797  1.0000
  H   H40       1.0  0.23354000000000005  0.45909000000000005  0.64289  1.0000
  H   H41       1.0  0.23584000000000002  0.04798999999999999  0.15949  1.0000
  H   H42       1.0  0.23366  0.14279  0.16453  1.0000
  H   H43       1.0  0.65971  0.55666  0.73588  1.0000
  H   H44       1.0  0.66448  0.45923  0.73342  1.0000
  H   H45       1.0  0.5565399999999998  0.6596000000000001  0.548  1.0000
  H   H46       1.0  0.4589899999999999  0.6645700000000001  0.64292  1.0000
  H   H47       1.0  0.047949999999999986  0.23587  0.05664  1.0000
  H   H48       1.0  0.14286999999999994  0.23354000000000008  0.95908  1.0000
  H   H49       1.0  0.1596899999999999  0.7358800000000001  0.55667  1.0000
  H   H50       1.0  0.16445000000000004  0.73341  0.45925  1.0000
  H   H51       1.0  0.73583  0.15948  0.04802  1.0000
  H   H52       1.0  0.73363  0.16450000000000004  0.14283  1.0000
  H   H53       1.0  0.54797  0.05663  0.23588  1.0000
  H   H54       1.0  0.6429099999999998  0.95908  0.23354  1.0000
  H   H55       1.0  0.05652999999999998  0.54802  0.6596  1.0000
  H   H56       1.0  0.9589899999999999  0.6429200000000003  0.66457  1.0000
  H   H57       1.0  0.54802  0.15960000000000002  0.55653  1.0000
  H   H58       1.0  0.64299  0.16449000000000005  0.459  1.0000
  H   H59       1.0  0.05661999999999988  0.73586  0.048  1.0000
  H   H60       1.0  0.9590599999999999  0.73356  0.14292  1.0000
  H   H61       1.0  0.15947999999999993  0.548  0.23583  1.0000
  H   H62       1.0  0.16445999999999986  0.6428600000000002  0.23363  1.0000
  H   H63       1.0  0.73589  0.05664000000000002  0.65973  1.0000
  H   H64       1.0  0.73341  0.95924  0.66445  1.0000
  H   H65       1.0  0.73586  0.5479800000000001  0.55664  1.0000
  H   H66       1.0  0.73357  0.6428799999999999  0.45910000000000006  1.0000
  H   H67       1.0  0.15954  0.05652  0.04809000000000001  1.0000
  H   H68       1.0  0.16448999999999997  0.95902  0.14295  1.0000
  H   H69       1.0  0.056669999999999984  0.15966000000000005  0.23588  1.0000
  H   H70       1.0  0.9592499999999998  0.16444  0.23342  1.0000
  H   H71       1.0  0.548  0.73581  0.65952  1.0000
  H   H72       1.0  0.6428200000000001  0.7336200000000003  0.66451  1.0000
  H   H73       1.0  0.34047000000000005  0.76417  0.45201  1.0000
  H   H74       1.0  0.33548999999999995  0.76638  0.35717  1.0000
  H   H75       1.0  0.7641100000000001  0.34027999999999997  0.9433800000000001  1.0000
  H   H76       1.0  0.7665899999999999  0.33553  0.04077  1.0000
  H   H77       1.0  0.95196  0.4435000000000001  0.8404  1.0000
  H   H78       1.0  0.85703  0.54103  0.8354900000000001  1.0000
  H   H79       1.0  0.44338999999999984  0.9520200000000001  0.26414  1.0000
  H   H80       1.0  0.54095  0.85711  0.26643  1.0000
  H   H81       1.0  0.95198  0.34049  0.26418  1.0000
  H   H82       1.0  0.8571599999999999  0.33549  0.26637  1.0000
  H   H83       1.0  0.4433599999999999  0.7640999999999999  0.84033  1.0000
  H   H84       1.0  0.5407899999999999  0.7665600000000001  0.8355400000000001  1.0000
  H   H85       1.0  0.34044  0.95192  0.9434900000000002  1.0000
  H   H86       1.0  0.33547999999999994  0.85706  0.040990000000000006  1.0000
  H   H87       1.0  0.76413  0.44340000000000007  0.45202  1.0000
  H   H88       1.0  0.76645  0.54092  0.35711  1.0000
  H   H89       1.0  0.7641599999999992  0.9519999999999998  0.84054  1.0000
  H   H90       1.0  0.7663599999999996  0.85717  0.8354900000000001  1.0000
  H   H91       1.0  0.3403  0.44334  0.26412  1.0000
  H   H92       1.0  0.33553000000000016  0.54077  0.26658  1.0000
  H   H93       1.0  0.44345999999999985  0.3404100000000001  0.45198  1.0000
  H   H94       1.0  0.5410199999999998  0.33544000000000007  0.35705  1.0000
  H   H95       1.0  0.95202  0.76413  0.9433800000000001  1.0000
  H   H96       1.0  0.8571099999999999  0.76646  0.04094  1.0000
  C   C1        1.0  0.8003599999999998  0.25807  0.48655000000000004  1.0000
  C   C2        1.0  0.79819  0.2586099999999999  0.5407300000000002  1.0000
  C   C3        1.0  0.2580200000000001  0.80052  0.9549300000000001  1.0000
  C   C4        1.0  0.2584699999999999  0.79818  0.9025  1.0000
  C   C5        1.0  0.4549399999999998  0.9865500000000003  0.7580400000000002  1.0000
  C   C6        1.0  0.40245999999999993  0.04078999999999997  0.7585300000000001  1.0000
  C   C7        1.0  0.9866499999999999  0.45489  0.30041  1.0000
  C   C8        1.0  0.04088999999999998  0.40242  0.29815  1.0000
  C   C9        1.0  0.45487999999999984  0.80041  0.48667000000000005  1.0000
  C   C10       1.0  0.40239999999999987  0.7981900000000001  0.54088  1.0000
  C   C11       1.0  0.9865600000000001  0.2580299999999999  0.9549600000000001  1.0000
  C   C12       1.0  0.04079999999999995  0.25852  0.9024700000000001  1.0000
  C   C13       1.0  0.8005200000000005  0.45493  0.75802  1.0000
  C   C14       1.0  0.7982100000000001  0.40249  0.75847  1.0000
  C   C15       1.0  0.25806999999999986  0.9865800000000002  0.3003  1.0000
  C   C16       1.0  0.2586099999999999  0.04076  0.29817  1.0000
  C   C17       1.0  0.25805  0.45494  0.48655000000000004  1.0000
  C   C18       1.0  0.2585199999999999  0.40249  0.54078  1.0000
  C   C19       1.0  0.8004499999999999  0.9866400000000002  0.95486  1.0000
  C   C20       1.0  0.7982100000000001  0.04085  0.9024  1.0000
  C   C21       1.0  0.9865399999999996  0.80037  0.75807  1.0000
  C   C22       1.0  0.04073999999999997  0.79821  0.7586  1.0000
  C   C23       1.0  0.4549500000000001  0.2580299999999999  0.30051  1.0000
  C   C24       1.0  0.4025  0.25847999999999993  0.29819  1.0000
  C   C25       1.0  0.6995099999999999  0.24198  0.54506  1.0000
  C   C26       1.0  0.7018199999999999  0.24153  0.5975  1.0000
  C   C27       1.0  0.24194  0.69968  0.013410000000000002  1.0000
  C   C28       1.0  0.24140999999999993  0.70183  0.9592300000000001  1.0000
  C   C29       1.0  0.045119999999999987  0.51333  0.19959000000000002  1.0000
  C   C30       1.0  0.09759999999999999  0.45911  0.20181000000000002  1.0000
  C   C31       1.0  0.51342  0.04503999999999994  0.7419700000000001  1.0000
  C   C32       1.0  0.4591899999999999  0.09752  0.74148  1.0000
  C   C33       1.0  0.04506999999999999  0.69949  0.74198  1.0000
  C   C34       1.0  0.09751  0.70181  0.74153  1.0000
  C   C35       1.0  0.5134599999999999  0.24194  0.19962000000000002  1.0000
  C   C36       1.0  0.45926  0.24140000000000003  0.20179  1.0000
  C   C37       1.0  0.69957  0.04513  0.01334  1.0000
  C   C38       1.0  0.7018199999999999  0.09757999999999997  0.95913  1.0000
  C   C39       1.0  0.24197000000000002  0.51342  0.54505  1.0000
  C   C40       1.0  0.24147  0.45921  0.59752  1.0000
  C   C41       1.0  0.24198999999999998  0.04504999999999999  0.19948  1.0000
  C   C42       1.0  0.24155  0.09747999999999997  0.20183  1.0000
  C   C43       1.0  0.6996699999999999  0.5134300000000002  0.74193  1.0000
  C   C44       1.0  0.70184  0.45923  0.74139  1.0000
  C   C45       1.0  0.5133399999999999  0.69959  0.54512  1.0000
  C   C46       1.0  0.4591099999999998  0.70185  0.59757  1.0000
  C   C47       1.0  0.04503999999999997  0.24196000000000004  0.01343  1.0000
  C   C48       1.0  0.09749999999999996  0.24148000000000003  0.9591900000000001  1.0000
  C   C49       1.0  0.19964999999999997  0.74192  0.51343  1.0000
  C   C50       1.0  0.20181999999999994  0.7413900000000001  0.45924000000000004  1.0000
  C   C51       1.0  0.74198  0.19948  0.04507  1.0000
  C   C52       1.0  0.74152  0.20182  0.09751  1.0000
  C   C53       1.0  0.5450699999999998  0.01342999999999999  0.24195  1.0000
  C   C54       1.0  0.59755  0.9591900000000001  0.24147000000000002  1.0000
  C   C55       1.0  0.013340000000000006  0.54512  0.6996  1.0000
  C   C56       1.0  0.9591000000000001  0.59759  0.70186  1.0000
  C   C57       1.0  0.5451400000000001  0.19958  0.51333  1.0000
  C   C58       1.0  0.5976300000000001  0.20179999999999998  0.45912000000000003  1.0000
  C   C59       1.0  0.013419999999999918  0.7419700000000001  0.04506  1.0000
  C   C60       1.0  0.95918  0.7414600000000001  0.09756000000000001  1.0000
  C   C61       1.0  0.19947  0.54508  0.24198  1.0000
  C   C62       1.0  0.20179  0.59753  0.24153000000000002  1.0000
  C   C63       1.0  0.74193  0.013420000000000005  0.69968  1.0000
  C   C64       1.0  0.7413799999999999  0.95924  0.70182  1.0000
  C   C65       1.0  0.7419599999999998  0.5450600000000001  0.51344  1.0000
  C   C66       1.0  0.7414700000000001  0.5975200000000002  0.45921  1.0000
  C   C67       1.0  0.19955999999999996  0.01334  0.04514  1.0000
  C   C68       1.0  0.20180999999999985  0.9591300000000001  0.0976  1.0000
  C   C69       1.0  0.013440000000000006  0.19964  0.24193  1.0000
  C   C70       1.0  0.9592399999999998  0.20180000000000003  0.24139000000000002  1.0000
  C   C71       1.0  0.5450599999999998  0.7419700000000002  0.69951  1.0000
  C   C72       1.0  0.5975100000000001  0.7415200000000001  0.70183  1.0000
  C   C73       1.0  0.30048000000000014  0.75802  0.45493  1.0000
  C   C74       1.0  0.29817  0.75847  0.40249  1.0000
  C   C75       1.0  0.7580700000000001  0.3003200000000001  0.98659  1.0000
  C   C76       1.0  0.7585999999999999  0.29817  0.04078  1.0000
  C   C77       1.0  0.9548699999999998  0.48667999999999995  0.8004200000000001  1.0000
  C   C78       1.0  0.9023899999999999  0.5409  0.7981900000000001  1.0000
  C   C79       1.0  0.4865999999999999  0.9549400000000001  0.25803  1.0000
  C   C80       1.0  0.5408299999999999  0.9024600000000002  0.25853  1.0000
  C   C81       1.0  0.95492  0.3004899999999999  0.25802  1.0000
  C   C82       1.0  0.90249  0.2981700000000001  0.25847  1.0000
  C   C83       1.0  0.4865699999999996  0.75806  0.80036  1.0000
  C   C84       1.0  0.5407699999999996  0.7585900000000002  0.7981900000000001  1.0000
  C   C85       1.0  0.3004199999999998  0.9548599999999999  0.9866700000000002  1.0000
  C   C86       1.0  0.29816999999999994  0.9024200000000001  0.04089  1.0000
  C   C87       1.0  0.75804  0.48659  0.45495  1.0000
  C   C88       1.0  0.75852  0.54081  0.40248000000000006  1.0000
  C   C89       1.0  0.7580199999999998  0.9549300000000001  0.8005400000000001  1.0000
  C   C90       1.0  0.75846  0.9025  0.7981900000000001  1.0000
  C   C91       1.0  0.30033000000000004  0.48657  0.25808  1.0000
  C   C92       1.0  0.29815999999999987  0.54078  0.2586  1.0000
  C   C93       1.0  0.4866699999999998  0.3004100000000001  0.45487  1.0000
  C   C94       1.0  0.5409  0.29816  0.40241  1.0000
  C   C95       1.0  0.9549400000000001  0.75805  0.98658  1.0000
  C   C96       1.0  0.9024799999999997  0.7585200000000001  0.04083  1.0000
  C   C97       1.0  0.7499199999999999  0.24997000000000003  0.43179000000000006  1.0000
  C   C98       1.0  0.7499199999999999  0.25000999999999995  0.48774000000000006  1.0000
  C   C99       1.0  0.24999999999999992  0.7501100000000002  0.06822000000000002  1.0000
  C   C100      1.0  0.2499899999999999  0.7501300000000001  0.012240000000000001  1.0000
  C   C101      1.0  0.5682499999999999  0.9317299999999998  0.75002  1.0000
  C   C102      1.0  0.5122699999999998  0.9877000000000001  0.75002  1.0000
  C   C103      1.0  0.9318099999999998  0.56815  0.25004  1.0000
  C   C104      1.0  0.98778  0.51221  0.25001  1.0000
  C   C105      1.0  0.56818  0.74999  0.43185000000000007  1.0000
  C   C106      1.0  0.5122199999999999  0.74999  0.48779  1.0000
  C   C107      1.0  0.93174  0.24998  0.06829  1.0000
  C   C108      1.0  0.98771  0.24999000000000005  0.01229  1.0000
  C   C109      1.0  0.75009  0.56821  0.75003  1.0000
  C   C110      1.0  0.7501099999999999  0.51224  0.75  1.0000
  C   C111      1.0  0.24996999999999994  0.93178  0.24992  1.0000
  C   C112      1.0  0.2500099999999999  0.9877600000000002  0.24987000000000004  1.0000
  C   C113      1.0  0.24998999999999993  0.56825  0.43176  1.0000
  C   C114      1.0  0.2499999999999999  0.51227  0.48772  1.0000
  C   C115      1.0  0.7499999999999997  0.9318500000000001  0.06817  1.0000
  C   C116      1.0  0.7500099999999998  0.9877900000000002  0.0122  1.0000
  C   C117      1.0  0.9317799999999998  0.7499100000000001  0.75  1.0000
  C   C118      1.0  0.98774  0.7498999999999998  0.75002  1.0000
  C   C119      1.0  0.56821  0.25  0.25012  1.0000
  C   C120      1.0  0.5122499999999999  0.24999000000000005  0.25009  1.0000
  C   C121      1.0  0.25007999999999986  0.7500400000000002  0.56819  1.0000
  C   C122      1.0  0.25008999999999987  0.74999  0.51224  1.0000
  C   C123      1.0  0.7500199999999996  0.24987999999999996  0.93179  1.0000
  C   C124      1.0  0.75001  0.24987000000000006  0.98778  1.0000
  C   C125      1.0  0.43176  0.06826  0.25  1.0000
  C   C126      1.0  0.4877399999999998  0.012279999999999989  0.24999  1.0000
  C   C127      1.0  0.06816999999999997  0.43185  0.74996  1.0000
  C   C128      1.0  0.012209999999999997  0.4878  0.74999  1.0000
  C   C129      1.0  0.43182999999999994  0.25001  0.56814  1.0000
  C   C130      1.0  0.4877999999999999  0.25  0.51218  1.0000
  C   C131      1.0  0.06824000000000002  0.75002  0.93173  1.0000
  C   C132      1.0  0.012269999999999939  0.75001  0.9877400000000001  1.0000
  C   C133      1.0  0.24990999999999997  0.4318  0.24998  1.0000
  C   C134      1.0  0.2498899999999999  0.48778000000000005  0.25001  1.0000
  C   C135      1.0  0.7500399999999998  0.0682  0.75009  1.0000
  C   C136      1.0  0.7499999999999999  0.012219999999999953  0.7501200000000001  1.0000
  C   C137      1.0  0.7500199999999998  0.43175  0.56824  1.0000
  C   C138      1.0  0.7499999999999999  0.48774  0.51227  1.0000
  C   C139      1.0  0.24999999999999994  0.06814  0.93183  1.0000
  C   C140      1.0  0.24998999999999993  0.012199999999999944  0.9878100000000001  1.0000
  C   C141      1.0  0.06820999999999999  0.25009  0.25  1.0000
  C   C142      1.0  0.012239999999999985  0.25009  0.24999  1.0000
  C   C143      1.0  0.4318  0.75001  0.74988  1.0000
  C   C144      1.0  0.4877599999999999  0.75001  0.74991  1.0000
  N   N1        1.0  0.7209599999999999  0.24777000000000002  0.36990000000000006  1.0000
  N   N2        1.0  0.70133  0.24621  0.42863000000000007  1.0000
  N   N3        1.0  0.24774999999999991  0.72104  0.16129000000000002  1.0000
  N   N4        1.0  0.2462199999999999  0.7014900000000002  0.12366  1.0000
  N   N5        1.0  0.6613199999999997  0.8699200000000001  0.74777  1.0000
  N   N6        1.0  0.6237399999999999  0.9286299999999998  0.74623  1.0000
  N   N7        1.0  0.8699700000000005  0.66122  0.22105  1.0000
  N   N8        1.0  0.9286899999999999  0.62363  0.20146  1.0000
  N   N9        1.0  0.66125  0.72101  0.3699700000000001  1.0000
  N   N10       1.0  0.62369  0.70141  0.42868  1.0000
  N   N11       1.0  0.8699  0.24775  0.16133  1.0000
  N   N12       1.0  0.9286199999999999  0.24620999999999996  0.12377000000000002  1.0000
  N   N13       1.0  0.72105  0.6613  0.74776  1.0000
  N   N14       1.0  0.7014800000000001  0.6236700000000001  0.74625  1.0000
  N   N15       1.0  0.24776999999999982  0.8698300000000002  0.22103  1.0000
  N   N16       1.0  0.24622000000000005  0.9285600000000002  0.20137  1.0000
  N   N17       1.0  0.24775  0.66129  0.3699700000000001  1.0000
  N   N18       1.0  0.24621000000000004  0.62373  0.42866  1.0000
  N   N19       1.0  0.7209999999999994  0.8700200000000001  0.16121  1.0000
  N   N20       1.0  0.7013999999999998  0.92873  0.12366  1.0000
  N   N21       1.0  0.8698699999999996  0.72099  0.74778  1.0000
  N   N22       1.0  0.9285900000000004  0.70134  0.74624  1.0000
  N   N23       1.0  0.66129  0.24775  0.22108  1.0000
  N   N24       1.0  0.62368  0.24622000000000002  0.20151  1.0000
  N   N25       1.0  0.7789299999999998  0.2522200000000001  0.33873  1.0000
  N   N26       1.0  0.7985199999999997  0.2537400000000001  0.37633  1.0000
  N   N27       1.0  0.2522  0.7790100000000001  0.13016  1.0000
  N   N28       1.0  0.25375000000000003  0.79866  0.07144  1.0000
  N   N29       1.0  0.8387499999999998  0.6300300000000001  0.27901  1.0000
  N   N30       1.0  0.87631  0.57133  0.29863  1.0000
  N   N31       1.0  0.6300999999999998  0.83869  0.75224  1.0000
  N   N32       1.0  0.57139  0.8762300000000001  0.75378  1.0000
  N   N33       1.0  0.8387  0.77896  0.75224  1.0000
  N   N34       1.0  0.8763100000000003  0.79853  0.75378  1.0000
  N   N35       1.0  0.6301099999999998  0.25221  0.27905  1.0000
  N   N36       1.0  0.5713799999999998  0.25376  0.29869  1.0000
  N   N37       1.0  0.7789799999999999  0.8388000000000001  0.13001  1.0000
  N   N38       1.0  0.7985899999999999  0.8763600000000001  0.0713  1.0000
  N   N39       1.0  0.25222  0.63006  0.33874  1.0000
  N   N40       1.0  0.25375999999999993  0.57136  0.37628  1.0000
  N   N41       1.0  0.25221999999999994  0.83871  0.27898  1.0000
  N   N42       1.0  0.2537399999999999  0.8763600000000001  0.29853  1.0000
  N   N43       1.0  0.77902  0.6301299999999999  0.75221  1.0000
  N   N44       1.0  0.7986600000000004  0.5714000000000001  0.75378  1.0000
  N   N45       1.0  0.6300299999999999  0.7789800000000001  0.33879  1.0000
  N   N46       1.0  0.57131  0.79857  0.37638  1.0000
  N   N47       1.0  0.83868  0.25221  0.13011  1.0000
  N   N48       1.0  0.8762499999999999  0.25375000000000003  0.07141  1.0000
  N   N49       1.0  0.2790299999999999  0.75222  0.63009  1.0000
  N   N50       1.0  0.2986599999999999  0.75379  0.57137  1.0000
  N   N51       1.0  0.75226  0.27893000000000007  0.83872  1.0000
  N   N52       1.0  0.75378  0.29849  0.87635  1.0000
  N   N53       1.0  0.33871  0.13008  0.25224  1.0000
  N   N54       1.0  0.37626999999999994  0.07137000000000002  0.25376  1.0000
  N   N55       1.0  0.13002999999999992  0.3388  0.7789400000000001  1.0000
  N   N56       1.0  0.07130999999999993  0.37638000000000005  0.79854  1.0000
  N   N57       1.0  0.33875999999999984  0.279  0.63001  1.0000
  N   N58       1.0  0.37632999999999994  0.29859  0.5713  1.0000
  N   N59       1.0  0.13007000000000002  0.75224  0.8387  1.0000
  N   N60       1.0  0.07135000000000001  0.7537999999999999  0.87625  1.0000
  N   N61       1.0  0.2789599999999999  0.3387200000000001  0.25223  1.0000
  N   N62       1.0  0.29851999999999995  0.3763500000000001  0.25375  1.0000
  N   N63       1.0  0.75224  0.13014  0.77898  1.0000
  N   N64       1.0  0.7537799999999999  0.07142000000000003  0.7986399999999999  1.0000
  N   N65       1.0  0.75226  0.3387100000000001  0.63002  1.0000
  N   N66       1.0  0.7537899999999998  0.37627  0.57133  1.0000
  N   N67       1.0  0.27899999999999997  0.12997000000000006  0.83879  1.0000
  N   N68       1.0  0.2986000000000001  0.07125999999999996  0.87635  1.0000
  N   N69       1.0  0.13009999999999997  0.27904  0.25221  1.0000
  N   N70       1.0  0.07137  0.29867  0.25377  1.0000
  N   N71       1.0  0.3387299999999999  0.75224  0.7789300000000001  1.0000
  N   N72       1.0  0.37633999999999995  0.75379  0.79849  1.0000
  N   N73       1.0  0.2210499999999998  0.7478000000000001  0.6612500000000001  1.0000
  N   N74       1.0  0.20146999999999998  0.7462600000000001  0.62365  1.0000
  N   N75       1.0  0.7477999999999999  0.22096999999999997  0.8698700000000001  1.0000
  N   N76       1.0  0.7462599999999998  0.20131999999999994  0.9285800000000001  1.0000
  N   N77       1.0  0.16123999999999986  0.36999000000000004  0.7209700000000001  1.0000
  N   N78       1.0  0.12366999999999999  0.42869  0.70137  1.0000
  N   N79       1.0  0.36993  0.16129999999999997  0.24776  1.0000
  N   N80       1.0  0.42865  0.12373999999999999  0.24623  1.0000
  N   N81       1.0  0.16127000000000002  0.22105000000000002  0.24778  1.0000
  N   N82       1.0  0.12367000000000002  0.20148  0.24622  1.0000
  N   N83       1.0  0.3698999999999999  0.7478000000000001  0.72095  1.0000
  N   N84       1.0  0.42863  0.7462600000000001  0.7013  1.0000
  N   N85       1.0  0.22101999999999994  0.16118999999999997  0.8699900000000002  1.0000
  N   N86       1.0  0.20140999999999992  0.12362999999999999  0.9286900000000001  1.0000
  N   N87       1.0  0.74778  0.36993  0.66126  1.0000
  N   N88       1.0  0.7462499999999993  0.42863  0.62372  1.0000
  N   N89       1.0  0.74777  0.16128  0.72103  1.0000
  N   N90       1.0  0.7462700000000001  0.12363000000000003  0.70147  1.0000
  N   N91       1.0  0.22097999999999995  0.36988000000000004  0.24779  1.0000
  N   N92       1.0  0.20133  0.42861  0.24623  1.0000
  N   N93       1.0  0.3699799999999999  0.22102999999999998  0.66119  1.0000
  N   N94       1.0  0.4287  0.20142999999999997  0.6236000000000002  1.0000
  N   N95       1.0  0.16128999999999982  0.7478000000000001  0.8699100000000001  1.0000
  N   N96       1.0  0.12372999999999997  0.74625  0.9286100000000002  1.0000
  N   N97       1.0  0.7500299999999998  0.2500600000000001  0.59601  1.0000
  N   N98       1.0  0.24993999999999994  0.74998  0.90398  1.0000
  N   N99       1.0  0.40393999999999997  0.09605000000000001  0.74999  1.0000
  N   N100      1.0  0.09614000000000002  0.40388  0.24998  1.0000
  N   N101      1.0  0.40386000000000005  0.75002  0.59611  1.0000
  N   N102      1.0  0.09604999999999997  0.25000999999999995  0.9039300000000001  1.0000
  N   N103      1.0  0.7499999999999999  0.40396  0.74994  1.0000
  N   N104      1.0  0.2500699999999999  0.09602000000000002  0.25003  1.0000
  N   N105      1.0  0.25000999999999995  0.40396000000000004  0.59602  1.0000
  N   N106      1.0  0.7500099999999998  0.09608999999999995  0.9038900000000001  1.0000
  N   N107      1.0  0.0960099999999999  0.7500400000000002  0.75006  1.0000
  N   N108      1.0  0.40399  0.24994000000000002  0.24997  1.0000
  N   N109      1.0  0.24997000000000008  0.74992  0.40398000000000006  1.0000
  N   N110      1.0  0.7500499999999998  0.25003  0.09603  1.0000
  N   N111      1.0  0.5960799999999997  0.9039300000000001  0.25  1.0000
  N   N112      1.0  0.9038500000000002  0.59613  0.75003  1.0000
  N   N113      1.0  0.5961499999999998  0.24996999999999997  0.40389  1.0000
  N   N114      1.0  0.9039399999999996  0.74999  0.09608000000000001  1.0000
  N   N115      1.0  0.25  0.5960400000000001  0.25007  1.0000
  N   N116      1.0  0.74993  0.9039900000000001  0.7499800000000001  1.0000
  N   N117      1.0  0.7499899999999998  0.59606  0.40397  1.0000
  N   N118      1.0  0.24998999999999982  0.9038900000000001  0.09613000000000001  1.0000
  N   N119      1.0  0.90397  0.24996  0.24994  1.0000
  N   N120      1.0  0.5960299999999997  0.7500700000000001  0.75002  1.0000
  O   O1        1.0  0.74993  0.25013  0.25  1.0000
  O   O2        1.0  0.25014  0.74994  0.24996  1.0000
  O   O3        1.0  0.75002  0.75  0.74997  1.0000
  O   O4        1.0  0.7499300000000001  0.74996  0.24996  1.0000
  O   O5        1.0  0.25006000000000006  0.74987  0.75  1.0000
  O   O6        1.0  0.7498700000000001  0.2500400000000001  0.75004  1.0000
  O   O7        1.0  0.24997999999999992  0.2500100000000001  0.25003  1.0000
  O   O8        1.0  0.25007000000000007  0.25005  0.75004  1.0000
