data_image0
_chemical_formula_structural       La4H128C160N32O32
_chemical_formula_sum              "La4 H128 C160 N32 O32"
_cell_length_a       13.34399
_cell_length_b       13.28118
_cell_length_c       38.19891
_cell_angle_alpha    90.0
_cell_angle_beta     90.0
_cell_angle_gamma    98.63402

_symmetry_space_group_name_H-M    'P 1'
_symmetry_Int_Tables_number       1

loop_
  _symmetry_equiv_pos_as_xyz
  'x,y,z'

loop_
  _atom_site_type_symbol
  _atom_site_label
  _atom_site_symmetry_multiplicity
  _atom_site_fract_x
  _atom_site_fract_y
  _atom_site_fract_z
  _atom_site_occupancy
  La  La1       1.0  0.76002  0.27394  0.62461  1.0000
  La  La2       1.0  0.73998  0.22606  0.12461  1.0000
  La  La3       1.0  0.23997999999999997  0.72606  0.37539  1.0000
  La  La4       1.0  0.26002  0.7739400000000002  0.87539  1.0000
  H   H1        1.0  0.79011  0.13376000000000002  0.52761  1.0000
  H   H2        1.0  0.90589  0.20327000000000006  0.47961999999999994  1.0000
  H   H3        1.0  0.7958099999999999  0.49242000000000014  0.4946599999999999  1.0000
  H   H4        1.0  0.68605  0.4088700000000001  0.5419799999999999  1.0000
  H   H5        1.0  0.85535  0.20987000000000006  0.72382  1.0000
  H   H6        1.0  0.7800299999999998  0.08699  0.76973  1.0000
  H   H7        1.0  0.48884  0.18038000000000007  0.7464  1.0000
  H   H8        1.0  0.57801  0.29724  0.7010199999999998  1.0000
  H   H9        1.0  0.05966  0.6445200000000001  0.43076  1.0000
  H   H10       1.0  0.91514  0.56428  0.4667899999999999  1.0000
  H   H11       1.0  0.01115  0.27198  0.44424  1.0000
  H   H12       1.0  0.15160000000000004  0.3665700000000001  0.40921  1.0000
  H   H13       1.0  0.37072  0.9984300000000002  0.84341  1.0000
  H   H14       1.0  0.44642  0.12520000000000003  0.79939  1.0000
  H   H15       1.0  0.6946999999999999  0.9501400000000002  0.7891299999999999  1.0000
  H   H16       1.0  0.6068999999999999  0.8299800000000003  0.83358  1.0000
  H   H17       1.0  0.6949199999999999  0.4649000000000001  0.6855999999999998  1.0000
  H   H18       1.0  0.7359799999999997  0.6515300000000003  0.69514  1.0000
  H   H19       1.0  0.6211299999999997  0.6911900000000001  0.59015  1.0000
  H   H20       1.0  0.5834399999999998  0.50278  0.58622  1.0000
  H   H21       1.0  0.4584399999999999  0.09011  0.6756799999999998  1.0000
  H   H22       1.0  0.2734599999999999  0.08685000000000002  0.6658699999999999  1.0000
  H   H23       1.0  0.35194  0.23494  0.56601  1.0000
  H   H24       1.0  0.5326299999999999  0.22863  0.5801  1.0000
  H   H25       1.0  0.69703  0.030130000000000007  0.60413  1.0000
  H   H26       1.0  0.6491499999999998  0.8445600000000002  0.59621  1.0000
  H   H27       1.0  0.7702299999999997  0.8052100000000001  0.70025  1.0000
  H   H28       1.0  0.8119099999999998  0.9933800000000003  0.70341  1.0000
  H   H29       1.0  0.9448799999999998  0.12613000000000002  0.64343  1.0000
  H   H30       1.0  0.12349999999999998  0.10771  0.65788  1.0000
  H   H31       1.0  0.20475999999999994  0.21667000000000006  0.55282  1.0000
  H   H32       1.0  0.02287  0.22718000000000005  0.54313  1.0000
  H   H33       1.0  0.70989  0.36624000000000007  0.02761  1.0000
  H   H34       1.0  0.59412  0.29673  0.97962  1.0000
  H   H35       1.0  0.7041899999999998  0.007580000000000002  0.99466  1.0000
  H   H36       1.0  0.81395  0.09113  0.04198  1.0000
  H   H37       1.0  0.64466  0.29013  0.22382  1.0000
  H   H38       1.0  0.71997  0.41301  0.26973  1.0000
  H   H39       1.0  0.011169999999999992  0.31962  0.24641  1.0000
  H   H40       1.0  0.9219899999999998  0.20276000000000002  0.20102  1.0000
  H   H41       1.0  0.44034  0.85548  0.9307599999999999  1.0000
  H   H42       1.0  0.5848599999999999  0.93572  0.96679  1.0000
  H   H43       1.0  0.48885  0.22802000000000006  0.9442299999999999  1.0000
  H   H44       1.0  0.34841  0.13343000000000002  0.90921  1.0000
  H   H45       1.0  0.12928000000000003  0.5015700000000001  0.34341  1.0000
  H   H46       1.0  0.053580000000000017  0.37480000000000013  0.29939  1.0000
  H   H47       1.0  0.8052999999999998  0.54986  0.28912999999999994  1.0000
  H   H48       1.0  0.8930999999999998  0.67002  0.3335799999999999  1.0000
  H   H49       1.0  0.8050799999999998  0.035100000000000006  0.1856  1.0000
  H   H50       1.0  0.7640199999999999  0.84847  0.19513999999999998  1.0000
  H   H51       1.0  0.8788699999999999  0.80881  0.09015  1.0000
  H   H52       1.0  0.9165700000000001  0.9972200000000002  0.08621999999999999  1.0000
  H   H53       1.0  0.04156  0.40989  0.17568  1.0000
  H   H54       1.0  0.22654999999999997  0.4131500000000001  0.16587  1.0000
  H   H55       1.0  0.14805999999999994  0.2650600000000001  0.06601  1.0000
  H   H56       1.0  0.96738  0.27137000000000006  0.0801  1.0000
  H   H57       1.0  0.80297  0.46987000000000007  0.10413  1.0000
  H   H58       1.0  0.8508499999999998  0.6554400000000002  0.09621  1.0000
  H   H59       1.0  0.7297699999999999  0.69479  0.20025  1.0000
  H   H60       1.0  0.6880899999999999  0.50662  0.20341  1.0000
  H   H61       1.0  0.55513  0.37387000000000004  0.14343  1.0000
  H   H62       1.0  0.37650999999999996  0.39229000000000014  0.15788  1.0000
  H   H63       1.0  0.29524999999999996  0.2833300000000001  0.05282  1.0000
  H   H64       1.0  0.4771299999999999  0.2728200000000001  0.04312999999999999  1.0000
  H   H65       1.0  0.20988999999999997  0.86624  0.47238999999999987  1.0000
  H   H66       1.0  0.09411  0.79673  0.52038  1.0000
  H   H67       1.0  0.20418999999999998  0.50758  0.50534  1.0000
  H   H68       1.0  0.3139499999999999  0.5911300000000003  0.45802  1.0000
  H   H69       1.0  0.14466  0.7901300000000002  0.27616999999999997  1.0000
  H   H70       1.0  0.21996999999999994  0.91301  0.23026999999999997  1.0000
  H   H71       1.0  0.51117  0.8196200000000002  0.25359  1.0000
  H   H72       1.0  0.4219900000000001  0.7027600000000003  0.29898  1.0000
  H   H73       1.0  0.9403399999999997  0.35548000000000013  0.56923  1.0000
  H   H74       1.0  0.08486  0.4357200000000001  0.53321  1.0000
  H   H75       1.0  0.9888500000000001  0.7280200000000001  0.55576  1.0000
  H   H76       1.0  0.8484099999999999  0.63343  0.59079  1.0000
  H   H77       1.0  0.62928  0.0015700000000000002  0.15658999999999998  1.0000
  H   H78       1.0  0.55358  0.8748000000000002  0.20060999999999996  1.0000
  H   H79       1.0  0.3052999999999999  0.04986  0.21087  1.0000
  H   H80       1.0  0.3930999999999999  0.17002  0.16642  1.0000
  H   H81       1.0  0.3050799999999999  0.5351  0.31438999999999995  1.0000
  H   H82       1.0  0.26402  0.34847  0.30486  1.0000
  H   H83       1.0  0.37886999999999976  0.30881  0.40984999999999994  1.0000
  H   H84       1.0  0.41657  0.4972200000000001  0.41377999999999987  1.0000
  H   H85       1.0  0.54156  0.90989  0.32430999999999993  1.0000
  H   H86       1.0  0.7265499999999998  0.91315  0.33413  1.0000
  H   H87       1.0  0.64806  0.7650600000000002  0.43398999999999993  1.0000
  H   H88       1.0  0.46737  0.7713700000000002  0.41989999999999994  1.0000
  H   H89       1.0  0.30297  0.96987  0.39587  1.0000
  H   H90       1.0  0.35085  0.15544000000000005  0.40379  1.0000
  H   H91       1.0  0.22977  0.19479000000000005  0.29975  1.0000
  H   H92       1.0  0.18808999999999998  0.006620000000000002  0.29659  1.0000
  H   H93       1.0  0.05513000000000001  0.8738700000000003  0.35657  1.0000
  H   H94       1.0  0.87651  0.8922900000000002  0.34212  1.0000
  H   H95       1.0  0.79525  0.7833300000000001  0.44718  1.0000
  H   H96       1.0  0.9771399999999998  0.7728200000000002  0.45686  1.0000
  H   H97       1.0  0.29011  0.6337600000000002  0.9723899999999998  1.0000
  H   H98       1.0  0.40589  0.7032700000000002  0.02038  1.0000
  H   H99       1.0  0.29581  0.9924200000000002  0.00534  1.0000
  H   H100      1.0  0.18605  0.9088700000000001  0.95802  1.0000
  H   H101      1.0  0.35535  0.70987  0.77617  1.0000
  H   H102      1.0  0.28003  0.5869900000000001  0.73027  1.0000
  H   H103      1.0  0.98884  0.68038  0.7535899999999998  1.0000
  H   H104      1.0  0.07801  0.79724  0.79898  1.0000
  H   H105      1.0  0.55966  0.14452000000000004  0.06924  1.0000
  H   H106      1.0  0.41513999999999995  0.06428  0.033209999999999996  1.0000
  H   H107      1.0  0.51115  0.77198  0.05576  1.0000
  H   H108      1.0  0.6515999999999997  0.8665700000000002  0.09079  1.0000
  H   H109      1.0  0.87072  0.49843  0.65659  1.0000
  H   H110      1.0  0.94642  0.6252  0.70061  1.0000
  H   H111      1.0  0.19469999999999998  0.4501400000000001  0.71087  1.0000
  H   H112      1.0  0.1069  0.3299800000000001  0.6664199999999999  1.0000
  H   H113      1.0  0.19491999999999995  0.9649  0.81439  1.0000
  H   H114      1.0  0.23597999999999994  0.15153  0.8048599999999998  1.0000
  H   H115      1.0  0.12113  0.19119000000000005  0.90985  1.0000
  H   H116      1.0  0.08342999999999999  0.00278  0.91378  1.0000
  H   H117      1.0  0.95844  0.5901100000000001  0.82431  1.0000
  H   H118      1.0  0.7734599999999999  0.58685  0.83413  1.0000
  H   H119      1.0  0.85194  0.73494  0.9339899999999999  1.0000
  H   H120      1.0  0.03262999999999999  0.72863  0.9198999999999999  1.0000
  H   H121      1.0  0.19703  0.53013  0.89587  1.0000
  H   H122      1.0  0.14915  0.34456  0.9037899999999999  1.0000
  H   H123      1.0  0.27023  0.30521  0.7997499999999998  1.0000
  H   H124      1.0  0.3119099999999999  0.4933800000000001  0.79659  1.0000
  H   H125      1.0  0.4448799999999999  0.62613  0.85657  1.0000
  H   H126      1.0  0.6235  0.60771  0.8421199999999999  1.0000
  H   H127      1.0  0.70476  0.71667  0.9471799999999999  1.0000
  H   H128      1.0  0.52287  0.7271800000000003  0.9568599999999999  1.0000
  C   C1        1.0  0.7964499999999998  0.21189000000000002  0.51868  1.0000
  C   C2        1.0  0.8604999999999998  0.2536  0.4926099999999999  1.0000
  C   C3        1.0  0.87058  0.35905  0.48378999999999994  1.0000
  C   C4        1.0  0.79963  0.4132600000000001  0.50088  1.0000
  C   C5        1.0  0.7365400000000001  0.3692600000000001  0.52675  1.0000
  C   C6        1.0  0.77547  0.19845000000000004  0.7305699999999998  1.0000
  C   C7        1.0  0.7311699999999998  0.13087000000000001  0.7553  1.0000
  C   C8        1.0  0.62562  0.12085000000000003  0.7630399999999999  1.0000
  C   C9        1.0  0.57038  0.18488000000000004  0.7431899999999999  1.0000
  C   C10       1.0  0.6166999999999999  0.2505  0.7182  1.0000
  C   C11       1.0  0.04286  0.56286  0.43495999999999996  1.0000
  C   C12       1.0  0.96387  0.51549  0.45482999999999996  1.0000
  C   C13       1.0  0.94821  0.4081100000000001  0.46067  1.0000
  C   C14       1.0  0.017969999999999993  0.35447  0.44276999999999994  1.0000
  C   C15       1.0  0.0962  0.40397  0.42298  1.0000
  C   C16       1.0  0.44023  0.9912900000000002  0.82949  1.0000
  C   C17       1.0  0.48435  0.060090000000000005  0.80509  1.0000
  C   C18       1.0  0.57842  0.05015000000000001  0.7889099999999999  1.0000
  C   C19       1.0  0.62326  0.9649  0.80019  1.0000
  C   C20       1.0  0.57685  0.89673  0.82432  1.0000
  C   C21       1.0  0.6779699999999997  0.5206700000000001  0.66651  1.0000
  C   C22       1.0  0.7015299999999998  0.62432  0.67043  1.0000
  C   C23       1.0  0.6826499999999998  0.69366  0.6434999999999998  1.0000
  C   C24       1.0  0.6382199999999998  0.6461000000000001  0.6124999999999999  1.0000
  C   C25       1.0  0.61606  0.54212  0.6093699999999999  1.0000
  C   C26       1.0  0.42782  0.12064000000000002  0.6523  1.0000
  C   C27       1.0  0.32631  0.12064000000000002  0.64596  1.0000
  C   C28       1.0  0.29145  0.16120000000000004  0.6144399999999999  1.0000
  C   C29       1.0  0.36981  0.20101  0.59068  1.0000
  C   C30       1.0  0.47061999999999987  0.19994000000000003  0.59765  1.0000
  C   C31       1.0  0.71175  0.97556  0.62391  1.0000
  C   C32       1.0  0.6862  0.87187  0.6204699999999997  1.0000
  C   C33       1.0  0.7065099999999999  0.8025200000000002  0.6472099999999997  1.0000
  C   C34       1.0  0.7525499999999998  0.8501000000000001  0.67791  1.0000
  C   C35       1.0  0.7771  0.9539400000000002  0.6806  1.0000
  C   C36       1.0  0.0072000000000000015  0.143  0.62496  1.0000
  C   C37       1.0  0.10680999999999997  0.13488  0.6319699999999999  1.0000
  C   C38       1.0  0.18562999999999996  0.16341  0.60708  1.0000
  C   C39       1.0  0.1518  0.19608  0.57415  1.0000
  C   C40       1.0  0.05167  0.20261000000000007  0.5677999999999999  1.0000
  C   C41       1.0  0.7035499999999999  0.28811000000000003  0.01868  1.0000
  C   C42       1.0  0.6394999999999998  0.24640000000000006  0.9926099999999998  1.0000
  C   C43       1.0  0.62943  0.14095  0.9837899999999999  1.0000
  C   C44       1.0  0.70037  0.08675000000000001  0.00088  1.0000
  C   C45       1.0  0.76346  0.13074  0.02675  1.0000
  C   C46       1.0  0.72453  0.30155  0.23057  1.0000
  C   C47       1.0  0.7688399999999999  0.3691400000000001  0.25529999999999997  1.0000
  C   C48       1.0  0.8743899999999997  0.37915000000000004  0.26304  1.0000
  C   C49       1.0  0.92963  0.31512  0.24318999999999993  1.0000
  C   C50       1.0  0.8832999999999999  0.24950000000000003  0.21821  1.0000
  C   C51       1.0  0.45715  0.9371400000000002  0.9349599999999999  1.0000
  C   C52       1.0  0.53613  0.98451  0.95483  1.0000
  C   C53       1.0  0.5518  0.09189000000000001  0.96067  1.0000
  C   C54       1.0  0.4820299999999999  0.14553000000000002  0.94277  1.0000
  C   C55       1.0  0.4037999999999999  0.09603  0.9229699999999998  1.0000
  C   C56       1.0  0.05977000000000001  0.5087200000000001  0.32948999999999995  1.0000
  C   C57       1.0  0.015659999999999993  0.43991  0.3050899999999999  1.0000
  C   C58       1.0  0.9215799999999998  0.44985000000000014  0.28891  1.0000
  C   C59       1.0  0.87674  0.5351  0.30019  1.0000
  C   C60       1.0  0.92316  0.6032800000000001  0.32432  1.0000
  C   C61       1.0  0.8220399999999999  0.9793400000000001  0.16650999999999996  1.0000
  C   C62       1.0  0.7984699999999998  0.8756800000000001  0.17044  1.0000
  C   C63       1.0  0.81736  0.8063400000000001  0.14351  1.0000
  C   C64       1.0  0.86179  0.8539  0.1125  1.0000
  C   C65       1.0  0.88395  0.9578900000000002  0.10937  1.0000
  C   C66       1.0  0.07218  0.3793600000000001  0.15229999999999994  1.0000
  C   C67       1.0  0.17368999999999996  0.3793600000000001  0.14596  1.0000
  C   C68       1.0  0.20854999999999996  0.3388  0.11445  1.0000
  C   C69       1.0  0.13019  0.29899000000000003  0.09067999999999997  1.0000
  C   C70       1.0  0.02939  0.30006  0.09766  1.0000
  C   C71       1.0  0.78825  0.52444  0.12390999999999999  1.0000
  C   C72       1.0  0.81381  0.6281300000000001  0.12046999999999997  1.0000
  C   C73       1.0  0.7934900000000001  0.6974800000000002  0.14721  1.0000
  C   C74       1.0  0.74746  0.6499  0.17791  1.0000
  C   C75       1.0  0.7229  0.54606  0.1806  1.0000
  C   C76       1.0  0.4927999999999999  0.3570000000000001  0.12495999999999999  1.0000
  C   C77       1.0  0.39319  0.36512  0.13197  1.0000
  C   C78       1.0  0.31437  0.33659  0.10708  1.0000
  C   C79       1.0  0.3481999999999999  0.3039200000000001  0.07415  1.0000
  C   C80       1.0  0.44832999999999995  0.29739  0.0678  1.0000
  C   C81       1.0  0.20355  0.7881100000000002  0.48132  1.0000
  C   C82       1.0  0.13949999999999999  0.7464000000000001  0.50739  1.0000
  C   C83       1.0  0.12943  0.64095  0.51621  1.0000
  C   C84       1.0  0.20037000000000002  0.5867500000000001  0.49911999999999995  1.0000
  C   C85       1.0  0.26346  0.6307400000000002  0.47325  1.0000
  C   C86       1.0  0.22453  0.8015500000000002  0.26943  1.0000
  C   C87       1.0  0.26884  0.8691400000000002  0.24469999999999997  1.0000
  C   C88       1.0  0.3743899999999999  0.8791500000000002  0.23696  1.0000
  C   C89       1.0  0.4296199999999999  0.8151200000000001  0.2568099999999999  1.0000
  C   C90       1.0  0.3832999999999999  0.7495000000000003  0.28179  1.0000
  C   C91       1.0  0.9571499999999997  0.4371400000000001  0.56504  1.0000
  C   C92       1.0  0.03613000000000001  0.48451000000000005  0.54517  1.0000
  C   C93       1.0  0.051800000000000006  0.59189  0.5393299999999999  1.0000
  C   C94       1.0  0.9820299999999997  0.6455300000000003  0.55723  1.0000
  C   C95       1.0  0.9037999999999998  0.59603  0.5770199999999999  1.0000
  C   C96       1.0  0.55977  0.00872  0.17050999999999994  1.0000
  C   C97       1.0  0.51566  0.9399100000000001  0.19490999999999997  1.0000
  C   C98       1.0  0.42158000000000007  0.9498500000000001  0.21108999999999997  1.0000
  C   C99       1.0  0.37674  0.035100000000000006  0.19981  1.0000
  C   C100      1.0  0.4231599999999999  0.10327  0.17568  1.0000
  C   C101      1.0  0.32203  0.4793400000000001  0.33349  1.0000
  C   C102      1.0  0.29847  0.37568  0.32956  1.0000
  C   C103      1.0  0.31736  0.3063400000000001  0.35649  1.0000
  C   C104      1.0  0.3617899999999999  0.3539000000000001  0.38749999999999996  1.0000
  C   C105      1.0  0.38395  0.45789000000000013  0.39063  1.0000
  C   C106      1.0  0.57219  0.8793600000000003  0.3477  1.0000
  C   C107      1.0  0.67369  0.8793600000000003  0.35404  1.0000
  C   C108      1.0  0.70855  0.8388000000000002  0.38555  1.0000
  C   C109      1.0  0.63019  0.79899  0.40932  1.0000
  C   C110      1.0  0.52939  0.80006  0.40234  1.0000
  C   C111      1.0  0.28824999999999995  0.024440000000000007  0.37608999999999987  1.0000
  C   C112      1.0  0.3138  0.12813  0.37953  1.0000
  C   C113      1.0  0.29349  0.19748000000000004  0.35279  1.0000
  C   C114      1.0  0.24745999999999996  0.1499  0.32209  1.0000
  C   C115      1.0  0.2229  0.04606  0.3194  1.0000
  C   C116      1.0  0.9928  0.8570000000000002  0.37503  1.0000
  C   C117      1.0  0.8931899999999998  0.8651200000000001  0.36803  1.0000
  C   C118      1.0  0.8143699999999998  0.8365900000000002  0.39291999999999994  1.0000
  C   C119      1.0  0.8482100000000001  0.8039200000000002  0.42585  1.0000
  C   C120      1.0  0.94834  0.79739  0.4322  1.0000
  C   C121      1.0  0.29645  0.71189  0.9813199999999999  1.0000
  C   C122      1.0  0.36049999999999993  0.7536  0.00739  1.0000
  C   C123      1.0  0.3705800000000001  0.8590500000000001  0.01621  1.0000
  C   C124      1.0  0.29962999999999995  0.9132600000000001  0.9991199999999999  1.0000
  C   C125      1.0  0.23653999999999994  0.86926  0.97325  1.0000
  C   C126      1.0  0.27546999999999994  0.69845  0.76943  1.0000
  C   C127      1.0  0.23116999999999993  0.63087  0.7446999999999999  1.0000
  C   C128      1.0  0.12562  0.62085  0.73696  1.0000
  C   C129      1.0  0.07037999999999998  0.68488  0.75681  1.0000
  C   C130      1.0  0.11669999999999997  0.7505  0.7817899999999999  1.0000
  C   C131      1.0  0.54286  0.06286  0.06504  1.0000
  C   C132      1.0  0.4638699999999999  0.015490000000000004  0.04517  1.0000
  C   C133      1.0  0.44821000000000005  0.90811  0.03933  1.0000
  C   C134      1.0  0.51798  0.8544700000000002  0.05723  1.0000
  C   C135      1.0  0.5962  0.90397  0.07702  1.0000
  C   C136      1.0  0.9402299999999999  0.4912900000000001  0.6705  1.0000
  C   C137      1.0  0.9843499999999998  0.5600900000000001  0.69491  1.0000
  C   C138      1.0  0.07842000000000002  0.5501500000000001  0.71109  1.0000
  C   C139      1.0  0.12326000000000001  0.4649000000000001  0.69981  1.0000
  C   C140      1.0  0.07685  0.39673000000000014  0.6756799999999998  1.0000
  C   C141      1.0  0.17797  0.020670000000000008  0.8334899999999997  1.0000
  C   C142      1.0  0.20152999999999993  0.12432  0.8295599999999999  1.0000
  C   C143      1.0  0.18263999999999994  0.19366000000000005  0.8564899999999999  1.0000
  C   C144      1.0  0.13821  0.1461  0.8874899999999999  1.0000
  C   C145      1.0  0.11605999999999997  0.04212000000000001  0.8906199999999999  1.0000
  C   C146      1.0  0.9278199999999999  0.62064  0.8477  1.0000
  C   C147      1.0  0.8263199999999998  0.62065  0.8540399999999999  1.0000
  C   C148      1.0  0.79145  0.66121  0.8855499999999998  1.0000
  C   C149      1.0  0.86981  0.7010100000000002  0.9093199999999999  1.0000
  C   C150      1.0  0.9706199999999999  0.6999400000000001  0.9023399999999999  1.0000
  C   C151      1.0  0.21175  0.47556000000000004  0.87609  1.0000
  C   C152      1.0  0.18620000000000003  0.3718700000000001  0.8795299999999999  1.0000
  C   C153      1.0  0.20650999999999994  0.30252  0.8527899999999999  1.0000
  C   C154      1.0  0.25254  0.3501  0.82209  1.0000
  C   C155      1.0  0.2771  0.45394000000000007  0.8194  1.0000
  C   C156      1.0  0.50721  0.643  0.8750299999999999  1.0000
  C   C157      1.0  0.6068199999999999  0.63488  0.86803  1.0000
  C   C158      1.0  0.6856299999999997  0.66341  0.89292  1.0000
  C   C159      1.0  0.6518  0.6960800000000003  0.92585  1.0000
  C   C160      1.0  0.55167  0.7026100000000001  0.9321999999999999  1.0000
  N   N1        1.0  0.73835  0.27052000000000004  0.53707  1.0000
  N   N2        1.0  0.71902  0.25866  0.7121999999999999  1.0000
  N   N3        1.0  0.11095000000000001  0.5083800000000002  0.41989999999999994  1.0000
  N   N4        1.0  0.4847200000000001  0.9082400000000003  0.8386399999999999  1.0000
  N   N5        1.0  0.6351999999999999  0.4787200000000001  0.63609  1.0000
  N   N6        1.0  0.5001999999999999  0.15979  0.6283999999999998  1.0000
  N   N7        1.0  0.7587399999999999  0.01731  0.65366  1.0000
  N   N8        1.0  0.97918  0.17818  0.59318  1.0000
  N   N9        1.0  0.7616499999999999  0.22948  0.03707  1.0000
  N   N10       1.0  0.78099  0.24134000000000005  0.21221  1.0000
  N   N11       1.0  0.3890499999999999  0.9916200000000002  0.91989  1.0000
  N   N12       1.0  0.015280000000000002  0.59176  0.33864  1.0000
  N   N13       1.0  0.8647999999999998  0.02128  0.13609  1.0000
  N   N14       1.0  0.9997999999999999  0.34021  0.1284  1.0000
  N   N15       1.0  0.7412599999999998  0.48269  0.15366  1.0000
  N   N16       1.0  0.52082  0.3218200000000001  0.09318  1.0000
  N   N17       1.0  0.2616499999999999  0.72948  0.4629299999999999  1.0000
  N   N18       1.0  0.2809900000000001  0.7413400000000002  0.28779  1.0000
  N   N19       1.0  0.8890499999999999  0.49162  0.5801  1.0000
  N   N20       1.0  0.5152799999999998  0.09176  0.16135999999999998  1.0000
  N   N21       1.0  0.3647999999999999  0.52128  0.3639  1.0000
  N   N22       1.0  0.4998  0.84021  0.3716  1.0000
  N   N23       1.0  0.24125999999999997  0.98269  0.34633  1.0000
  N   N24       1.0  0.020820000000000036  0.8218200000000002  0.40682  1.0000
  N   N25       1.0  0.23835  0.7705200000000002  0.96293  1.0000
  N   N26       1.0  0.21902000000000002  0.7586600000000002  0.78779  1.0000
  N   N27       1.0  0.61095  0.00838  0.0801  1.0000
  N   N28       1.0  0.9847199999999998  0.40824  0.66136  1.0000
  N   N29       1.0  0.1352  0.97872  0.8639  1.0000
  N   N30       1.0  0.00021000000000002527  0.6597900000000002  0.8715999999999999  1.0000
  N   N31       1.0  0.25873999999999997  0.51731  0.84633  1.0000
  N   N32       1.0  0.47917999999999994  0.67819  0.9068199999999998  1.0000
  O   O1        1.0  0.68532  0.23196000000000003  0.56508  1.0000
  O   O2        1.0  0.76276  0.32228000000000007  0.6878299999999999  1.0000
  O   O3        1.0  0.19227  0.55475  0.40286999999999995  1.0000
  O   O4        1.0  0.4413999999999999  0.8389000000000002  0.86101  1.0000
  O   O5        1.0  0.6163899999999998  0.37815  0.6318499999999998  1.0000
  O   O6        1.0  0.59709  0.15674  0.63545  1.0000
  O   O7        1.0  0.79002  0.11675  0.65679  1.0000
  O   O8        1.0  0.88402  0.192  0.58676  1.0000
  O   O9        1.0  0.8146799999999998  0.26804  0.06508  1.0000
  O   O10       1.0  0.7372499999999997  0.17772000000000004  0.18782999999999994  1.0000
  O   O11       1.0  0.30773  0.94525  0.90287  1.0000
  O   O12       1.0  0.05861000000000003  0.6611000000000002  0.36101  1.0000
  O   O13       1.0  0.8836199999999999  0.12185000000000003  0.13186  1.0000
  O   O14       1.0  0.9029099999999998  0.34326  0.13545  1.0000
  O   O15       1.0  0.7099899999999999  0.3832500000000001  0.15679  1.0000
  O   O16       1.0  0.61599  0.3080000000000001  0.08675999999999999  1.0000
  O   O17       1.0  0.31468  0.7680400000000001  0.43491999999999986  1.0000
  O   O18       1.0  0.23725  0.6777200000000002  0.31217  1.0000
  O   O19       1.0  0.80773  0.4452500000000001  0.59713  1.0000
  O   O20       1.0  0.55861  0.1611  0.13899  1.0000
  O   O21       1.0  0.38361  0.62185  0.36814  1.0000
  O   O22       1.0  0.4029099999999999  0.84326  0.36455  1.0000
  O   O23       1.0  0.20999  0.88325  0.34320999999999996  1.0000
  O   O24       1.0  0.11599000000000002  0.8080000000000003  0.4132399999999999  1.0000
  O   O25       1.0  0.18531999999999996  0.73196  0.93492  1.0000
  O   O26       1.0  0.26276  0.82228  0.81217  1.0000
  O   O27       1.0  0.69227  0.054750000000000014  0.09712999999999997  1.0000
  O   O28       1.0  0.9413999999999998  0.3389  0.63899  1.0000
  O   O29       1.0  0.11639000000000001  0.8781500000000001  0.8681399999999999  1.0000
  O   O30       1.0  0.09709  0.6567400000000002  0.8645499999999999  1.0000
  O   O31       1.0  0.29002  0.6167500000000001  0.84321  1.0000
  O   O32       1.0  0.38402  0.692  0.91324  1.0000
