data_image0
_chemical_formula_structural       Gd8H56C112O56
_chemical_formula_sum              "Gd8 H56 C112 O56"
_cell_length_a       14.25612
_cell_length_b       14.597499999999998
_cell_length_c       24.408010000000004
_cell_angle_alpha    76.67788
_cell_angle_beta     72.69611
_cell_angle_gamma    60.62067

_space_group_name_H-M_alt    "P 1"
_space_group_IT_number       1

loop_
  _space_group_symop_operation_xyz
  'x, y, z'

loop_
  _atom_site_type_symbol
  _atom_site_label
  _atom_site_symmetry_multiplicity
  _atom_site_fract_x
  _atom_site_fract_y
  _atom_site_fract_z
  _atom_site_occupancy
  Gd  Gd1       1.0  0.84639  0.87661  0.69644  1.0000
  Gd  Gd2       1.0  0.24721999999999997  0.63971  0.69521  1.0000
  Gd  Gd3       1.0  0.41848999999999986  0.62488  0.80354  1.0000
  Gd  Gd4       1.0  0.5807000000000001  0.8619199999999999  0.80476  1.0000
  Gd  Gd5       1.0  0.155  0.12377000000000002  0.30272  1.0000
  Gd  Gd6       1.0  0.75327  0.36127999999999993  0.30477999999999994  1.0000
  Gd  Gd7       1.0  0.58193  0.37558  0.19696  1.0000
  Gd  Gd8       1.0  0.41997000000000007  0.13915  0.19498  1.0000
  H   H1        1.0  0.004900000000000055  0.10474999999999997  0.68703  1.0000
  H   H2        1.0  0.10821999999999998  0.19107999999999994  0.70245  1.0000
  H   H3        1.0  0.26310999999999996  0.08658  0.75432  1.0000
  H   H4        1.0  0.19937000000000016  0.81919  0.7810899999999998  1.0000
  H   H5        1.0  0.6952700000000002  0.89476  0.53288  1.0000
  H   H6        1.0  0.5750500000000001  0.8689  0.48754999999999993  1.0000
  H   H7        1.0  0.4398799999999999  0.80448  0.54924  1.0000
  H   H8        1.0  0.5395199999999997  0.79968  0.69969  1.0000
  H   H9        1.0  0.57351  0.20972999999999997  0.6433  1.0000
  H   H10       1.0  0.44632  0.37315999999999994  0.59171  1.0000
  H   H11       1.0  0.5168  0.42709  0.48932999999999993  1.0000
  H   H12       1.0  0.8387299999999996  0.16742  0.4930899999999999  1.0000
  H   H13       1.0  0.78339  0.08073000000000001  0.7702  1.0000
  H   H14       1.0  0.79729  0.3951700000000001  0.81253  1.0000
  H   H15       1.0  0.0031000000000000914  0.30895000000000006  0.7966999999999999  1.0000
  H   H16       1.0  0.10557  0.4136600000000001  0.74473  1.0000
  H   H17       1.0  0.7998799999999996  0.68159  0.7192899999999999  1.0000
  H   H18       1.0  0.12007000000000013  0.60413  0.9669799999999998  1.0000
  H   H19       1.0  0.9276899999999999  0.63017  0.01243  1.0000
  H   H20       1.0  0.7900700000000002  0.69571  0.95094  1.0000
  H   H21       1.0  0.037640000000000076  0.70101  0.8003899999999999  1.0000
  H   H22       1.0  0.42624  0.29102  0.8574099999999999  1.0000
  H   H23       1.0  0.4103200000000001  0.12827999999999995  0.90951  1.0000
  H   H24       1.0  0.43298  0.07394  0.01142  1.0000
  H   H25       1.0  0.50177  0.33195  0.006069999999999999  1.0000
  H   H26       1.0  0.6361  0.41876  0.73008  1.0000
  H   H27       1.0  0.9952499999999999  0.8970899999999999  0.31338  1.0000
  H   H28       1.0  0.8928  0.8097299999999998  0.29791  1.0000
  H   H29       1.0  0.7377699999999999  0.91359  0.24595999999999998  1.0000
  H   H30       1.0  0.80135  0.18114  0.21823999999999993  1.0000
  H   H31       1.0  0.30441999999999997  0.10610999999999998  0.46734  1.0000
  H   H32       1.0  0.4244  0.13194000000000003  0.51285  1.0000
  H   H33       1.0  0.56005  0.19596  0.45126999999999995  1.0000
  H   H34       1.0  0.46147999999999995  0.20039000000000007  0.30057  1.0000
  H   H35       1.0  0.41995  0.78535  0.35444999999999993  1.0000
  H   H36       1.0  0.55052  0.6248  0.40552  1.0000
  H   H37       1.0  0.48495  0.57375  0.50929  1.0000
  H   H38       1.0  0.15874  0.82738  0.50644  1.0000
  H   H39       1.0  0.21729000000000007  0.9201199999999999  0.22841999999999998  1.0000
  H   H40       1.0  0.20404999999999995  0.60447  0.18619  1.0000
  H   H41       1.0  0.99811  0.69114  0.20219  1.0000
  H   H42       1.0  0.8953  0.587  0.25516  1.0000
  H   H43       1.0  0.20082  0.31913  0.28073  1.0000
  H   H44       1.0  0.8812699999999998  0.39319999999999994  0.03251  1.0000
  H   H45       1.0  0.07352000000000006  0.3669  0.9870499999999998  1.0000
  H   H46       1.0  0.21030000000000001  0.30443999999999993  0.04864999999999999  1.0000
  H   H47       1.0  0.9628800000000001  0.2999200000000001  0.19938999999999998  1.0000
  H   H48       1.0  0.5605  0.7159599999999999  0.14486  1.0000
  H   H49       1.0  0.58198  0.8761899999999999  0.09298  1.0000
  H   H50       1.0  0.56811  0.92763  0.98955  1.0000
  H   H51       1.0  0.4915399999999998  0.6749800000000001  0.9941999999999999  1.0000
  H   H52       1.0  0.36399  0.5823399999999999  0.27  1.0000
  H   H53       1.0  0.7977800000000003  0.24902  0.7502799999999997  1.0000
  H   H54       1.0  0.4468099999999999  0.2518  0.74995  1.0000
  H   H55       1.0  0.20304000000000005  0.7516199999999998  0.24848  1.0000
  H   H56       1.0  0.5527300000000002  0.74964  0.25042999999999993  1.0000
  C   C1        1.0  0.043689999999999986  0.89953  0.72031  1.0000
  C   C2        1.0  0.09775999999999992  0.9558  0.73239  1.0000
  C   C3        1.0  0.07008999999999997  0.061819999999999986  0.71109  1.0000
  C   C4        1.0  0.12847  0.10941000000000005  0.7196199999999998  1.0000
  C   C5        1.0  0.21444  0.05183999999999998  0.749  1.0000
  C   C6        1.0  0.24009  0.94681  0.77189  1.0000
  C   C7        1.0  0.18054000000000014  0.9001999999999999  0.7637899999999999  1.0000
  C   C8        1.0  0.33562000000000003  0.88151  0.80061  1.0000
  C   C9        1.0  0.6959099999999995  0.8632099999999998  0.64671  1.0000
  C   C10       1.0  0.6231900000000002  0.8512099999999998  0.61931  1.0000
  C   C11       1.0  0.6340400000000004  0.86941  0.55912  1.0000
  C   C12       1.0  0.5672099999999999  0.854  0.53405  1.0000
  C   C13       1.0  0.49112999999999996  0.81842  0.56836  1.0000
  C   C14       1.0  0.48160999999999987  0.7987599999999998  0.62828  1.0000
  C   C15       1.0  0.5467800000000002  0.81649  0.65341  1.0000
  C   C16       1.0  0.40657  0.75537  0.6668  1.0000
  C   C17       1.0  0.78616  0.08235  0.60227  1.0000
  C   C18       1.0  0.713  0.17892  0.57145  1.0000
  C   C19       1.0  0.60244  0.23644999999999997  0.59917  1.0000
  C   C20       1.0  0.53139  0.32669  0.57022  1.0000
  C   C21       1.0  0.57084  0.35863999999999996  0.51343  1.0000
  C   C22       1.0  0.6814799999999999  0.30228  0.48594999999999994  1.0000
  C   C23       1.0  0.75311  0.21172000000000002  0.51477  1.0000
  C   C24       1.0  0.7214099999999998  0.33655  0.42539  1.0000
  C   C25       1.0  0.6059399999999997  0.05508  0.77288  1.0000
  C   C26       1.0  0.6139699999999999  0.15587000000000004  0.7616499999999999  1.0000
  C   C27       1.0  0.7131599999999997  0.15537  0.7617  1.0000
  C   C28       1.0  0.66315  0.6008  0.78077  1.0000
  C   C29       1.0  0.7861099999999999  0.54462  0.76785  1.0000
  C   C30       1.0  0.84368  0.43827999999999995  0.7885199999999998  1.0000
  C   C31       1.0  0.9586499999999998  0.3907  0.77964  1.0000
  C   C32       1.0  0.016510000000000104  0.4484699999999999  0.7502799999999997  1.0000
  C   C33       1.0  0.95955  0.55372  0.7277399999999998  1.0000
  C   C34       1.0  0.84481  0.6003899999999998  0.73633  1.0000
  C   C35       1.0  0.018599999999999988  0.61917  0.6989499999999998  1.0000
  C   C36       1.0  0.20444000000000004  0.63661  0.8531  1.0000
  C   C37       1.0  0.09189000000000015  0.64843  0.8806099999999998  1.0000
  C   C38       1.0  0.059899999999999974  0.62994  0.9408  1.0000
  C   C39       1.0  0.95205  0.64543  0.96592  1.0000
  C   C40       1.0  0.8748600000000001  0.68153  0.9317299999999998  1.0000
  C   C41       1.0  0.9064399999999999  0.70164  0.87181  1.0000
  C   C42       1.0  0.015020000000000077  0.68376  0.84665  1.0000
  C   C43       1.0  0.82714  0.74518  0.83319  1.0000
  C   C44       1.0  0.47069000000000005  0.41825  0.89789  1.0000
  C   C45       1.0  0.46415000000000006  0.32130999999999993  0.92855  1.0000
  C   C46       1.0  0.4383100000000001  0.26413  0.9013099999999998  1.0000
  C   C47       1.0  0.4284  0.17411  0.93054  1.0000
  C   C48       1.0  0.44329  0.14206999999999997  0.98713  1.0000
  C   C49       1.0  0.47084999999999994  0.1979  0.0141  1.0000
  C   C50       1.0  0.4812000000000001  0.28814  0.98492  1.0000
  C   C51       1.0  0.48446999999999996  0.16322  0.0746  1.0000
  C   C52       1.0  0.43475999999999976  0.4472599999999999  0.72719  1.0000
  C   C53       1.0  0.5316099999999999  0.3456699999999999  0.73861  1.0000
  C   C54       1.0  0.6310899999999999  0.34465999999999997  0.7385499999999999  1.0000
  C   C55       1.0  0.95633  0.10167  0.27979  1.0000
  C   C56       1.0  0.90264  0.04524  0.26755  1.0000
  C   C57       1.0  0.9304799999999999  0.9392899999999997  0.28901999999999994  1.0000
  C   C58       1.0  0.8724199999999998  0.8913199999999999  0.28053  1.0000
  C   C59       1.0  0.78642  0.9485299999999998  0.25112  1.0000
  C   C60       1.0  0.7605999999999999  0.05353  0.22805  1.0000
  C   C61       1.0  0.82019  0.10032  0.23590999999999998  1.0000
  C   C62       1.0  0.6646  0.11868999999999999  0.19948999999999997  1.0000
  C   C63       1.0  0.30519  0.13635000000000003  0.3532699999999999  1.0000
  C   C64       1.0  0.37722999999999995  0.14911  0.38087  1.0000
  C   C65       1.0  0.36580000000000007  0.13128  0.44113  1.0000
  C   C66       1.0  0.43251999999999996  0.14664  0.46630999999999995  1.0000
  C   C67       1.0  0.5088399999999998  0.18201  0.43212  1.0000
  C   C68       1.0  0.51868  0.20177000000000006  0.3721599999999999  1.0000
  C   C69       1.0  0.45377  0.18387999999999996  0.3468999999999999  1.0000
  C   C70       1.0  0.59384  0.24543  0.33394  1.0000
  C   C71       1.0  0.2097000000000001  0.9133699999999998  0.39643  1.0000
  C   C72       1.0  0.28239  0.81623  0.42715  1.0000
  C   C73       1.0  0.39255000000000023  0.7588199999999999  0.39884  1.0000
  C   C74       1.0  0.46559000000000006  0.6701199999999999  0.4276099999999999  1.0000
  C   C75       1.0  0.42857  0.63979  0.48514999999999997  1.0000
  C   C76       1.0  0.31784999999999997  0.69501  0.5131  1.0000
  C   C77       1.0  0.24409999999999998  0.78379  0.48421  1.0000
  C   C78       1.0  0.28014999999999984  0.66226  0.57445  1.0000
  C   C79       1.0  0.39420999999999995  0.9458099999999999  0.22675999999999993  1.0000
  C   C80       1.0  0.38606999999999997  0.84513  0.23798  1.0000
  C   C81       1.0  0.2872200000000001  0.8455699999999998  0.23741  1.0000
  C   C82       1.0  0.33758000000000005  0.39978999999999987  0.21939  1.0000
  C   C83       1.0  0.21462999999999996  0.4558  0.23186  1.0000
  C   C84       1.0  0.15736000000000003  0.56185  0.21063  1.0000
  C   C85       1.0  0.042410000000000024  0.60953  0.21951999999999997  1.0000
  C   C86       1.0  0.9844199999999999  0.55202  0.24932  1.0000
  C   C87       1.0  0.041099999999999984  0.4468  0.27204  1.0000
  C   C88       1.0  0.15582  0.4002  0.26353  1.0000
  C   C89       1.0  0.98172  0.38152  0.30099  1.0000
  C   C90       1.0  0.7962699999999999  0.3625  0.1466  1.0000
  C   C91       1.0  0.9089000000000002  0.3507799999999999  0.11903999999999999  1.0000
  C   C92       1.0  0.9410499999999999  0.3682999999999999  0.0588  1.0000
  C   C93       1.0  0.04882999999999995  0.35293  0.03361  1.0000
  C   C94       1.0  0.12564000000000003  0.31827  0.06783  1.0000
  C   C95       1.0  0.09409  0.29905000000000004  0.12784  1.0000
  C   C96       1.0  0.9855900000000001  0.31669  0.15307  1.0000
  C   C97       1.0  0.17417999999999997  0.25568  0.16605  1.0000
  C   C98       1.0  0.51939  0.58808  0.10341  1.0000
  C   C99       1.0  0.52577  0.68541  0.07278999999999998  1.0000
  C   C100      1.0  0.55067  0.74252  0.1006  1.0000
  C   C101      1.0  0.56385  0.83111  0.07143  1.0000
  C   C102      1.0  0.5535499999999999  0.8617599999999997  0.0141  1.0000
  C   C103      1.0  0.5254099999999998  0.8069700000000001  0.98669  1.0000
  C   C104      1.0  0.51144  0.71838  0.01598  1.0000
  C   C105      1.0  0.5154900000000001  0.8406699999999999  0.92563  1.0000
  C   C106      1.0  0.5651799999999999  0.5539  0.27299  1.0000
  C   C107      1.0  0.46818999999999994  0.65551  0.26175  1.0000
  C   C108      1.0  0.36898999999999976  0.65645  0.26139  1.0000
  C   C109      1.0  0.7212  0.24963000000000002  0.75021  1.0000
  C   C110      1.0  0.52343  0.25114  0.75006  1.0000
  C   C111      1.0  0.2791900000000001  0.7512899999999999  0.24913  1.0000
  C   C112      1.0  0.4763599999999998  0.75  0.2501  1.0000
  O   O1        1.0  0.9481999999999999  0.95424  0.7084699999999998  1.0000
  O   O2        1.0  0.09406999999999995  0.7989300000000001  0.72216  1.0000
  O   O3        1.0  0.34640000000000015  0.79245  0.8282499999999999  1.0000
  O   O4        1.0  0.40330000000000005  0.91823  0.79465  1.0000
  O   O5        1.0  0.6748199999999998  0.86112  0.70277  1.0000
  O   O6        1.0  0.7802199999999998  0.8727700000000002  0.61636  1.0000
  O   O7        1.0  0.34022  0.74485  0.64688  1.0000
  O   O8        1.0  0.4135000000000001  0.73112  0.71981  1.0000
  O   O9        1.0  0.7523  0.05650000000000001  0.6558899999999999  1.0000
  O   O10       1.0  0.8830499999999996  0.0207  0.57805  1.0000
  O   O11       1.0  0.8157500000000003  0.2762  0.39694999999999997  1.0000
  O   O12       1.0  0.6604899999999998  0.42481  0.39996  1.0000
  O   O13       1.0  0.6953800000000001  0.9665699999999999  0.77486  1.0000
  O   O14       1.0  0.51402  0.055270000000000034  0.7808899999999999  1.0000
  O   O15       1.0  0.6106900000000001  0.5461399999999997  0.79167  1.0000
  O   O16       1.0  0.61419  0.70111  0.78048  1.0000
  O   O17       1.0  0.9675000000000002  0.70868  0.67186  1.0000
  O   O18       1.0  0.11760000000000001  0.58201  0.70423  1.0000
  O   O19       1.0  0.2379900000000001  0.6390099999999999  0.79705  1.0000
  O   O20       1.0  0.26774000000000014  0.62675  0.8833699999999999  1.0000
  O   O21       1.0  0.7301899999999999  0.75504  0.85291  1.0000
  O   O22       1.0  0.8636499999999998  0.77031  0.78031  1.0000
  O   O23       1.0  0.46612000000000015  0.44407999999999986  0.8441899999999999  1.0000
  O   O24       1.0  0.4788  0.48124  0.9221699999999999  1.0000
  O   O25       1.0  0.49044999999999983  0.22288999999999998  0.10288  1.0000
  O   O26       1.0  0.48583  0.07516999999999997  0.10016999999999998  1.0000
  O   O27       1.0  0.43858999999999976  0.5350800000000001  0.72506  1.0000
  O   O28       1.0  0.3506099999999999  0.44816  0.7191199999999999  1.0000
  O   O29       1.0  0.05184000000000001  0.04693000000000001  0.29158999999999996  1.0000
  O   O30       1.0  0.9055199999999998  0.20226  0.27815999999999996  1.0000
  O   O31       1.0  0.65306  0.20811  0.17208  1.0000
  O   O32       1.0  0.59748  0.08133  0.20541  1.0000
  O   O33       1.0  0.32671  0.13895  0.29715  1.0000
  O   O34       1.0  0.22152000000000002  0.12526999999999996  0.38335  1.0000
  O   O35       1.0  0.6583099999999996  0.25761000000000006  0.35459999999999997  1.0000
  O   O36       1.0  0.5884699999999999  0.26868000000000003  0.28066  1.0000
  O   O37       1.0  0.24545999999999987  0.94216  0.34367  1.0000
  O   O38       1.0  0.11165  0.97397  0.41964999999999997  1.0000
  O   O39       1.0  0.18686  0.72383  0.60316  1.0000
  O   O40       1.0  0.34179000000000004  0.57466  0.59996  1.0000
  O   O41       1.0  0.30475  0.03437  0.22475  1.0000
  O   O42       1.0  0.4860399999999998  0.9455599999999998  0.21896999999999997  1.0000
  O   O43       1.0  0.38987000000000005  0.45452999999999993  0.20875  1.0000
  O   O44       1.0  0.38657  0.29941000000000006  0.21983  1.0000
  O   O45       1.0  0.032839999999999946  0.2916499999999999  0.32782  1.0000
  O   O46       1.0  0.8824200000000001  0.4194299999999999  0.29592  1.0000
  O   O47       1.0  0.76267  0.36154  0.20263  1.0000
  O   O48       1.0  0.73311  0.37086999999999987  0.11663  1.0000
  O   O49       1.0  0.27148  0.24456  0.14537  1.0000
  O   O50       1.0  0.13883  0.23127000000000003  0.2193  1.0000
  O   O51       1.0  0.53567  0.55606  0.15517999999999998  1.0000
  O   O52       1.0  0.50081  0.53055  0.08059999999999999  1.0000
  O   O53       1.0  0.5086699999999998  0.7817299999999999  0.89716  1.0000
  O   O54       1.0  0.5178400000000001  0.92704  0.8997799999999998  1.0000
  O   O55       1.0  0.56123  0.46617999999999993  0.27497  1.0000
  O   O56       1.0  0.6495100000000001  0.55279  0.28095  1.0000
