data_image0
_chemical_formula_structural       Mn8H72C112N8O40
_chemical_formula_sum              "Mn8 H72 C112 N8 O40"
_cell_length_a       14.81723
_cell_length_b       15.83671
_cell_length_c       16.32392
_cell_angle_alpha    90.00047
_cell_angle_beta     101.83601
_cell_angle_gamma    90.0

_symmetry_space_group_name_H-M    'P 1'
_symmetry_Int_Tables_number       1

loop_
  _symmetry_equiv_pos_as_xyz
  'x,y,z'

loop_
  _atom_site_type_symbol
  _atom_site_label
  _atom_site_symmetry_multiplicity
  _atom_site_fract_x
  _atom_site_fract_y
  _atom_site_fract_z
  _atom_site_occupancy
  Mn  Mn1       1.0  0.71569  0.89613  0.9534900000000002  1.0000
  Mn  Mn2       1.0  0.75586  0.63129  0.04599000000000002  1.0000
  Mn  Mn3       1.0  0.78431  0.39614  0.5465000000000002  1.0000
  Mn  Mn4       1.0  0.74413  0.13129  0.45401000000000014  1.0000
  Mn  Mn5       1.0  0.2843100000000001  0.10387000000000003  0.046500000000000014  1.0000
  Mn  Mn6       1.0  0.24414  0.36871  0.9540100000000002  1.0000
  Mn  Mn7       1.0  0.21569  0.60386  0.4535  1.0000
  Mn  Mn8       1.0  0.25587  0.86871  0.5459800000000002  1.0000
  H   H1        1.0  0.05563  0.4768  0.38262  1.0000
  H   H2        1.0  0.88362  0.4782000000000001  0.34687  1.0000
  H   H3        1.0  0.8937  0.72453  0.46194  1.0000
  H   H4        1.0  0.06513000000000001  0.7142000000000002  0.4912400000000001  1.0000
  H   H5        1.0  0.74581  0.59109  0.31101  1.0000
  H   H6        1.0  0.7409999999999998  0.56134  0.41536  1.0000
  H   H7        1.0  0.7327000000000001  0.68819  0.22950000000000007  1.0000
  H   H8        1.0  0.7747199999999997  0.95601  0.21856000000000006  1.0000
  H   H9        1.0  0.75703  0.83946  0.4535800000000001  1.0000
  H   H10       1.0  0.75352  0.06647  0.71243  1.0000
  H   H11       1.0  0.77242  0.3361800000000001  0.7371100000000003  1.0000
  H   H12       1.0  0.75787  0.18186  0.9526700000000002  1.0000
  H   H13       1.0  0.77735  0.46007  0.9251200000000003  1.0000
  H   H14       1.0  0.77052  0.43257  0.81768  1.0000
  H   H15       1.0  0.9174899999999998  0.45228  0.77578  1.0000
  H   H16       1.0  0.08942000000000003  0.42966  0.80669  1.0000
  H   H17       1.0  0.087  0.34383  0.0461  1.0000
  H   H18       1.0  0.9161099999999999  0.36124  0.0244  1.0000
  H   H19       1.0  0.44437  0.9767900000000003  0.11738  1.0000
  H   H20       1.0  0.61637  0.9782000000000002  0.15313000000000004  1.0000
  H   H21       1.0  0.6063  0.22453000000000006  0.03806  1.0000
  H   H22       1.0  0.43486999999999987  0.21420000000000006  0.008760000000000004  1.0000
  H   H23       1.0  0.75419  0.09109  0.18899  1.0000
  H   H24       1.0  0.759  0.06134000000000001  0.08463000000000002  1.0000
  H   H25       1.0  0.7673  0.18819000000000005  0.27049  1.0000
  H   H26       1.0  0.72528  0.45601000000000014  0.28144000000000013  1.0000
  H   H27       1.0  0.7429699999999998  0.33946  0.04642000000000002  1.0000
  H   H28       1.0  0.74648  0.56647  0.7875700000000002  1.0000
  H   H29       1.0  0.7275799999999999  0.83618  0.7628800000000002  1.0000
  H   H30       1.0  0.74213  0.68186  0.54733  1.0000
  H   H31       1.0  0.7226499999999999  0.96007  0.57488  1.0000
  H   H32       1.0  0.72948  0.9325700000000002  0.6823200000000003  1.0000
  H   H33       1.0  0.58251  0.9522800000000002  0.7242200000000002  1.0000
  H   H34       1.0  0.41058  0.9296600000000003  0.6933  1.0000
  H   H35       1.0  0.413  0.84383  0.45390000000000014  1.0000
  H   H36       1.0  0.58389  0.86124  0.4756  1.0000
  H   H37       1.0  0.94437  0.5232  0.6173800000000003  1.0000
  H   H38       1.0  0.11638000000000003  0.5218  0.6531300000000002  1.0000
  H   H39       1.0  0.10629999999999999  0.27547  0.53806  1.0000
  H   H40       1.0  0.93487  0.2858000000000001  0.50876  1.0000
  H   H41       1.0  0.25419000000000014  0.40891  0.6889900000000002  1.0000
  H   H42       1.0  0.259  0.43866  0.58464  1.0000
  H   H43       1.0  0.2673000000000001  0.31181  0.7704900000000002  1.0000
  H   H44       1.0  0.22528  0.04399  0.7814400000000002  1.0000
  H   H45       1.0  0.24297  0.16054  0.5464200000000002  1.0000
  H   H46       1.0  0.24647999999999998  0.93353  0.2875700000000001  1.0000
  H   H47       1.0  0.22758  0.6638200000000002  0.26289  1.0000
  H   H48       1.0  0.24213  0.81814  0.04733000000000001  1.0000
  H   H49       1.0  0.22265  0.53993  0.07488  1.0000
  H   H50       1.0  0.22948  0.56743  0.18232  1.0000
  H   H51       1.0  0.08251000000000001  0.54772  0.22422000000000006  1.0000
  H   H52       1.0  0.91058  0.57034  0.19330000000000006  1.0000
  H   H53       1.0  0.9130100000000001  0.65617  0.9539000000000002  1.0000
  H   H54       1.0  0.08390000000000006  0.6387600000000002  0.9756000000000002  1.0000
  H   H55       1.0  0.5556399999999998  0.02321  0.88262  1.0000
  H   H56       1.0  0.38363  0.0218  0.8468700000000002  1.0000
  H   H57       1.0  0.39370000000000005  0.77547  0.9619400000000002  1.0000
  H   H58       1.0  0.56513  0.7858  0.99123  1.0000
  H   H59       1.0  0.24581  0.9089100000000002  0.81101  1.0000
  H   H60       1.0  0.24101000000000006  0.93866  0.9153600000000002  1.0000
  H   H61       1.0  0.23270000000000005  0.81181  0.7295000000000003  1.0000
  H   H62       1.0  0.27472  0.5439900000000002  0.71856  1.0000
  H   H63       1.0  0.25703  0.6605400000000002  0.95358  1.0000
  H   H64       1.0  0.25352  0.43353  0.21243  1.0000
  H   H65       1.0  0.27242  0.16382  0.23711000000000004  1.0000
  H   H66       1.0  0.25787  0.31814  0.45267000000000013  1.0000
  H   H67       1.0  0.27735  0.03993  0.42512  1.0000
  H   H68       1.0  0.27052  0.06743  0.31768000000000013  1.0000
  H   H69       1.0  0.41749  0.04772  0.27578  1.0000
  H   H70       1.0  0.58942  0.07034  0.3067000000000001  1.0000
  H   H71       1.0  0.587  0.15617  0.5461  1.0000
  H   H72       1.0  0.41611  0.13876  0.5244  1.0000
  C   C1        1.0  0.016929999999999994  0.53087  0.39813  1.0000
  C   C2        1.0  0.92115  0.53207  0.3785400000000001  1.0000
  C   C3        1.0  0.87394  0.60302  0.39984  1.0000
  C   C4        1.0  0.9266400000000001  0.6687800000000003  0.4426400000000001  1.0000
  C   C5        1.0  0.022270000000000005  0.66335  0.4593  1.0000
  C   C6        1.0  0.77015  0.60717  0.3774300000000001  1.0000
  C   C7        1.0  0.74614  0.75555  0.34749000000000013  1.0000
  C   C8        1.0  0.74343  0.74856  0.2617  1.0000
  C   C9        1.0  0.75295  0.82147  0.21533  1.0000
  C   C10       1.0  0.76538  0.9003500000000002  0.25461  1.0000
  C   C11       1.0  0.76498  0.90714  0.34005000000000013  1.0000
  C   C12       1.0  0.7561399999999998  0.83457  0.3868300000000001  1.0000
  C   C13       1.0  0.76886  0.99164  0.3809900000000001  1.0000
  C   C14       1.0  0.74273  0.81543  0.12257000000000003  1.0000
  C   C15       1.0  0.7437099999999999  0.03087  0.87315  1.0000
  C   C16       1.0  0.75389  0.11526  0.8362800000000002  1.0000
  C   C17       1.0  0.7567599999999998  0.1223  0.75141  1.0000
  C   C18       1.0  0.76431  0.20199000000000006  0.71689  1.0000
  C   C19       1.0  0.76822  0.2751  0.7664200000000002  1.0000
  C   C20       1.0  0.7645400000000001  0.26735  0.8510300000000002  1.0000
  C   C21       1.0  0.7587199999999998  0.18748  0.88639  1.0000
  C   C22       1.0  0.7644  0.20999  0.62582  1.0000
  C   C23       1.0  0.7997100000000001  0.4145300000000001  0.8825900000000002  1.0000
  C   C24       1.0  0.9034  0.40876  0.8980600000000002  1.0000
  C   C25       1.0  0.95326  0.42889  0.8366300000000002  1.0000
  C   C26       1.0  0.04830999999999999  0.4161400000000001  0.85329  1.0000
  C   C27       1.0  0.04699000000000004  0.36751  0.9871700000000002  1.0000
  C   C28       1.0  0.95226  0.3782  0.9750600000000003  1.0000
  C   C29       1.0  0.48307  0.03087  0.10187000000000003  1.0000
  C   C30       1.0  0.57885  0.032070000000000015  0.12146000000000003  1.0000
  C   C31       1.0  0.62606  0.10302  0.10016000000000003  1.0000
  C   C32       1.0  0.5733599999999999  0.16878000000000007  0.057360000000000015  1.0000
  C   C33       1.0  0.47773  0.16335  0.0407  1.0000
  C   C34       1.0  0.72984  0.10717000000000003  0.12257000000000003  1.0000
  C   C35       1.0  0.75386  0.25555  0.15251000000000006  1.0000
  C   C36       1.0  0.75656  0.24856  0.23830000000000007  1.0000
  C   C37       1.0  0.74705  0.32147  0.2846700000000001  1.0000
  C   C38       1.0  0.73462  0.40035  0.24539000000000005  1.0000
  C   C39       1.0  0.73502  0.40714000000000006  0.15995  1.0000
  C   C40       1.0  0.74386  0.3345700000000001  0.11317000000000003  1.0000
  C   C41       1.0  0.7311399999999999  0.49164  0.11901  1.0000
  C   C42       1.0  0.75726  0.3154400000000001  0.3774300000000001  1.0000
  C   C43       1.0  0.75629  0.53087  0.62684  1.0000
  C   C44       1.0  0.7461200000000002  0.61525  0.6637100000000002  1.0000
  C   C45       1.0  0.7432500000000001  0.6223000000000001  0.7485900000000002  1.0000
  C   C46       1.0  0.73569  0.70199  0.7831  1.0000
  C   C47       1.0  0.7317800000000001  0.7751  0.73358  1.0000
  C   C48       1.0  0.7354599999999998  0.7673500000000002  0.64897  1.0000
  C   C49       1.0  0.74128  0.6874800000000002  0.6136  1.0000
  C   C50       1.0  0.7356  0.70999  0.87417  1.0000
  C   C51       1.0  0.70029  0.91453  0.6174000000000002  1.0000
  C   C52       1.0  0.5966  0.9087500000000002  0.60193  1.0000
  C   C53       1.0  0.54674  0.92889  0.6633600000000002  1.0000
  C   C54       1.0  0.4517  0.9161400000000002  0.6467100000000002  1.0000
  C   C55       1.0  0.4530199999999999  0.8675  0.51283  1.0000
  C   C56       1.0  0.54774  0.8782  0.52494  1.0000
  C   C57       1.0  0.98308  0.4691300000000001  0.60187  1.0000
  C   C58       1.0  0.07885  0.4679300000000001  0.62146  1.0000
  C   C59       1.0  0.12606  0.39698  0.60016  1.0000
  C   C60       1.0  0.07336  0.3312200000000001  0.55736  1.0000
  C   C61       1.0  0.97773  0.33665  0.54069  1.0000
  C   C62       1.0  0.22985  0.3928300000000001  0.62257  1.0000
  C   C63       1.0  0.25386  0.24445  0.6525100000000003  1.0000
  C   C64       1.0  0.25657  0.25144  0.7383000000000002  1.0000
  C   C65       1.0  0.24705000000000002  0.17853  0.7846700000000002  1.0000
  C   C66       1.0  0.23462000000000002  0.09965  0.7453900000000002  1.0000
  C   C67       1.0  0.23502  0.09286  0.65994  1.0000
  C   C68       1.0  0.24386000000000002  0.16543  0.6131700000000002  1.0000
  C   C69       1.0  0.23114  0.00836  0.6190100000000002  1.0000
  C   C70       1.0  0.2572700000000001  0.18457  0.8774300000000003  1.0000
  C   C71       1.0  0.25629  0.9691300000000003  0.12685  1.0000
  C   C72       1.0  0.24610999999999994  0.8847400000000002  0.16372  1.0000
  C   C73       1.0  0.24324999999999994  0.8777  0.24859  1.0000
  C   C74       1.0  0.23569  0.7980100000000002  0.2831  1.0000
  C   C75       1.0  0.23178  0.7249  0.23358000000000007  1.0000
  C   C76       1.0  0.23546  0.73265  0.14897000000000005  1.0000
  C   C77       1.0  0.24127999999999994  0.81252  0.11361  1.0000
  C   C78       1.0  0.23560000000000003  0.79001  0.3741800000000001  1.0000
  C   C79       1.0  0.20029  0.5854700000000003  0.11740000000000003  1.0000
  C   C80       1.0  0.0966  0.59124  0.10193000000000003  1.0000
  C   C81       1.0  0.04673999999999999  0.57111  0.16336  1.0000
  C   C82       1.0  0.9516899999999999  0.58386  0.14671000000000006  1.0000
  C   C83       1.0  0.95302  0.63249  0.012830000000000003  1.0000
  C   C84       1.0  0.04774  0.6218000000000002  0.024940000000000007  1.0000
  C   C85       1.0  0.5169300000000001  0.9691300000000003  0.8981300000000002  1.0000
  C   C86       1.0  0.42116  0.96793  0.8785400000000002  1.0000
  C   C87       1.0  0.37393999999999994  0.89698  0.8998400000000002  1.0000
  C   C88       1.0  0.4266400000000001  0.83122  0.9426400000000003  1.0000
  C   C89       1.0  0.52227  0.83665  0.9593000000000003  1.0000
  C   C90       1.0  0.27016000000000007  0.8928300000000002  0.8774300000000003  1.0000
  C   C91       1.0  0.24614999999999998  0.74445  0.84749  1.0000
  C   C92       1.0  0.24344  0.75144  0.7617  1.0000
  C   C93       1.0  0.2529499999999999  0.6785300000000002  0.71533  1.0000
  C   C94       1.0  0.26538  0.59965  0.7546  1.0000
  C   C95       1.0  0.26498  0.5928600000000003  0.8400500000000002  1.0000
  C   C96       1.0  0.25614  0.66543  0.88683  1.0000
  C   C97       1.0  0.26886  0.50836  0.88099  1.0000
  C   C98       1.0  0.24274  0.6845700000000002  0.62257  1.0000
  C   C99       1.0  0.24370999999999993  0.4691300000000001  0.37316  1.0000
  C   C100      1.0  0.25389  0.38475  0.33628  1.0000
  C   C101      1.0  0.25675000000000003  0.3777  0.25141000000000013  1.0000
  C   C102      1.0  0.26431  0.29801  0.2169  1.0000
  C   C103      1.0  0.26822000000000007  0.2249  0.2664200000000001  1.0000
  C   C104      1.0  0.26454  0.23265  0.35103  1.0000
  C   C105      1.0  0.25872  0.31252  0.3863900000000001  1.0000
  C   C106      1.0  0.2644  0.29001  0.12583000000000005  1.0000
  C   C107      1.0  0.29971  0.08547  0.38259  1.0000
  C   C108      1.0  0.4034  0.09125  0.39806000000000014  1.0000
  C   C109      1.0  0.45326000000000005  0.07111  0.3366300000000001  1.0000
  C   C110      1.0  0.54831  0.08386  0.3532900000000001  1.0000
  C   C111      1.0  0.54698  0.1325  0.4871700000000001  1.0000
  C   C112      1.0  0.45226  0.12180000000000003  0.47506  1.0000
  N   N1        1.0  0.06768000000000003  0.59599  0.4368100000000001  1.0000
  N   N2        1.0  0.09517000000000003  0.38527  0.9271600000000002  1.0000
  N   N3        1.0  0.43232  0.09599  0.06319  1.0000
  N   N4        1.0  0.40483  0.8852700000000002  0.5728300000000002  1.0000
  N   N5        1.0  0.93232  0.40401  0.5631900000000002  1.0000
  N   N6        1.0  0.90483  0.61473  0.07284  1.0000
  N   N7        1.0  0.56768  0.90401  0.93681  1.0000
  N   N8        1.0  0.59517  0.11473000000000003  0.4271600000000001  1.0000
  O   O1        1.0  0.7544000000000001  0.8828500000000002  0.08285  1.0000
  O   O2        1.0  0.71814  0.7446  0.08702  1.0000
  O   O3        1.0  0.75876  0.05889  0.33625  1.0000
  O   O4        1.0  0.77735  0.9963700000000002  0.46056000000000014  1.0000
  O   O5        1.0  0.75431  0.02435  0.9533000000000003  1.0000
  O   O6        1.0  0.72209  0.96645  0.8263300000000002  1.0000
  O   O7        1.0  0.76364  0.14197  0.5830500000000002  1.0000
  O   O8        1.0  0.7625500000000001  0.28379  0.5946000000000002  1.0000
  O   O9        1.0  0.73585  0.68766  0.39795000000000014  1.0000
  O   O10       1.0  0.7630600000000002  0.33467  0.9044500000000002  1.0000
  O   O11       1.0  0.7456  0.38285  0.41715000000000013  1.0000
  O   O12       1.0  0.7818499999999999  0.2446  0.41298  1.0000
  O   O13       1.0  0.7412399999999998  0.5588800000000002  0.16376  1.0000
  O   O14       1.0  0.72264  0.4963700000000001  0.03944000000000002  1.0000
  O   O15       1.0  0.74569  0.52435  0.54668  1.0000
  O   O16       1.0  0.77791  0.4664600000000001  0.6736600000000003  1.0000
  O   O17       1.0  0.73636  0.64197  0.91695  1.0000
  O   O18       1.0  0.73745  0.7837800000000003  0.9054000000000002  1.0000
  O   O19       1.0  0.76415  0.18767  0.10205000000000003  1.0000
  O   O20       1.0  0.7369399999999998  0.83466  0.5955400000000002  1.0000
  O   O21       1.0  0.24560000000000007  0.11715000000000003  0.9171500000000002  1.0000
  O   O22       1.0  0.28186  0.2554  0.9129800000000002  1.0000
  O   O23       1.0  0.24124  0.94111  0.6637500000000002  1.0000
  O   O24       1.0  0.22265000000000001  0.00363  0.5394300000000002  1.0000
  O   O25       1.0  0.24569  0.97565  0.046690000000000016  1.0000
  O   O26       1.0  0.27791  0.03355000000000002  0.17367  1.0000
  O   O27       1.0  0.23636000000000004  0.8580300000000002  0.4169500000000001  1.0000
  O   O28       1.0  0.23744999999999997  0.71621  0.4054  1.0000
  O   O29       1.0  0.26415  0.31234  0.6020500000000002  1.0000
  O   O30       1.0  0.23693999999999996  0.6653300000000002  0.09555000000000002  1.0000
  O   O31       1.0  0.2544  0.61715  0.58285  1.0000
  O   O32       1.0  0.21815  0.7554  0.58702  1.0000
  O   O33       1.0  0.25876  0.44112  0.8362400000000002  1.0000
  O   O34       1.0  0.27736000000000005  0.50363  0.9605600000000002  1.0000
  O   O35       1.0  0.25431  0.47565000000000013  0.4533100000000001  1.0000
  O   O36       1.0  0.22209  0.5335400000000002  0.32634000000000013  1.0000
  O   O37       1.0  0.26364  0.35803  0.08305000000000003  1.0000
  O   O38       1.0  0.26255  0.21622000000000005  0.09460000000000003  1.0000
  O   O39       1.0  0.23585  0.81233  0.89795  1.0000
  O   O40       1.0  0.26306  0.16534  0.40445  1.0000
