data_image0
_chemical_formula_structural       Mn8H120C140O44
_chemical_formula_sum              "Mn8 H120 C140 O44"
_cell_length_a       16.67642
_cell_length_b       18.31285
_cell_length_c       20.32488
_cell_angle_alpha    64.18224
_cell_angle_beta     71.11823
_cell_angle_gamma    70.74569

_space_group_name_H-M_alt    "P 1"
_space_group_IT_number       1

loop_
  _space_group_symop_operation_xyz
  'x, y, z'

loop_
  _atom_site_type_symbol
  _atom_site_label
  _atom_site_symmetry_multiplicity
  _atom_site_fract_x
  _atom_site_fract_y
  _atom_site_fract_z
  _atom_site_occupancy
  Mn  Mn1       1.0  0.6496999999999999  0.72646  0.5881700000000001  1.0000
  Mn  Mn2       1.0  0.8656099999999999  0.6716799999999999  0.5897000000000002  1.0000
  Mn  Mn3       1.0  0.10525999999999998  0.7115899999999998  0.62112  1.0000
  Mn  Mn4       1.0  0.3286800000000001  0.70035  0.55354  1.0000
  Mn  Mn5       1.0  0.34798  0.27055  0.4159900000000001  1.0000
  Mn  Mn6       1.0  0.13063  0.32966000000000006  0.40918  1.0000
  Mn  Mn7       1.0  0.8943499999999999  0.28882  0.37817  1.0000
  Mn  Mn8       1.0  0.6730600000000001  0.2997699999999999  0.4462500000000001  1.0000
  H   H1        1.0  0.8592099999999999  0.40963  0.7  1.0000
  H   H2        1.0  0.82758  0.27032  0.79207  1.0000
  H   H3        1.0  0.5976399999999997  0.5278599999999999  0.7740600000000002  1.0000
  H   H4        1.0  0.56753  0.39174000000000003  0.8698700000000001  1.0000
  H   H5        1.0  0.84315  0.8004099999999998  0.7136200000000003  1.0000
  H   H6        1.0  0.62133  0.19608  0.06485  1.0000
  H   H7        1.0  0.58239  0.11259000000000001  0.14138  1.0000
  H   H8        1.0  0.6948600000000001  0.10403999999999998  0.10504  1.0000
  H   H9        1.0  0.4074500000000001  0.81324  0.40903  1.0000
  H   H10       1.0  0.5868499999999999  0.26159  0.97422  1.0000
  H   H11       1.0  0.5550000000000002  0.26714  0.89652  1.0000
  H   H12       1.0  0.43073  0.9091100000000001  0.27547  1.0000
  H   H13       1.0  0.65864  0.8396700000000001  0.09855000000000003  1.0000
  H   H14       1.0  0.5821099999999999  0.8576700000000002  0.04745  1.0000
  H   H15       1.0  0.69305  0.8484500000000003  0.00423  1.0000
  H   H16       1.0  0.8248899999999999  0.86981  0.80128  1.0000
  H   H17       1.0  0.5669  0.8614099999999999  0.73474  1.0000
  H   H18       1.0  0.6830499999999997  0.74653  0.3954  1.0000
  H   H19       1.0  0.7067000000000001  0.83597  0.2594700000000001  1.0000
  H   H20       1.0  0.5753899999999998  0.12798999999999988  0.8116400000000003  1.0000
  H   H21       1.0  0.5189499999999999  0.20745999999999998  0.8467  1.0000
  H   H22       1.0  0.6313400000000001  0.19657999999999987  0.8082300000000002  1.0000
  H   H23       1.0  0.5475099999999999  0.9288600000000001  0.8235600000000002  1.0000
  H   H24       1.0  0.55742  0.01886000000000001  0.86049  1.0000
  H   H25       1.0  0.56229  0.9250599999999999  0.9392500000000001  1.0000
  H   H26       1.0  0.68389  0.9797  0.16084  1.0000
  H   H27       1.0  0.70301  0.89029  0.1396  1.0000
  H   H28       1.0  0.33265999999999996  0.29208000000000006  0.82329  1.0000
  H   H29       1.0  0.10131  0.22999  0.02606  1.0000
  H   H30       1.0  0.06772000000000002  0.14714999999999998  0.10734000000000003  1.0000
  H   H31       1.0  0.17897  0.14572999999999997  0.06966000000000003  1.0000
  H   H32       1.0  0.19483000000000003  0.021899999999999996  0.11884000000000002  1.0000
  H   H33       1.0  0.22022  0.9280499999999999  0.10351  1.0000
  H   H34       1.0  0.06578999999999999  0.28668000000000005  0.93191  1.0000
  H   H35       1.0  0.06076999999999992  0.27724999999999994  0.8500700000000002  1.0000
  H   H36       1.0  0.15174  0.86314  0.08972  1.0000
  H   H37       1.0  0.07797999999999998  0.87131  0.04035  1.0000
  H   H38       1.0  0.19003999999999993  0.85989  0.9991600000000002  1.0000
  H   H39       1.0  0.09036999999999995  0.12029999999999998  0.7857400000000001  1.0000
  H   H40       1.0  0.02426999999999996  0.20684000000000005  0.80903  1.0000
  H   H41       1.0  0.13753000000000007  0.19715000000000002  0.7788  1.0000
  H   H42       1.0  0.04509999999999998  0.017149999999999915  0.8543100000000002  1.0000
  H   H43       1.0  0.08016999999999992  0.9213  0.92471  1.0000
  H   H44       1.0  0.04769999999999999  0.9255100000000002  0.81965  1.0000
  H   H45       1.0  0.32127999999999984  0.9249400000000003  0.7497500000000001  1.0000
  H   H46       1.0  0.0043500000000000075  0.8680999999999999  0.2930700000000001  1.0000
  H   H47       1.0  0.25088  0.9400800000000001  0.20492000000000005  1.0000
  H   H48       1.0  0.06667999999999996  0.8507500000000001  0.73703  1.0000
  H   H49       1.0  0.33832  0.84941  0.66574  1.0000
  H   H50       1.0  0.03972000000000002  0.7936700000000001  0.41999  1.0000
  H   H51       1.0  0.28674  0.8618300000000001  0.33036  1.0000
  H   H52       1.0  0.06883999999999997  0.39708000000000016  0.79377  1.0000
  H   H53       1.0  0.11167999999999988  0.52772  0.6997200000000002  1.0000
  H   H54       1.0  0.37417  0.42808  0.73118  1.0000
  H   H55       1.0  0.9182200000000004  0.58185  0.81843  1.0000
  H   H56       1.0  0.83989  0.61395  0.7622000000000001  1.0000
  H   H57       1.0  0.9214099999999998  0.52265  0.76588  1.0000
  H   H58       1.0  0.84481  0.8949399999999998  0.37697000000000014  1.0000
  H   H59       1.0  0.79308  0.8320799999999999  0.36347  1.0000
  H   H60       1.0  0.7326299999999999  0.8927000000000002  0.4183  1.0000
  H   H61       1.0  0.13999999999999999  0.59314  0.29896  1.0000
  H   H62       1.0  0.1726900000000001  0.73252  0.20622  1.0000
  H   H63       1.0  0.40069999999999995  0.47320999999999996  0.22576000000000004  1.0000
  H   H64       1.0  0.43189  0.6090800000000001  0.12912  1.0000
  H   H65       1.0  0.15643  0.19895000000000002  0.28482  1.0000
  H   H66       1.0  0.3786999999999998  0.8040100000000001  0.9349700000000001  1.0000
  H   H67       1.0  0.41772999999999993  0.8874400000000001  0.85845  1.0000
  H   H68       1.0  0.30518999999999996  0.8960699999999998  0.8947700000000002  1.0000
  H   H69       1.0  0.5935500000000001  0.1859099999999999  0.5922800000000001  1.0000
  H   H70       1.0  0.4137  0.73856  0.025240000000000002  1.0000
  H   H71       1.0  0.44571000000000005  0.7331  0.10295  1.0000
  H   H72       1.0  0.56959  0.08935999999999995  0.7259100000000002  1.0000
  H   H73       1.0  0.34143000000000007  0.16036  0.90131  1.0000
  H   H74       1.0  0.41796000000000005  0.14232000000000003  0.95241  1.0000
  H   H75       1.0  0.30699  0.15147000000000002  0.99564  1.0000
  H   H76       1.0  0.17517000000000002  0.12908  0.19709  1.0000
  H   H77       1.0  0.43252000000000007  0.13761999999999996  0.26441  1.0000
  H   H78       1.0  0.31832  0.25332  0.6044300000000001  1.0000
  H   H79       1.0  0.2936  0.16369  0.74051  1.0000
  H   H80       1.0  0.42474999999999996  0.8720600000000002  0.18812000000000004  1.0000
  H   H81       1.0  0.48127000000000003  0.7923700000000001  0.1534  1.0000
  H   H82       1.0  0.36875  0.80365  0.19143  1.0000
  H   H83       1.0  0.45235  0.07080999999999998  0.17471  1.0000
  H   H84       1.0  0.44298  0.98077  0.13905  1.0000
  H   H85       1.0  0.4381  0.07479  0.060320000000000006  1.0000
  H   H86       1.0  0.31577  0.020439999999999927  0.8390400000000001  1.0000
  H   H87       1.0  0.29662999999999995  0.10985000000000002  0.86033  1.0000
  H   H88       1.0  0.66741  0.70809  0.17657  1.0000
  H   H89       1.0  0.8986299999999999  0.77001  0.9739000000000001  1.0000
  H   H90       1.0  0.93223  0.8528700000000001  0.89263  1.0000
  H   H91       1.0  0.82102  0.8543200000000001  0.9302100000000001  1.0000
  H   H92       1.0  0.8050500000000002  0.9780899999999998  0.8811800000000002  1.0000
  H   H93       1.0  0.7797700000000001  0.07195  0.89651  1.0000
  H   H94       1.0  0.93414  0.71328  0.06808  1.0000
  H   H95       1.0  0.9393399999999998  0.72269  0.14988  1.0000
  H   H96       1.0  0.84822  0.13689999999999997  0.9102400000000002  1.0000
  H   H97       1.0  0.92198  0.1287099999999999  0.9596300000000001  1.0000
  H   H98       1.0  0.80994  0.14008  0.00081  1.0000
  H   H99       1.0  0.9096399999999999  0.8797600000000003  0.21417000000000005  1.0000
  H   H100      1.0  0.9757299999999999  0.79311  0.191  1.0000
  H   H101      1.0  0.8624699999999998  0.8029  0.22114  1.0000
  H   H102      1.0  0.9549  0.98289  0.14563  1.0000
  H   H103      1.0  0.9197499999999998  0.07871  0.07525000000000003  1.0000
  H   H104      1.0  0.95209  0.07450999999999999  0.18022  1.0000
  H   H105      1.0  0.67857  0.07477  0.25001  1.0000
  H   H106      1.0  0.9958199999999999  0.13175999999999993  0.7071500000000001  1.0000
  H   H107      1.0  0.74926  0.059700000000000024  0.79503  1.0000
  H   H108      1.0  0.93279  0.14924000000000007  0.26303  1.0000
  H   H109      1.0  0.66132  0.15029999999999996  0.33419  1.0000
  H   H110      1.0  0.9605600000000001  0.20636  0.58027  1.0000
  H   H111      1.0  0.71347  0.1381199999999999  0.6696600000000003  1.0000
  H   H112      1.0  0.93108  0.60282  0.20631000000000005  1.0000
  H   H113      1.0  0.88803  0.47229  0.30049  1.0000
  H   H114      1.0  0.62575  0.57206  0.26868  1.0000
  H   H115      1.0  0.08308999999999993  0.41941000000000017  0.17901000000000003  1.0000
  H   H116      1.0  0.15869000000000003  0.38504  0.23812000000000003  1.0000
  H   H117      1.0  0.07775999999999998  0.47703999999999996  0.23380000000000004  1.0000
  H   H118      1.0  0.15531  0.10335000000000003  0.62483  1.0000
  H   H119      1.0  0.20760000000000003  0.16397  0.64063  1.0000
  H   H120      1.0  0.26699000000000006  0.10689999999999997  0.5827  1.0000
  C   C1        1.0  0.5270100000000001  0.7299599999999999  0.49495000000000006  1.0000
  C   C2        1.0  0.79588  0.40472  0.73758  1.0000
  C   C3        1.0  0.7791099999999999  0.32799999999999996  0.7885600000000003  1.0000
  C   C4        1.0  0.6475999999999997  0.4709800000000001  0.77955  1.0000
  C   C5        1.0  0.69695  0.3226399999999999  0.8368  1.0000
  C   C6        1.0  0.63094  0.3946800000000001  0.8325  1.0000
  C   C7        1.0  0.77877  0.8291199999999997  0.7379000000000001  1.0000
  C   C8        1.0  0.63145  0.12828  0.08898  1.0000
  C   C9        1.0  0.47292  0.81896  0.37675  1.0000
  C   C10       1.0  0.6027600000000001  0.23335000000000003  0.93242  1.0000
  C   C11       1.0  0.4854100000000002  0.8714799999999999  0.30215  1.0000
  C   C12       1.0  0.7435699999999998  0.56019  0.6786100000000002  1.0000
  C   C13       1.0  0.6418499999999999  0.8736600000000002  0.04371  1.0000
  C   C14       1.0  0.76881  0.8673900000000001  0.78669  1.0000
  C   C15       1.0  0.62309  0.8633  0.74956  1.0000
  C   C16       1.0  0.62783  0.78187  0.36893  1.0000
  C   C17       1.0  0.64149  0.8322600000000001  0.29294  1.0000
  C   C18       1.0  0.7296799999999999  0.47753  0.7319  1.0000
  C   C19       1.0  0.5805999999999999  0.16125  0.84296  1.0000
  C   C20       1.0  0.70628  0.8261700000000001  0.71845  1.0000
  C   C21       1.0  0.56969  0.8789900000000002  0.25991  1.0000
  C   C22       1.0  0.61228  0.9010699999999999  0.79958  1.0000
  C   C23       1.0  0.7202699999999999  0.78188  0.6685800000000001  1.0000
  C   C24       1.0  0.68506  0.90362  0.81812  1.0000
  C   C25       1.0  0.59609  0.9758200000000004  0.90237  1.0000
  C   C26       1.0  0.6258  0.09119  0.037350000000000015  1.0000
  C   C27       1.0  0.63024  0.9668  0.01748  1.0000
  C   C28       1.0  0.5437400000000002  0.7757899999999999  0.41226  1.0000
  C   C29       1.0  0.60728  0.14097000000000004  0.96577  1.0000
  C   C30       1.0  0.6397  0.003649999999999994  0.061880000000000004  1.0000
  C   C31       1.0  0.65744  0.9494599999999999  0.13890000000000002  1.0000
  C   C32       1.0  0.60869  0.017699999999999994  0.94677  1.0000
  C   C33       1.0  0.5991699999999999  0.10461000000000001  0.9197400000000001  1.0000
  C   C34       1.0  0.28564  0.3452200000000001  0.79565  1.0000
  C   C35       1.0  0.1996199999999999  0.3362399999999999  0.8134600000000002  1.0000
  C   C36       1.0  0.11603  0.16236000000000003  0.05443  1.0000
  C   C37       1.0  0.16764999999999994  0.9816100000000001  0.10901000000000002  1.0000
  C   C38       1.0  0.11564000000000002  0.11615999999999999  0.00823  1.0000
  C   C39       1.0  0.09588999999999996  0.2506  0.8954100000000002  1.0000
  C   C40       1.0  0.13303999999999994  0.02817000000000001  0.0385  1.0000
  C   C41       1.0  0.137  0.89014  0.03415  1.0000
  C   C42       1.0  0.10001999999999998  0.15876999999999994  0.93509  1.0000
  C   C43       1.0  0.08686  0.16146  0.81312  1.0000
  C   C44       1.0  0.12457000000000003  0.98387  3e-05  1.0000
  C   C45       1.0  0.09747999999999994  0.11469999999999987  0.8936400000000002  1.0000
  C   C46       1.0  0.10547000000000004  0.02801999999999994  0.9280800000000001  1.0000
  C   C47       1.0  0.09618999999999998  0.98158  0.8867  1.0000
  C   C48       1.0  0.1838899999999999  0.92833  0.79055  1.0000
  C   C49       1.0  0.12524  0.90872  0.24105000000000001  1.0000
  C   C50       1.0  0.11153999999999999  0.9083900000000001  0.78694  1.0000
  C   C51       1.0  0.26616999999999985  0.9083299999999999  0.7464300000000003  1.0000
  C   C52       1.0  0.06576999999999998  0.86697  0.30182  1.0000
  C   C53       1.0  0.20528000000000005  0.90692  0.25107  1.0000
  C   C54       1.0  0.12199  0.86716  0.74021  1.0000
  C   C55       1.0  0.27569  0.8670100000000001  0.70008  1.0000
  C   C56       1.0  0.08579999999999996  0.82494  0.37208  1.0000
  C   C57       1.0  0.22531000000000004  0.8632299999999999  0.32157  1.0000
  C   C58       1.0  0.2039099999999999  0.8457199999999999  0.6968300000000002  1.0000
  C   C59       1.0  0.16620999999999997  0.82256  0.3825  1.0000
  C   C60       1.0  0.24512  0.4859800000000001  0.70932  1.0000
  C   C61       1.0  0.18530000000000002  0.77935  0.45832  1.0000
  C   C62       1.0  0.26834  0.56393  0.65149  1.0000
  C   C63       1.0  0.13575999999999994  0.40262999999999993  0.7800600000000002  1.0000
  C   C64       1.0  0.15955999999999998  0.47632999999999986  0.7277400000000003  1.0000
  C   C65       1.0  0.2131699999999999  0.79882  0.6501500000000002  1.0000
  C   C66       1.0  0.3081200000000001  0.41969999999999996  0.74492  1.0000
  C   C67       1.0  0.96729  0.63526  0.70145  1.0000
  C   C68       1.0  0.90807  0.58538  0.7664  1.0000
  C   C69       1.0  0.8224500000000001  0.78385  0.47061  1.0000
  C   C70       1.0  0.7974199999999999  0.85561  0.40325  1.0000
  C   C71       1.0  0.47568  0.2701399999999999  0.5060300000000002  1.0000
  C   C72       1.0  0.20323999999999998  0.5981500000000001  0.26123  1.0000
  C   C73       1.0  0.22051000000000007  0.67445  0.21002  1.0000
  C   C74       1.0  0.35097  0.53039  0.21973000000000006  1.0000
  C   C75       1.0  0.30293000000000003  0.67872  0.16207  1.0000
  C   C76       1.0  0.3683499999999999  0.6063  0.16637000000000005  1.0000
  C   C77       1.0  0.22082999999999997  0.17028000000000001  0.26062  1.0000
  C   C78       1.0  0.36860000000000004  0.8718000000000002  0.91079  1.0000
  C   C79       1.0  0.52809  0.18019  0.62452  1.0000
  C   C80       1.0  0.39812999999999993  0.76691  0.06689000000000003  1.0000
  C   C81       1.0  0.51514  0.12749  0.69901  1.0000
  C   C82       1.0  0.25337999999999994  0.44362  0.32404000000000005  1.0000
  C   C83       1.0  0.35824000000000017  0.12630999999999995  0.9561400000000001  1.0000
  C   C84       1.0  0.2309  0.1319  0.21186  1.0000
  C   C85       1.0  0.37654  0.13589999999999997  0.24917000000000003  1.0000
  C   C86       1.0  0.37320000000000003  0.21794000000000005  0.63136  1.0000
  C   C87       1.0  0.35898  0.16742999999999997  0.70733  1.0000
  C   C88       1.0  0.2689000000000001  0.5252499999999999  0.2673300000000001  1.0000
  C   C89       1.0  0.4197  0.83875  0.15676  1.0000
  C   C90       1.0  0.29329  0.17252  0.28036  1.0000
  C   C91       1.0  0.43054000000000003  0.12053000000000001  0.74066  1.0000
  C   C92       1.0  0.38766  0.09853  0.19888  1.0000
  C   C93       1.0  0.28028  0.21395999999999998  0.3328  1.0000
  C   C94       1.0  0.31474  0.09583000000000001  0.18061  1.0000
  C   C95       1.0  0.40462  0.023770000000000003  0.09694  1.0000
  C   C96       1.0  0.37434999999999996  0.9089200000000001  0.9623200000000001  1.0000
  C   C97       1.0  0.36996  0.033179999999999966  0.98218  1.0000
  C   C98       1.0  0.4575799999999999  0.22372999999999998  0.5887100000000002  1.0000
  C   C99       1.0  0.39355  0.85913  0.03363  1.0000
  C   C100      1.0  0.35995999999999984  0.9964300000000001  0.93801  1.0000
  C   C101      1.0  0.34212999999999993  0.05061999999999987  0.8610800000000002  1.0000
  C   C102      1.0  0.3920899999999999  0.9821000000000001  0.0526  1.0000
  C   C103      1.0  0.40155999999999986  0.8952700000000001  0.07978  1.0000
  C   C104      1.0  0.7143599999999999  0.65493  0.20424000000000006  1.0000
  C   C105      1.0  0.8003599999999998  0.66377  0.18656  1.0000
  C   C106      1.0  0.88392  0.83764  0.9455400000000002  1.0000
  C   C107      1.0  0.8322899999999999  0.018349999999999977  0.89102  1.0000
  C   C108      1.0  0.8843400000000001  0.8838  0.9917500000000001  1.0000
  C   C109      1.0  0.90416  0.74937  0.10457  1.0000
  C   C110      1.0  0.8668899999999999  0.9717900000000002  0.9615100000000002  1.0000
  C   C111      1.0  0.86298  0.10984999999999996  0.9658100000000001  1.0000
  C   C112      1.0  0.90007  0.84118  0.06487  1.0000
  C   C113      1.0  0.91317  0.83854  0.18684  1.0000
  C   C114      1.0  0.8754600000000001  0.0161  0.99991  1.0000
  C   C115      1.0  0.9026400000000001  0.88527  0.10629  1.0000
  C   C116      1.0  0.89466  0.9719299999999998  0.07182  1.0000
  C   C117      1.0  0.90383  0.018379999999999997  0.11321  1.0000
  C   C118      1.0  0.81593  0.07147  0.20939  1.0000
  C   C119      1.0  0.8748400000000002  0.09117999999999998  0.75905  1.0000
  C   C120      1.0  0.88826  0.09146  0.21296  1.0000
  C   C121      1.0  0.73363  0.09138  0.25344  1.0000
  C   C122      1.0  0.9344100000000001  0.13289999999999996  0.69838  1.0000
  C   C123      1.0  0.7948699999999999  0.09299999999999992  0.7489200000000003  1.0000
  C   C124      1.0  0.8776199999999998  0.13268000000000002  0.2598  1.0000
  C   C125      1.0  0.7239599999999999  0.13271  0.29987  1.0000
  C   C126      1.0  0.91449  0.17495999999999995  0.6281100000000001  1.0000
  C   C127      1.0  0.7749599999999999  0.1367099999999999  0.6783800000000002  1.0000
  C   C128      1.0  0.79573  0.15399  0.30319  1.0000
  C   C129      1.0  0.8342300000000001  0.17739  0.61747  1.0000
  C   C130      1.0  0.7547199999999998  0.51414  0.29060000000000014  1.0000
  C   C131      1.0  0.81553  0.22085  0.54145  1.0000
  C   C132      1.0  0.7314399999999999  0.43620999999999993  0.34826  1.0000
  C   C133      1.0  0.86418  0.5973600000000001  0.21996  1.0000
  C   C134      1.0  0.84026  0.52366  0.27231  1.0000
  C   C135      1.0  0.7867600000000002  0.20074999999999996  0.3498600000000001  1.0000
  C   C136      1.0  0.6917799999999998  0.58043  0.25496  1.0000
  C   C137      1.0  0.03074000000000001  0.36525  0.29598  1.0000
  C   C138      1.0  0.09120999999999993  0.41485  0.23209  1.0000
  C   C139      1.0  0.17754000000000003  0.21787999999999996  0.533  1.0000
  C   C140      1.0  0.20226000000000002  0.14308  0.59938  1.0000
  O   O1        1.0  0.5835500000000003  0.72083  0.52982  1.0000
  O   O2        1.0  0.45723  0.70389  0.52846  1.0000
  O   O3        1.0  0.8232900000000001  0.56991  0.64974  1.0000
  O   O4        1.0  0.65564  0.7862499999999999  0.64405  1.0000
  O   O5        1.0  0.7972500000000001  0.7399099999999998  0.6524900000000001  1.0000
  O   O6        1.0  0.6764199999999998  0.6186400000000003  0.66497  1.0000
  O   O7        1.0  0.5735499999999996  0.9331700000000002  0.18704000000000004  1.0000
  O   O8        1.0  0.68167  0.94055  0.86567  1.0000
  O   O9        1.0  0.68849  0.2439399999999999  0.8862800000000002  1.0000
  O   O10       1.0  0.09973999999999998  0.95087  0.17351  1.0000
  O   O11       1.0  0.14334000000000002  0.7813199999999999  0.65336  1.0000
  O   O12       1.0  0.18570000000000003  0.25943  0.86347  1.0000
  O   O13       1.0  0.21086000000000002  0.6196699999999999  0.61455  1.0000
  O   O14       1.0  0.11822999999999997  0.76388  0.51121  1.0000
  O   O15       1.0  0.28806  0.77794  0.61144  1.0000
  O   O16       1.0  0.34421999999999997  0.57691  0.6352600000000003  1.0000
  O   O17       1.0  0.17972999999999997  0.9672200000000001  0.83629  1.0000
  O   O18       1.0  0.2633699999999999  0.7617000000000002  0.46649000000000007  1.0000
  O   O19       1.0  0.97289  0.6450000000000001  0.63301  1.0000
  O   O20       1.0  0.01610999999999989  0.6652000000000002  0.71578  1.0000
  O   O21       1.0  0.7710699999999999  0.7330700000000001  0.51326  1.0000
  O   O22       1.0  0.8945700000000001  0.76895  0.48823000000000005  1.0000
  O   O23       1.0  0.4207700000000001  0.2793900000000001  0.46931  1.0000
  O   O24       1.0  0.54476  0.29709  0.47418000000000005  1.0000
  O   O25       1.0  0.17441999999999996  0.43679  0.3551800000000001  1.0000
  O   O26       1.0  0.34500999999999993  0.20369999999999996  0.3596600000000001  1.0000
  O   O27       1.0  0.20428999999999994  0.25778  0.34797  1.0000
  O   O28       1.0  0.32050000000000006  0.38469  0.33784  1.0000
  O   O29       1.0  0.42612999999999995  0.06649000000000001  0.81352  1.0000
  O   O30       1.0  0.31855  0.05879999999999999  0.13344  1.0000
  O   O31       1.0  0.31222  0.75699  0.11300000000000002  1.0000
  O   O32       1.0  0.9003000000000001  0.04896000000000002  0.82665  1.0000
  O   O33       1.0  0.85652  0.21791999999999997  0.34694000000000014  1.0000
  O   O34       1.0  0.8143599999999999  0.7406100000000002  0.1366  1.0000
  O   O35       1.0  0.78866  0.38048  0.38546  1.0000
  O   O36       1.0  0.88214  0.23716  0.48853  1.0000
  O   O37       1.0  0.7115999999999999  0.22218  0.3883600000000001  1.0000
  O   O38       1.0  0.65555  0.42317  0.3643  1.0000
  O   O39       1.0  0.82024  0.03254999999999998  0.16358000000000006  1.0000
  O   O40       1.0  0.73737  0.23808  0.53349  1.0000
  O   O41       1.0  0.024369999999999965  0.35647  0.36381  1.0000
  O   O42       1.0  0.9827  0.33500999999999986  0.2812600000000001  1.0000
  O   O43       1.0  0.23067999999999994  0.26688000000000006  0.49344  1.0000
  O   O44       1.0  0.10503999999999995  0.23481999999999995  0.5152800000000001  1.0000
