data_image0
_chemical_formula_structural       Zn16H64C144O96
_chemical_formula_sum              "Zn16 H64 C144 O96"
_cell_length_a       13.97536
_cell_length_b       19.79187
_cell_length_c       19.79194
_cell_angle_alpha    89.84804
_cell_angle_beta     90.0
_cell_angle_gamma    90.0

_symmetry_space_group_name_H-M    'P 1'
_symmetry_Int_Tables_number       1

loop_
  _symmetry_equiv_pos_as_xyz
  'x,y,z'

loop_
  _atom_site_type_symbol
  _atom_site_label
  _atom_site_symmetry_multiplicity
  _atom_site_fract_x
  _atom_site_fract_y
  _atom_site_fract_z
  _atom_site_occupancy
  Zn  Zn1       1.0  0.36937  0.9868100000000001  0.47078999999999993  1.0000
  Zn  Zn2       1.0  0.86937  0.01319  0.52921  1.0000
  Zn  Zn3       1.0  0.12085  0.02869  0.48689  1.0000
  Zn  Zn4       1.0  0.62085  0.97131  0.51311  1.0000
  Zn  Zn5       1.0  0.37914999999999993  0.51311  0.97131  1.0000
  Zn  Zn6       1.0  0.87914  0.48689  0.028690000000000004  1.0000
  Zn  Zn7       1.0  0.6306299999999999  0.47078999999999993  0.9867999999999999  1.0000
  Zn  Zn8       1.0  0.13063  0.52921  0.013199999999999998  1.0000
  Zn  Zn9       1.0  0.0  0.48630999999999996  0.48631  1.0000
  Zn  Zn10      1.0  0.5  0.51369  0.51369  1.0000
  Zn  Zn11      1.0  0.7499999999999998  0.01467  0.98533  1.0000
  Zn  Zn12      1.0  0.25  0.9853400000000001  0.01467  1.0000
  Zn  Zn13      1.0  0.25  0.52734  0.47266  1.0000
  Zn  Zn14      1.0  0.7499999999999998  0.47265999999999997  0.52734  1.0000
  Zn  Zn15      1.0  0.0  0.02805  0.028050000000000002  1.0000
  Zn  Zn16      1.0  0.5  0.9719600000000002  0.97195  1.0000
  H   H1        1.0  0.58217  0.92749  0.15636  1.0000
  H   H2        1.0  0.64642  0.9194299999999999  0.27359  1.0000
  H   H3        1.0  0.39204  0.674  0.40659999999999996  1.0000
  H   H4        1.0  0.40342  0.66788  0.49781  1.0000
  H   H5        1.0  0.28179  0.07169  0.3155  1.0000
  H   H6        1.0  0.9633999999999998  0.72987  0.4857  1.0000
  H   H7        1.0  0.03153  0.8459199999999999  0.48943999999999993  1.0000
  H   H8        1.0  0.5429  0.50089  0.8309999999999998  1.0000
  H   H9        1.0  0.08217  0.07251  0.84364  1.0000
  H   H10       1.0  0.14641999999999994  0.08058  0.72641  1.0000
  H   H11       1.0  0.89204  0.326  0.5934  1.0000
  H   H12       1.0  0.90341  0.33212  0.50219  1.0000
  H   H13       1.0  0.78179  0.92832  0.6845  1.0000
  H   H14       1.0  0.4634  0.27013  0.51429  1.0000
  H   H15       1.0  0.53153  0.15409  0.51056  1.0000
  H   H16       1.0  0.042899999999999994  0.49911  0.169  1.0000
  H   H17       1.0  0.3328499999999999  0.34453  0.42655999999999994  1.0000
  H   H18       1.0  0.3964899999999999  0.22710999999999998  0.41802000000000006  1.0000
  H   H19       1.0  0.14242  0.09382  0.17458  1.0000
  H   H20       1.0  0.15543999999999997  0.00265  0.17063  1.0000
  H   H21       1.0  0.03169  0.18553  0.57267  1.0000
  H   H22       1.0  0.7143799999999999  0.014260000000000002  0.22914  1.0000
  H   H23       1.0  0.78067  0.01093  0.34568  1.0000
  H   H24       1.0  0.29372999999999994  0.6673  0.00133  1.0000
  H   H25       1.0  0.83285  0.65548  0.57344  1.0000
  H   H26       1.0  0.89649  0.77289  0.58198  1.0000
  H   H27       1.0  0.6424199999999998  0.90618  0.8254099999999999  1.0000
  H   H28       1.0  0.6554399999999998  0.9973499999999998  0.82937  1.0000
  H   H29       1.0  0.53169  0.8144699999999999  0.42733  1.0000
  H   H30       1.0  0.21438  0.9857399999999998  0.77086  1.0000
  H   H31       1.0  0.28067  0.98907  0.65432  1.0000
  H   H32       1.0  0.79373  0.3327  0.99867  1.0000
  H   H33       1.0  0.16715  0.57344  0.65547  1.0000
  H   H34       1.0  0.1035  0.58198  0.77289  1.0000
  H   H35       1.0  0.35757999999999995  0.82542  0.9061800000000001  1.0000
  H   H36       1.0  0.34455  0.8293700000000002  0.9973499999999998  1.0000
  H   H37       1.0  0.4683099999999999  0.42732999999999993  0.8144699999999999  1.0000
  H   H38       1.0  0.78561  0.77086  0.9857300000000001  1.0000
  H   H39       1.0  0.71933  0.65432  0.9890700000000001  1.0000
  H   H40       1.0  0.20626  0.99867  0.3327  1.0000
  H   H41       1.0  0.66715  0.42656000000000005  0.34453  1.0000
  H   H42       1.0  0.6035  0.41802  0.22711  1.0000
  H   H43       1.0  0.85758  0.17459  0.09382  1.0000
  H   H44       1.0  0.84455  0.17063  0.00265  1.0000
  H   H45       1.0  0.9683  0.57267  0.18553  1.0000
  H   H46       1.0  0.28562  0.22913999999999998  0.01426  1.0000
  H   H47       1.0  0.21932999999999997  0.34568  0.01093  1.0000
  H   H48       1.0  0.7062599999999998  0.00133  0.6673  1.0000
  H   H49       1.0  0.41783  0.15636  0.9274899999999999  1.0000
  H   H50       1.0  0.35358  0.27359  0.91942  1.0000
  H   H51       1.0  0.6079599999999998  0.40659999999999996  0.674  1.0000
  H   H52       1.0  0.59658  0.4978099999999999  0.66788  1.0000
  H   H53       1.0  0.71821  0.3155  0.07169  1.0000
  H   H54       1.0  0.0366  0.4857099999999999  0.72987  1.0000
  H   H55       1.0  0.96846  0.48944  0.8459099999999999  1.0000
  H   H56       1.0  0.4571  0.831  0.50089  1.0000
  H   H57       1.0  0.91782  0.8436399999999998  0.07251  1.0000
  H   H58       1.0  0.85358  0.72641  0.08057999999999998  1.0000
  H   H59       1.0  0.10796  0.5934  0.326  1.0000
  H   H60       1.0  0.09658  0.50219  0.33212  1.0000
  H   H61       1.0  0.21821  0.68451  0.92831  1.0000
  H   H62       1.0  0.5366  0.5143  0.27013  1.0000
  H   H63       1.0  0.46846  0.51056  0.15408  1.0000
  H   H64       1.0  0.9570999999999997  0.169  0.49911000000000005  1.0000
  C   C1        1.0  0.55949  0.9545  0.38958  1.0000
  C   C2        1.0  0.21463  0.8856099999999999  0.4801599999999999  1.0000
  C   C3        1.0  0.40755  0.96563  0.11421999999999999  1.0000
  C   C4        1.0  0.385  0.9738999999999999  0.24219  1.0000
  C   C5        1.0  0.44105  0.9589599999999999  0.18589  1.0000
  C   C6        1.0  0.42233  0.96997  0.30777  1.0000
  C   C7        1.0  0.53654  0.93826  0.19948  1.0000
  C   C8        1.0  0.51614  0.95158  0.32148999999999994  1.0000
  C   C9        1.0  0.5726599999999997  0.93435  0.26452  1.0000
  C   C10       1.0  0.17799  0.8146000000000001  0.47689  1.0000
  C   C11       1.0  0.19615  0.69263  0.46706  1.0000
  C   C12       1.0  0.35761  0.6832  0.45553  1.0000
  C   C13       1.0  0.09894  0.67998  0.47473000000000004  1.0000
  C   C14       1.0  0.05627  0.61161  0.4786099999999999  1.0000
  C   C15       1.0  0.23542999999999994  0.75769  0.46841999999999995  1.0000
  C   C16       1.0  0.2753  0.01631  0.31373  1.0000
  C   C17       1.0  0.04001  0.73793  0.48132  1.0000
  C   C18       1.0  0.07806  0.8024399999999999  0.48263  1.0000
  C   C19       1.0  0.05949  0.0455  0.61042  1.0000
  C   C20       1.0  0.71463  0.11438999999999999  0.51984  1.0000
  C   C21       1.0  0.90754  0.03437  0.88578  1.0000
  C   C22       1.0  0.8849999999999998  0.02611  0.7578  1.0000
  C   C23       1.0  0.94105  0.04104  0.81411  1.0000
  C   C24       1.0  0.92233  0.03003  0.69223  1.0000
  C   C25       1.0  0.03655  0.06174  0.80052  1.0000
  C   C26       1.0  0.01614  0.04842  0.67851  1.0000
  C   C27       1.0  0.07266  0.06565  0.73548  1.0000
  C   C28       1.0  0.67799  0.1854  0.52311  1.0000
  C   C29       1.0  0.69615  0.30737  0.53294  1.0000
  C   C30       1.0  0.8576099999999999  0.3168  0.54447  1.0000
  C   C31       1.0  0.59894  0.32002  0.52527  1.0000
  C   C32       1.0  0.55627  0.3884  0.52139  1.0000
  C   C33       1.0  0.7354299999999998  0.24231  0.53158  1.0000
  C   C34       1.0  0.7753  0.9836899999999998  0.68627  1.0000
  C   C35       1.0  0.54001  0.26207  0.51868  1.0000
  C   C36       1.0  0.57806  0.19756  0.51737  1.0000
  C   C37       1.0  0.31115  0.11154000000000001  0.45448999999999995  1.0000
  C   C38       1.0  0.96337  0.02014  0.38677  1.0000
  C   C39       1.0  0.15896  0.38662  0.46561  1.0000
  C   C40       1.0  0.13624  0.25884  0.47458999999999996  1.0000
  C   C41       1.0  0.19216  0.31502  0.4590600000000001  1.0000
  C   C42       1.0  0.17338  0.1932  0.47091999999999995  1.0000
  C   C43       1.0  0.28734  0.30143  0.4378  1.0000
  C   C44       1.0  0.26702  0.17945  0.45207  1.0000
  C   C45       1.0  0.32323  0.23638999999999996  0.4339199999999999  1.0000
  C   C46       1.0  0.9277  0.02377  0.31543  1.0000
  C   C47       1.0  0.94735  0.03274  0.19333  1.0000
  C   C48       1.0  0.10874  0.04476  0.18468  1.0000
  C   C49       1.0  0.85039  0.025029999999999997  0.18007  1.0000
  C   C50       1.0  0.80772  0.02096  0.11163999999999999  1.0000
  C   C51       1.0  0.98571  0.03239  0.25873  1.0000
  C   C52       1.0  0.02611  0.18754  0.51728  1.0000
  C   C53       1.0  0.7908299999999999  0.018739999999999996  0.23778000000000002  1.0000
  C   C54       1.0  0.82798  0.01767  0.30257  1.0000
  C   C55       1.0  0.81115  0.88846  0.5455  1.0000
  C   C56       1.0  0.4633799999999999  0.97986  0.61323  1.0000
  C   C57       1.0  0.65896  0.61338  0.53439  1.0000
  C   C58       1.0  0.63624  0.74116  0.52541  1.0000
  C   C59       1.0  0.69216  0.68498  0.54094  1.0000
  C   C60       1.0  0.6733699999999998  0.8068  0.52908  1.0000
  C   C61       1.0  0.78734  0.69858  0.5622  1.0000
  C   C62       1.0  0.76702  0.82055  0.54793  1.0000
  C   C63       1.0  0.82323  0.76361  0.56608  1.0000
  C   C64       1.0  0.4277  0.97623  0.68457  1.0000
  C   C65       1.0  0.44735  0.96726  0.80667  1.0000
  C   C66       1.0  0.6087299999999998  0.9552399999999999  0.8153199999999999  1.0000
  C   C67       1.0  0.35039  0.9749699999999999  0.81993  1.0000
  C   C68       1.0  0.3077199999999999  0.97904  0.8883599999999999  1.0000
  C   C69       1.0  0.48571  0.9676099999999999  0.74127  1.0000
  C   C70       1.0  0.52611  0.8124599999999998  0.48272  1.0000
  C   C71       1.0  0.29084  0.9812600000000001  0.76222  1.0000
  C   C72       1.0  0.32798  0.98233  0.69743  1.0000
  C   C73       1.0  0.18885  0.54551  0.88846  1.0000
  C   C74       1.0  0.53662  0.61323  0.9798599999999998  1.0000
  C   C75       1.0  0.34104  0.53439  0.61338  1.0000
  C   C76       1.0  0.36375  0.52541  0.74116  1.0000
  C   C77       1.0  0.30784  0.54094  0.68498  1.0000
  C   C78       1.0  0.32662  0.52908  0.8067999999999999  1.0000
  C   C79       1.0  0.21266  0.5622  0.69857  1.0000
  C   C80       1.0  0.23298  0.54793  0.82055  1.0000
  C   C81       1.0  0.17676  0.56608  0.76361  1.0000
  C   C82       1.0  0.57229  0.68457  0.9762299999999999  1.0000
  C   C83       1.0  0.55265  0.80667  0.9672599999999999  1.0000
  C   C84       1.0  0.3912599999999999  0.8153199999999999  0.95523  1.0000
  C   C85       1.0  0.64961  0.81993  0.9749699999999999  1.0000
  C   C86       1.0  0.6922799999999998  0.88836  0.97904  1.0000
  C   C87       1.0  0.51429  0.74127  0.9676099999999999  1.0000
  C   C88       1.0  0.47389  0.48272  0.8124600000000001  1.0000
  C   C89       1.0  0.70916  0.76222  0.98126  1.0000
  C   C90       1.0  0.67202  0.69743  0.98233  1.0000
  C   C91       1.0  0.68884  0.4545  0.11154  1.0000
  C   C92       1.0  0.03662  0.38677  0.02014  1.0000
  C   C93       1.0  0.84103  0.46561  0.38662  1.0000
  C   C94       1.0  0.86375  0.47459  0.25884  1.0000
  C   C95       1.0  0.80784  0.45905999999999997  0.31502  1.0000
  C   C96       1.0  0.82662  0.47091999999999995  0.1932  1.0000
  C   C97       1.0  0.71265  0.4378  0.30143  1.0000
  C   C98       1.0  0.73298  0.45207  0.17945  1.0000
  C   C99       1.0  0.67676  0.43393  0.23638999999999996  1.0000
  C   C100      1.0  0.07229  0.31543  0.02377  1.0000
  C   C101      1.0  0.05265  0.19333  0.03274  1.0000
  C   C102      1.0  0.89126  0.18468  0.04476  1.0000
  C   C103      1.0  0.14961  0.18007  0.02503  1.0000
  C   C104      1.0  0.19227999999999995  0.11164  0.02096  1.0000
  C   C105      1.0  0.014289999999999997  0.25873  0.03239  1.0000
  C   C106      1.0  0.9738799999999999  0.51728  0.18754  1.0000
  C   C107      1.0  0.20916  0.23778  0.01874  1.0000
  C   C108      1.0  0.17202  0.30257  0.01767  1.0000
  C   C109      1.0  0.44051  0.38958  0.9545  1.0000
  C   C110      1.0  0.78537  0.48016  0.8856099999999999  1.0000
  C   C111      1.0  0.59245  0.11422  0.9656199999999999  1.0000
  C   C112      1.0  0.615  0.24219  0.97389  1.0000
  C   C113      1.0  0.55895  0.18589  0.9589599999999999  1.0000
  C   C114      1.0  0.57767  0.30777  0.9699699999999999  1.0000
  C   C115      1.0  0.46345  0.19948  0.9382599999999999  1.0000
  C   C116      1.0  0.48386  0.32149  0.9515799999999999  1.0000
  C   C117      1.0  0.42734  0.26452  0.93434  1.0000
  C   C118      1.0  0.82201  0.4768899999999999  0.8145999999999999  1.0000
  C   C119      1.0  0.8038399999999999  0.46706  0.69263  1.0000
  C   C120      1.0  0.64239  0.45553  0.6832  1.0000
  C   C121      1.0  0.90105  0.47473  0.67998  1.0000
  C   C122      1.0  0.9437199999999999  0.47861  0.6116  1.0000
  C   C123      1.0  0.76456  0.46842000000000006  0.75769  1.0000
  C   C124      1.0  0.7247  0.31373  0.01631  1.0000
  C   C125      1.0  0.95998  0.48131999999999997  0.73793  1.0000
  C   C126      1.0  0.92193  0.48263999999999996  0.80244  1.0000
  C   C127      1.0  0.9405  0.61042  0.0455  1.0000
  C   C128      1.0  0.28537  0.51985  0.11439  1.0000
  C   C129      1.0  0.09244999999999999  0.88578  0.03437  1.0000
  C   C130      1.0  0.115  0.75781  0.026109999999999998  1.0000
  C   C131      1.0  0.05895  0.8141100000000001  0.04104  1.0000
  C   C132      1.0  0.07766999999999999  0.69223  0.03003  1.0000
  C   C133      1.0  0.9634499999999999  0.8005199999999999  0.06174  1.0000
  C   C134      1.0  0.98386  0.67852  0.04842  1.0000
  C   C135      1.0  0.9273299999999998  0.73548  0.06565  1.0000
  C   C136      1.0  0.3220099999999999  0.52311  0.1854  1.0000
  C   C137      1.0  0.30385  0.53294  0.30737  1.0000
  C   C138      1.0  0.14239  0.54447  0.3168  1.0000
  C   C139      1.0  0.40106  0.52527  0.32002  1.0000
  C   C140      1.0  0.44372  0.52139  0.38839  1.0000
  C   C141      1.0  0.26457  0.53158  0.24231  1.0000
  C   C142      1.0  0.22469999999999996  0.68627  0.98369  1.0000
  C   C143      1.0  0.45999  0.51868  0.26207  1.0000
  C   C144      1.0  0.42194  0.51737  0.19756  1.0000
  O   O1        1.0  0.50539  0.96286  0.44349  1.0000
  O   O2        1.0  0.35198  0.9865899999999999  0.35346  1.0000
  O   O3        1.0  0.30432  0.89566  0.47119  1.0000
  O   O4        1.0  0.15156  0.93031  0.49176  1.0000
  O   O5        1.0  0.11012  0.55792  0.46764  1.0000
  O   O6        1.0  0.4718  0.9561799999999999  0.06956  1.0000
  O   O7        1.0  0.29043  0.9933399999999999  0.24542  1.0000
  O   O8        1.0  0.33318  0.754  0.46119  1.0000
  O   O9        1.0  0.96967  0.6029899999999999  0.49166  1.0000
  O   O10       1.0  0.26778  0.64606  0.45789  1.0000
  O   O11       1.0  0.31942  0.9795999999999999  0.10419  1.0000
  O   O12       1.0  0.64802  0.94971  0.39751999999999993  1.0000
  O   O13       1.0  0.0054  0.03714  0.55651  1.0000
  O   O14       1.0  0.85198  0.01342  0.64654  1.0000
  O   O15       1.0  0.80432  0.10434000000000002  0.52881  1.0000
  O   O16       1.0  0.65156  0.06969  0.50823  1.0000
  O   O17       1.0  0.61011  0.44208  0.53236  1.0000
  O   O18       1.0  0.9718  0.04382  0.9304399999999999  1.0000
  O   O19       1.0  0.7904299999999999  0.00666  0.75458  1.0000
  O   O20       1.0  0.8331799999999998  0.246  0.53881  1.0000
  O   O21       1.0  0.4696799999999999  0.3970099999999999  0.50834  1.0000
  O   O22       1.0  0.7677799999999999  0.35394  0.54211  1.0000
  O   O23       1.0  0.81942  0.0204  0.8958  1.0000
  O   O24       1.0  0.14802  0.0503  0.60248  1.0000
  O   O25       1.0  0.25747  0.05738  0.46431  1.0000
  O   O26       1.0  0.10315  0.14772  0.48826  1.0000
  O   O27       1.0  0.05269999999999998  0.030479999999999997  0.39725  1.0000
  O   O28       1.0  0.9001699999999998  0.0066500000000000005  0.43089  1.0000
  O   O29       1.0  0.86066  0.03341  0.057539999999999994  1.0000
  O   O30       1.0  0.22424  0.4308199999999999  0.45734  1.0000
  O   O31       1.0  0.04210999999999999  0.25609  0.49483000000000005  1.0000
  O   O32       1.0  0.08340999999999998  0.04034  0.25548  1.0000
  O   O33       1.0  0.7214  0.00679  0.10381  1.0000
  O   O34       1.0  0.01953999999999999  0.0407  0.14699  1.0000
  O   O35       1.0  0.0708  0.39728  0.47820000000000007  1.0000
  O   O36       1.0  0.3994  0.10403999999999998  0.44793  1.0000
  O   O37       1.0  0.75746  0.9426199999999999  0.53569  1.0000
  O   O38       1.0  0.60315  0.85229  0.51174  1.0000
  O   O39       1.0  0.5527  0.9695299999999999  0.60275  1.0000
  O   O40       1.0  0.40017  0.9933600000000001  0.56911  1.0000
  O   O41       1.0  0.36066  0.9666  0.94246  1.0000
  O   O42       1.0  0.72424  0.56918  0.54266  1.0000
  O   O43       1.0  0.54211  0.74391  0.50517  1.0000
  O   O44       1.0  0.58341  0.95966  0.74452  1.0000
  O   O45       1.0  0.22139999999999996  0.99321  0.8961800000000001  1.0000
  O   O46       1.0  0.51954  0.9593  0.8530099999999999  1.0000
  O   O47       1.0  0.5708  0.60273  0.5218  1.0000
  O   O48       1.0  0.8993999999999999  0.8959700000000002  0.55207  1.0000
  O   O49       1.0  0.24252999999999997  0.5357  0.94262  1.0000
  O   O50       1.0  0.39685  0.51174  0.85228  1.0000
  O   O51       1.0  0.4473  0.60275  0.96952  1.0000
  O   O52       1.0  0.59983  0.56911  0.99335  1.0000
  O   O53       1.0  0.63933  0.94247  0.96659  1.0000
  O   O54       1.0  0.27576  0.54266  0.56918  1.0000
  O   O55       1.0  0.45789  0.50517  0.74391  1.0000
  O   O56       1.0  0.4165899999999999  0.74452  0.9596600000000001  1.0000
  O   O57       1.0  0.7785999999999998  0.89619  0.99321  1.0000
  O   O58       1.0  0.48046  0.85301  0.9593  1.0000
  O   O59       1.0  0.4291999999999999  0.5218  0.60272  1.0000
  O   O60       1.0  0.10059999999999998  0.55208  0.8959600000000001  1.0000
  O   O61       1.0  0.7425299999999998  0.46431000000000006  0.05738000000000001  1.0000
  O   O62       1.0  0.8968499999999999  0.48826  0.14772  1.0000
  O   O63       1.0  0.94729  0.39725  0.030479999999999997  1.0000
  O   O64       1.0  0.09983  0.43089  0.006649999999999999  1.0000
  O   O65       1.0  0.13933  0.057539999999999994  0.03341  1.0000
  O   O66       1.0  0.77575  0.45734  0.4308199999999999  1.0000
  O   O67       1.0  0.9578899999999998  0.49483  0.25609  1.0000
  O   O68       1.0  0.91659  0.25548  0.04034  1.0000
  O   O69       1.0  0.2786  0.10381999999999998  0.00679  1.0000
  O   O70       1.0  0.98045  0.14699  0.0407  1.0000
  O   O71       1.0  0.9292  0.4782  0.39728  1.0000
  O   O72       1.0  0.6006  0.44793  0.10404  1.0000
  O   O73       1.0  0.4945999999999999  0.44348999999999994  0.9628499999999999  1.0000
  O   O74       1.0  0.64801  0.35346  0.9865800000000001  1.0000
  O   O75       1.0  0.69568  0.47119  0.8956599999999999  1.0000
  O   O76       1.0  0.84843  0.49177  0.9303  1.0000
  O   O77       1.0  0.88988  0.46763999999999994  0.55792  1.0000
  O   O78       1.0  0.5282  0.06956  0.95618  1.0000
  O   O79       1.0  0.70957  0.24542  0.9933299999999999  1.0000
  O   O80       1.0  0.66682  0.46119  0.754  1.0000
  O   O81       1.0  0.03032  0.49166000000000004  0.60299  1.0000
  O   O82       1.0  0.73222  0.45789  0.64606  1.0000
  O   O83       1.0  0.68057  0.10418999999999999  0.9796  1.0000
  O   O84       1.0  0.35198  0.39752  0.9497000000000001  1.0000
  O   O85       1.0  0.9946  0.55651  0.03714  1.0000
  O   O86       1.0  0.14802  0.64654  0.01342  1.0000
  O   O87       1.0  0.19567999999999994  0.52881  0.10434  1.0000
  O   O88       1.0  0.34844  0.50824  0.06969  1.0000
  O   O89       1.0  0.3898799999999999  0.53236  0.44208  1.0000
  O   O90       1.0  0.0282  0.93044  0.04382  1.0000
  O   O91       1.0  0.20956999999999995  0.7545799999999999  0.00666  1.0000
  O   O92       1.0  0.16681999999999997  0.53881  0.246  1.0000
  O   O93       1.0  0.53032  0.50834  0.39701  1.0000
  O   O94       1.0  0.23222  0.54211  0.35394  1.0000
  O   O95       1.0  0.18058  0.8958100000000001  0.0204  1.0000
  O   O96       1.0  0.85198  0.60248  0.0503  1.0000
