data_image0
_chemical_formula_structural       Cu24H120C168N24O120
_chemical_formula_sum              "Cu24 H120 C168 N24 O120"
_cell_length_a       17.36948
_cell_length_b       19.546400000000002
_cell_length_c       21.15733
_cell_angle_alpha    90.1647
_cell_angle_beta     90.0465
_cell_angle_gamma    90.08200000000001

_space_group_name_H-M_alt    "P 1"
_space_group_IT_number       1

loop_
  _space_group_symop_operation_xyz
  'x, y, z'

loop_
  _atom_site_type_symbol
  _atom_site_label
  _atom_site_symmetry_multiplicity
  _atom_site_fract_x
  _atom_site_fract_y
  _atom_site_fract_z
  _atom_site_occupancy
  Cu  Cu1       1.0  0.12586  0.5842299999999999  0.03957  1.0000
  Cu  Cu2       1.0  0.98211  0.64751  0.06145000000000001  1.0000
  Cu  Cu3       1.0  0.49629999999999996  0.51347  0.4429300000000001  1.0000
  Cu  Cu4       1.0  0.12448  0.4155  0.4582300000000001  1.0000
  Cu  Cu5       1.0  0.9800199999999999  0.35271  0.43704  1.0000
  Cu  Cu6       1.0  0.49632  0.48644  0.05706  1.0000
  Cu  Cu7       1.0  0.37585  0.08409999999999998  0.45809000000000005  1.0000
  Cu  Cu8       1.0  0.52051  0.148  0.4374700000000001  1.0000
  Cu  Cu9       1.0  0.0037299999999999994  0.01445  0.056900000000000006  1.0000
  Cu  Cu10      1.0  0.37492  0.9153499999999999  0.040150000000000005  1.0000
  Cu  Cu11      1.0  0.52013  0.8523099999999999  0.06139  1.0000
  Cu  Cu12      1.0  0.0035499999999999998  0.9856399999999997  0.44304000000000004  1.0000
  Cu  Cu13      1.0  0.87413  0.41577  0.9604200000000003  1.0000
  Cu  Cu14      1.0  0.0179  0.3525  0.93856  1.0000
  Cu  Cu15      1.0  0.50369  0.48654  0.55707  1.0000
  Cu  Cu16      1.0  0.87566  0.58446  0.54163  1.0000
  Cu  Cu17      1.0  0.01992  0.6479199999999999  0.56296  1.0000
  Cu  Cu18      1.0  0.50368  0.51356  0.9429400000000001  1.0000
  Cu  Cu19      1.0  0.62415  0.9159  0.54191  1.0000
  Cu  Cu20      1.0  0.47948999999999997  0.8519999999999999  0.56253  1.0000
  Cu  Cu21      1.0  0.99626  0.98555  0.9431000000000002  1.0000
  Cu  Cu22      1.0  0.62508  0.08465999999999999  0.9598500000000001  1.0000
  Cu  Cu23      1.0  0.4798799999999999  0.14771  0.9386100000000002  1.0000
  Cu  Cu24      1.0  0.9964499999999998  0.01436  0.55696  1.0000
  H   H1        1.0  0.9114  0.55288  0.87962  1.0000
  H   H2        1.0  0.96842  0.62101  0.85028  1.0000
  H   H3        1.0  0.225  0.63176  0.8768700000000001  1.0000
  H   H4        1.0  0.17919  0.6161299999999998  0.67855  1.0000
  H   H5        1.0  0.28006  0.69045  0.9351200000000001  1.0000
  H   H6        1.0  0.39124  0.7086999999999998  0.7432  1.0000
  H   H7        1.0  0.32934  0.66894  0.51581  1.0000
  H   H8        1.0  0.26238  0.59925  0.43638000000000005  1.0000
  H   H9        1.0  0.19449  0.62995  0.49182  1.0000
  H   H10       1.0  0.31613  0.6573199999999999  0.04256  1.0000
  H   H11       1.0  0.39907  0.69292  0.07831000000000002  1.0000
  H   H12       1.0  0.44342  0.72203  0.9611800000000001  1.0000
  H   H13       1.0  0.14376  0.5439  0.87525  1.0000
  H   H14       1.0  0.25934  0.57913  0.61167  1.0000
  H   H15       1.0  0.00537  0.51567  0.7988800000000001  1.0000
  H   H16       1.0  0.91135  0.44594  0.6187800000000001  1.0000
  H   H17       1.0  0.96726  0.37751  0.64872  1.0000
  H   H18       1.0  0.22525  0.36756  0.6222300000000001  1.0000
  H   H19       1.0  0.17877  0.38222  0.82045  1.0000
  H   H20       1.0  0.28054  0.30962  0.56361  1.0000
  H   H21       1.0  0.39121  0.29071  0.7563300000000001  1.0000
  H   H22       1.0  0.32948  0.33092  0.9834600000000002  1.0000
  H   H23       1.0  0.2632  0.40129  0.06277  1.0000
  H   H24       1.0  0.1947  0.3698899999999999  0.00782  1.0000
  H   H25       1.0  0.31606  0.34216  0.45674000000000003  1.0000
  H   H26       1.0  0.39883  0.30692  0.42059000000000013  1.0000
  H   H27       1.0  0.44381  0.27795  0.53781  1.0000
  H   H28       1.0  0.14371  0.45582  0.6246  1.0000
  H   H29       1.0  0.25828  0.41980999999999996  0.88768  1.0000
  H   H30       1.0  0.00485  0.48154  0.7006400000000003  1.0000
  H   H31       1.0  0.5883  0.05283999999999999  0.6185500000000002  1.0000
  H   H32       1.0  0.533  0.1217  0.6486000000000001  1.0000
  H   H33       1.0  0.27579  0.13228  0.6222300000000001  1.0000
  H   H34       1.0  0.32044  0.11723999999999998  0.8206  1.0000
  H   H35       1.0  0.22016  0.19129  0.56367  1.0000
  H   H36       1.0  0.10763  0.20718999999999999  0.7556400000000001  1.0000
  H   H37       1.0  0.17115  0.1685  0.9834500000000002  1.0000
  H   H38       1.0  0.23717999999999997  0.09843999999999997  0.06207  1.0000
  H   H39       1.0  0.30566  0.1293  0.00705  1.0000
  H   H40       1.0  0.18368  0.15795  0.45584  1.0000
  H   H41       1.0  0.10017  0.19298999999999994  0.42063000000000006  1.0000
  H   H42       1.0  0.05675  0.22257  0.5377  1.0000
  H   H43       1.0  0.35642999999999997  0.04406  0.6241700000000001  1.0000
  H   H44       1.0  0.24269000000000002  0.07999  0.8871200000000001  1.0000
  H   H45       1.0  0.49484999999999996  0.01827  0.7006300000000001  1.0000
  H   H46       1.0  0.58831  0.9473899999999998  0.88017  1.0000
  H   H47       1.0  0.5322199999999999  0.8787499999999999  0.8499900000000001  1.0000
  H   H48       1.0  0.27501  0.8684899999999999  0.87693  1.0000
  H   H49       1.0  0.32043  0.88356  0.6786700000000001  1.0000
  H   H50       1.0  0.22018  0.80903  0.93459  1.0000
  H   H51       1.0  0.10788  0.79226  0.74313  1.0000
  H   H52       1.0  0.17119  0.83152  0.51558  1.0000
  H   H53       1.0  0.23785000000000003  0.90124  0.43677000000000005  1.0000
  H   H54       1.0  0.30577  0.87042  0.4920500000000001  1.0000
  H   H55       1.0  0.1833  0.8421  0.04381000000000001  1.0000
  H   H56       1.0  0.09942  0.8067599999999998  0.07790000000000001  1.0000
  H   H57       1.0  0.05695  0.77713  0.9608800000000001  1.0000
  H   H58       1.0  0.35576  0.9566799999999999  0.8745600000000001  1.0000
  H   H59       1.0  0.24144000000000002  0.9206499999999999  0.61207  1.0000
  H   H60       1.0  0.49463999999999997  0.98356  0.7991200000000002  1.0000
  H   H61       1.0  0.0886  0.44713  0.12038  1.0000
  H   H62       1.0  0.031569999999999994  0.37901  0.14973  1.0000
  H   H63       1.0  0.77499  0.36825  0.12314000000000003  1.0000
  H   H64       1.0  0.82078  0.3838999999999999  0.32145  1.0000
  H   H65       1.0  0.71994  0.30955  0.06487  1.0000
  H   H66       1.0  0.60875  0.2913  0.25680000000000003  1.0000
  H   H67       1.0  0.67066  0.33107  0.4842  1.0000
  H   H68       1.0  0.73763  0.40077  0.56362  1.0000
  H   H69       1.0  0.8055199999999999  0.37007  0.50818  1.0000
  H   H70       1.0  0.68387  0.34269  0.9574400000000002  1.0000
  H   H71       1.0  0.60093  0.30709  0.92168  1.0000
  H   H72       1.0  0.55658  0.27798  0.03881  1.0000
  H   H73       1.0  0.85624  0.4561  0.12475  1.0000
  H   H74       1.0  0.74061  0.4209  0.38832  1.0000
  H   H75       1.0  0.99463  0.48434  0.20113000000000006  1.0000
  H   H76       1.0  0.08895  0.5542499999999999  0.38117000000000006  1.0000
  H   H77       1.0  0.03314  0.62279  0.35126  1.0000
  H   H78       1.0  0.77477  0.63244  0.37776000000000004  1.0000
  H   H79       1.0  0.82122  0.6177999999999998  0.17953000000000002  1.0000
  H   H80       1.0  0.71946  0.69037  0.43639000000000006  1.0000
  H   H81       1.0  0.6088  0.70929  0.24368000000000004  1.0000
  H   H82       1.0  0.67053  0.66908  0.01654  1.0000
  H   H83       1.0  0.73681  0.59872  0.9372300000000002  1.0000
  H   H84       1.0  0.80531  0.6301  0.99218  1.0000
  H   H85       1.0  0.68394  0.65784  0.54327  1.0000
  H   H86       1.0  0.60117  0.6930799999999999  0.57941  1.0000
  H   H87       1.0  0.5562  0.72205  0.46219000000000005  1.0000
  H   H88       1.0  0.8565  0.54425  0.37534  1.0000
  H   H89       1.0  0.74173  0.58019  0.11232000000000003  1.0000
  H   H90       1.0  0.9952800000000002  0.5188299999999999  0.29921  1.0000
  H   H91       1.0  0.4117  0.94716  0.3814500000000001  1.0000
  H   H92       1.0  0.467  0.87831  0.35139  1.0000
  H   H93       1.0  0.72421  0.86772  0.37776000000000004  1.0000
  H   H94       1.0  0.67955  0.8827599999999999  0.17939  1.0000
  H   H95       1.0  0.77981  0.80873  0.4363  1.0000
  H   H96       1.0  0.89238  0.7928199999999999  0.24435  1.0000
  H   H97       1.0  0.82885  0.83151  0.01655  1.0000
  H   H98       1.0  0.76281  0.90157  0.93793  1.0000
  H   H99       1.0  0.69434  0.87071  0.9929400000000002  1.0000
  H   H100      1.0  0.81631  0.84207  0.5441600000000001  1.0000
  H   H101      1.0  0.8998  0.80702  0.57936  1.0000
  H   H102      1.0  0.9432099999999999  0.77742  0.46229  1.0000
  H   H103      1.0  0.64357  0.95595  0.37582  1.0000
  H   H104      1.0  0.7573  0.92001  0.11288  1.0000
  H   H105      1.0  0.50515  0.9817299999999999  0.29936  1.0000
  H   H106      1.0  0.41168  0.05261999999999999  0.11983000000000003  1.0000
  H   H107      1.0  0.46778  0.12125  0.15001  1.0000
  H   H108      1.0  0.72498  0.13152  0.12308  1.0000
  H   H109      1.0  0.67957  0.11646  0.32134000000000007  1.0000
  H   H110      1.0  0.77982  0.19095999999999996  0.06542  1.0000
  H   H111      1.0  0.89212  0.20773  0.25687000000000004  1.0000
  H   H112      1.0  0.82881  0.16848  0.4844200000000001  1.0000
  H   H113      1.0  0.76214  0.09876  0.56323  1.0000
  H   H114      1.0  0.69423  0.12958  0.50794  1.0000
  H   H115      1.0  0.8167  0.15790999999999997  0.9561900000000002  1.0000
  H   H116      1.0  0.90058  0.19324999999999998  0.9221000000000001  1.0000
  H   H117      1.0  0.9430499999999999  0.22289  0.03912  1.0000
  H   H118      1.0  0.64423  0.04332  0.12545  1.0000
  H   H119      1.0  0.75856  0.07935  0.38793  1.0000
  H   H120      1.0  0.50535  0.01645  0.20089  1.0000
  C   C1        1.0  0.31316  0.6741399999999997  0.81546  1.0000
  C   C2        1.0  0.97017  0.57403  0.87874  1.0000
  C   C3        1.0  0.24314  0.6409999999999999  0.82841  1.0000
  C   C4        1.0  0.21878  0.6309699999999999  0.71604  1.0000
  C   C5        1.0  0.36746  0.79233  0.0037600000000000003  1.0000
  C   C6        1.0  0.31783  0.66813  0.63585  1.0000
  C   C7        1.0  0.36628  0.70011  0.86603  1.0000
  C   C8        1.0  0.21437  0.52314  0.49739  1.0000
  C   C9        1.0  0.02587  0.45402  0.8771100000000001  1.0000
  C   C10       1.0  0.19538  0.62032  0.77855  1.0000
  C   C11       1.0  0.29016  0.66078  0.7027  1.0000
  C   C12       1.0  0.33646  0.6836900000000001  0.7526500000000002  1.0000
  C   C13       1.0  0.38019  0.5709099999999999  0.52028  1.0000
  C   C14       1.0  0.11769000000000002  0.5889099999999999  0.787  1.0000
  C   C15       1.0  0.02695  0.52367  0.8473100000000002  1.0000
  C   C16       1.0  0.30979  0.61759  0.52973  1.0000
  C   C17       1.0  0.42059  0.6051399999999999  0.02187  1.0000
  C   C18       1.0  0.38371  0.72156  0.9789600000000002  1.0000
  C   C19       1.0  0.9921699999999999  0.59289  0.9457  1.0000
  C   C20       1.0  0.24387000000000003  0.59529  0.48581  1.0000
  C   C21       1.0  0.37685  0.6706399999999999  0.034190000000000005  1.0000
  C   C22       1.0  0.31335  0.32519999999999993  0.68363  1.0000
  C   C23       1.0  0.96987  0.42439999999999994  0.62017  1.0000
  C   C24       1.0  0.24324000000000004  0.35811999999999994  0.6707200000000001  1.0000
  C   C25       1.0  0.21863  0.36778  0.78307  1.0000
  C   C26       1.0  0.36778  0.20740999999999998  0.49504000000000004  1.0000
  C   C27       1.0  0.31847  0.3319599999999999  0.86312  1.0000
  C   C28       1.0  0.36648  0.29965  0.6329  1.0000
  C   C29       1.0  0.21497  0.4766  0.0016  1.0000
  C   C30       1.0  0.02575  0.54497  0.62343  1.0000
  C   C31       1.0  0.19532  0.37835  0.72051  1.0000
  C   C32       1.0  0.29024  0.33858  0.79638  1.0000
  C   C33       1.0  0.33654999999999996  0.31569  0.74651  1.0000
  C   C34       1.0  0.38033  0.42903  0.97841  1.0000
  C   C35       1.0  0.11743999999999999  0.40914999999999996  0.7120200000000002  1.0000
  C   C36       1.0  0.02663  0.47468  0.6521500000000001  1.0000
  C   C37       1.0  0.30992  0.38212999999999997  0.9693  1.0000
  C   C38       1.0  0.42065  0.3948599999999999  0.47682000000000013  1.0000
  C   C39       1.0  0.3841  0.27829  0.51996  1.0000
  C   C40       1.0  0.99193  0.40527  0.5533400000000002  1.0000
  C   C41       1.0  0.24429999999999996  0.4045499999999999  0.01335  1.0000
  C   C42       1.0  0.37692  0.32918  0.46475000000000005  1.0000
  C   C43       1.0  0.18665  0.17405999999999996  0.6832800000000001  1.0000
  C   C44       1.0  0.52994  0.07469999999999999  0.62002  1.0000
  C   C45       1.0  0.25702  0.14146  0.67059  1.0000
  C   C46       1.0  0.28077  0.13147  0.78306  1.0000
  C   C47       1.0  0.13252  0.29266999999999993  0.4948600000000001  1.0000
  C   C48       1.0  0.18096  0.16696  0.86286  1.0000
  C   C49       1.0  0.13368  0.19985999999999998  0.6325600000000001  1.0000
  C   C50       1.0  0.28532  0.022389999999999997  0.00087  1.0000
  C   C51       1.0  0.47336  0.95463  0.62363  1.0000
  C   C52       1.0  0.30443  0.12101  0.7206100000000001  1.0000
  C   C53       1.0  0.20898  0.16036  0.79612  1.0000
  C   C54       1.0  0.16276  0.1829  0.74611  1.0000
  C   C55       1.0  0.11967000000000001  0.07084  0.9783000000000001  1.0000
  C   C56       1.0  0.38223  0.09016  0.71239  1.0000
  C   C57       1.0  0.47307000000000005  0.02501  0.65216  1.0000
  C   C58       1.0  0.19031  0.11723  0.9689  1.0000
  C   C59       1.0  0.07932  0.10508999999999999  0.47672000000000003  1.0000
  C   C60       1.0  0.11644000000000002  0.22197999999999998  0.51982  1.0000
  C   C61       1.0  0.5079  0.09361  0.55318  1.0000
  C   C62       1.0  0.25606  0.09464999999999998  0.012690000000000002  1.0000
  C   C63       1.0  0.12291  0.17077  0.46443000000000006  1.0000
  C   C64       1.0  0.18652  0.82642  0.81532  1.0000
  C   C65       1.0  0.52986  0.9255799999999997  0.8788900000000001  1.0000
  C   C66       1.0  0.25682  0.85915  0.82839  1.0000
  C   C67       1.0  0.28077  0.86892  0.71602  1.0000
  C   C68       1.0  0.13377  0.70724  0.0026400000000000004  1.0000
  C   C69       1.0  0.18142  0.8323899999999997  0.63577  1.0000
  C   C70       1.0  0.13349  0.80053  0.8658600000000002  1.0000
  C   C71       1.0  0.28642  0.9773199999999999  0.49737  1.0000
  C   C72       1.0  0.47367  0.04542  0.87732  1.0000
  C   C73       1.0  0.30447  0.87942  0.7785000000000002  1.0000
  C   C74       1.0  0.20912  0.8396399999999998  0.7026  1.0000
  C   C75       1.0  0.16286  0.81704  0.75249  1.0000
  C   C76       1.0  0.1199  0.92921  0.52037  1.0000
  C   C77       1.0  0.38235  0.9103099999999998  0.78688  1.0000
  C   C78       1.0  0.47292999999999996  0.9757  0.84747  1.0000
  C   C79       1.0  0.1905  0.88288  0.5299000000000001  1.0000
  C   C80       1.0  0.07922  0.8947099999999999  0.02188  1.0000
  C   C81       1.0  0.11675  0.77817  0.97865  1.0000
  C   C82       1.0  0.50796  0.90642  0.9457  1.0000
  C   C83       1.0  0.25648  0.9051999999999999  0.48621000000000003  1.0000
  C   C84       1.0  0.12271  0.82908  0.03434000000000001  1.0000
  C   C85       1.0  0.68682  0.32586999999999994  0.18454  1.0000
  C   C86       1.0  0.02983  0.42598  0.12127000000000003  1.0000
  C   C87       1.0  0.75685  0.35901  0.17159  1.0000
  C   C88       1.0  0.78119  0.36904  0.28396000000000005  1.0000
  C   C89       1.0  0.63254  0.20766999999999997  0.9962400000000001  1.0000
  C   C90       1.0  0.68215  0.33189  0.36415  1.0000
  C   C91       1.0  0.63371  0.29989999999999994  0.13396000000000002  1.0000
  C   C92       1.0  0.78561  0.47687  0.5025900000000001  1.0000
  C   C93       1.0  0.97412  0.54599  0.12290000000000002  1.0000
  C   C94       1.0  0.8046  0.37969  0.22145  1.0000
  C   C95       1.0  0.70982  0.33923  0.2973  1.0000
  C   C96       1.0  0.66352  0.31631999999999993  0.24735  1.0000
  C   C97       1.0  0.61981  0.42910999999999994  0.47972  1.0000
  C   C98       1.0  0.8823  0.4111  0.21301000000000003  1.0000
  C   C99       1.0  0.9730400000000001  0.47633999999999993  0.1527  1.0000
  C   C100      1.0  0.69021  0.38243  0.4702700000000001  1.0000
  C   C101      1.0  0.57941  0.3948599999999999  0.97813  1.0000
  C   C102      1.0  0.61629  0.27845  0.021030000000000004  1.0000
  C   C103      1.0  0.00783  0.40711  0.05431  1.0000
  C   C104      1.0  0.7561299999999999  0.40472  0.5141800000000001  1.0000
  C   C105      1.0  0.62315  0.3293599999999999  0.9658000000000002  1.0000
  C   C106      1.0  0.68665  0.67478  0.31637000000000004  1.0000
  C   C107      1.0  0.03046  0.57586  0.37973  1.0000
  C   C108      1.0  0.75678  0.64189  0.32927  1.0000
  C   C109      1.0  0.78137  0.63223  0.21691000000000002  1.0000
  C   C110      1.0  0.63222  0.79259  0.5049600000000001  1.0000
  C   C111      1.0  0.68152  0.66803  0.13688  1.0000
  C   C112      1.0  0.63352  0.7003399999999999  0.3671  1.0000
  C   C113      1.0  0.78502  0.5234099999999999  0.99839  1.0000
  C   C114      1.0  0.97437  0.45555  0.3765100000000001  1.0000
  C   C115      1.0  0.8047  0.6217  0.27946  1.0000
  C   C116      1.0  0.70974  0.66142  0.20361  1.0000
  C   C117      1.0  0.66344  0.6842999999999999  0.25349  1.0000
  C   C118      1.0  0.61967  0.57098  0.02159  1.0000
  C   C119      1.0  0.88262  0.59099  0.28793  1.0000
  C   C120      1.0  0.97365  0.52571  0.34772  1.0000
  C   C121      1.0  0.69009  0.61787  0.0307  1.0000
  C   C122      1.0  0.57934  0.6051499999999999  0.52318  1.0000
  C   C123      1.0  0.61591  0.7217199999999999  0.48004  1.0000
  C   C124      1.0  0.00819  0.59494  0.44653  1.0000
  C   C125      1.0  0.7557  0.5954499999999999  0.9866400000000001  1.0000
  C   C126      1.0  0.6230899999999999  0.67082  0.53525  1.0000
  C   C127      1.0  0.81336  0.82595  0.31671  1.0000
  C   C128      1.0  0.47006000000000003  0.92531  0.37998  1.0000
  C   C129      1.0  0.74297  0.85854  0.3294  1.0000
  C   C130      1.0  0.71922  0.86852  0.21693  1.0000
  C   C131      1.0  0.86741  0.70737  0.50511  1.0000
  C   C132      1.0  0.81905  0.8330399999999999  0.13714  1.0000
  C   C133      1.0  0.86632  0.80016  0.36743  1.0000
  C   C134      1.0  0.71468  0.9776099999999999  0.99913  1.0000
  C   C135      1.0  0.52664  0.04537  0.37636  1.0000
  C   C136      1.0  0.69555  0.87898  0.27938  1.0000
  C   C137      1.0  0.79101  0.8396399999999998  0.20387000000000002  1.0000
  C   C138      1.0  0.83725  0.8171099999999999  0.25388  1.0000
  C   C139      1.0  0.88033  0.92917  0.0217  1.0000
  C   C140      1.0  0.61777  0.9098499999999999  0.2876  1.0000
  C   C141      1.0  0.5269299999999999  0.97499  0.34783  1.0000
  C   C142      1.0  0.80968  0.88277  0.031100000000000003  1.0000
  C   C143      1.0  0.92067  0.8949199999999998  0.5232800000000001  1.0000
  C   C144      1.0  0.88352  0.77805  0.48017  1.0000
  C   C145      1.0  0.49210999999999994  0.9063899999999999  0.44681000000000004  1.0000
  C   C146      1.0  0.74394  0.90535  0.9873100000000002  1.0000
  C   C147      1.0  0.87707  0.82924  0.53557  1.0000
  C   C148      1.0  0.81348  0.17359  0.18468  1.0000
  C   C149      1.0  0.47014  0.07443  0.12111  1.0000
  C   C150      1.0  0.74317  0.14087  0.17161000000000004  1.0000
  C   C151      1.0  0.71923  0.13108999999999998  0.28399  1.0000
  C   C152      1.0  0.8662199999999999  0.29277  0.9973700000000001  1.0000
  C   C153      1.0  0.8185699999999999  0.16761  0.36423  1.0000
  C   C154      1.0  0.86651  0.19947999999999996  0.13414000000000004  1.0000
  C   C155      1.0  0.71357  0.02268  0.50262  1.0000
  C   C156      1.0  0.52633  0.9545799999999999  0.12269000000000002  1.0000
  C   C157      1.0  0.6955199999999999  0.12059  0.22150000000000006  1.0000
  C   C158      1.0  0.79087  0.16037  0.2974  1.0000
  C   C159      1.0  0.8371399999999999  0.18295999999999998  0.24751  1.0000
  C   C160      1.0  0.8801  0.07079  0.4796300000000001  1.0000
  C   C161      1.0  0.61765  0.08968999999999999  0.21313000000000001  1.0000
  C   C162      1.0  0.52707  0.024309999999999995  0.15253  1.0000
  C   C163      1.0  0.8095  0.11712  0.4701  1.0000
  C   C164      1.0  0.9207799999999998  0.10529999999999999  0.97812  1.0000
  C   C165      1.0  0.88325  0.22184  0.02135  1.0000
  C   C166      1.0  0.4920300000000001  0.09359  0.05430000000000001  1.0000
  C   C167      1.0  0.7435199999999998  0.09479999999999998  0.5137900000000001  1.0000
  C   C168      1.0  0.87729  0.17091999999999996  0.9656600000000002  1.0000
  N   N1        1.0  0.28543  0.62201  0.59467  1.0000
  N   N2        1.0  0.10374  0.55173  0.84054  1.0000
  N   N3        1.0  0.33571  0.7039599999999999  0.92589  1.0000
  N   N4        1.0  0.28524  0.37734  0.9044600000000003  1.0000
  N   N5        1.0  0.10355  0.44708  0.65897  1.0000
  N   N6        1.0  0.33599  0.2958  0.57297  1.0000
  N   N7        1.0  0.21442999999999998  0.12179999999999999  0.9040100000000001  1.0000
  N   N8        1.0  0.39638  0.052919999999999995  0.6588300000000001  1.0000
  N   N9        1.0  0.16453  0.20469999999999997  0.57287  1.0000
  N   N10       1.0  0.21429999999999996  0.8783  0.59489  1.0000
  N   N11       1.0  0.39625  0.94764  0.84045  1.0000
  N   N12       1.0  0.16429  0.7962999999999999  0.9256  1.0000
  N   N13       1.0  0.71456  0.37799999999999995  0.4053300000000001  1.0000
  N   N14       1.0  0.89625  0.44828  0.15947  1.0000
  N   N15       1.0  0.66429  0.29605  0.07411  1.0000
  N   N16       1.0  0.71476  0.62266  0.09554  1.0000
  N   N17       1.0  0.89669  0.55327  0.34105  1.0000
  N   N18       1.0  0.66401  0.7041999999999999  0.42702  1.0000
  N   N19       1.0  0.78557  0.87821  0.09599  1.0000
  N   N20       1.0  0.60362  0.9470899999999999  0.34116000000000013  1.0000
  N   N21       1.0  0.83545  0.7953499999999998  0.42712  1.0000
  N   N22       1.0  0.78569  0.1217  0.40511  1.0000
  N   N23       1.0  0.60374  0.05237  0.15955  1.0000
  N   N24       1.0  0.83572  0.20371  0.07440000000000001  1.0000
  O   O1        1.0  0.08498  0.42464999999999997  0.90092  1.0000
  O   O2        1.0  0.31201  0.8287499999999999  0.98697  1.0000
  O   O3        1.0  0.43321  0.71759  0.8542300000000002  1.0000
  O   O4        1.0  0.04673  0.5595499999999999  0.9712800000000001  1.0000
  O   O5        1.0  0.9531299999999999  0.6412  0.97201  1.0000
  O   O6        1.0  0.36499  0.71235  0.6192  1.0000
  O   O7        1.0  0.41347  0.8175999999999998  0.04780000000000001  1.0000
  O   O8        1.0  0.06689  0.59581  0.74597  1.0000
  O   O9        1.0  0.9610799999999999  0.4212699999999999  0.87937  1.0000
  O   O10       1.0  0.17558  0.49867999999999996  0.44864  1.0000
  O   O11       1.0  0.40246  0.56592  0.46292  1.0000
  O   O12       1.0  0.43338  0.56845  0.07042  1.0000
  O   O13       1.0  0.41001  0.54267  0.56842  1.0000
  O   O14       1.0  0.44114  0.5931099999999999  0.9651600000000002  1.0000
  O   O15       1.0  0.22478  0.49149  0.54752  1.0000
  O   O16       1.0  0.08519  0.5743499999999999  0.6000000000000001  1.0000
  O   O17       1.0  0.31219  0.17101  0.51159  1.0000
  O   O18       1.0  0.43351  0.28238  0.6444700000000001  1.0000
  O   O19       1.0  0.04679  0.43819  0.5278200000000001  1.0000
  O   O20       1.0  0.9524899999999998  0.35713999999999996  0.52683  1.0000
  O   O21       1.0  0.367  0.28895  0.8795200000000001  1.0000
  O   O22       1.0  0.41368  0.18219999999999995  0.4509400000000001  1.0000
  O   O23       1.0  0.06652  0.4010399999999999  0.75268  1.0000
  O   O24       1.0  0.9613100000000001  0.57814  0.62186  1.0000
  O   O25       1.0  0.17606  0.50117  0.05020000000000001  1.0000
  O   O26       1.0  0.40266  0.43407  0.03579  1.0000
  O   O27       1.0  0.43338  0.43152  0.42823  1.0000
  O   O28       1.0  0.41  0.45732999999999996  0.9302400000000001  1.0000
  O   O29       1.0  0.44129  0.40704  0.53352  1.0000
  O   O30       1.0  0.22561  0.50829  0.9515600000000002  1.0000
  O   O31       1.0  0.4138  0.9258  0.59989  1.0000
  O   O32       1.0  0.18761  0.32994999999999997  0.51148  1.0000
  O   O33       1.0  0.06649  0.21654999999999996  0.64418  1.0000
  O   O34       1.0  0.45339  0.060429999999999984  0.52724  1.0000
  O   O35       1.0  0.54727  0.14186999999999997  0.52715  1.0000
  O   O36       1.0  0.13242  0.20990999999999996  0.8795200000000001  1.0000
  O   O37       1.0  0.08642  0.3167999999999999  0.4505500000000001  1.0000
  O   O38       1.0  0.43277  0.09744  0.75365  1.0000
  O   O39       1.0  0.53741  0.9209499999999999  0.6221700000000001  1.0000
  O   O40       1.0  0.3217499999999999  0.99725  0.05036  1.0000
  O   O41       1.0  0.09715  0.06725  0.03567  1.0000
  O   O42       1.0  0.06676  0.06738  0.42852000000000007  1.0000
  O   O43       1.0  0.09009  0.04152  0.9304100000000001  1.0000
  O   O44       1.0  0.05854  0.09409999999999999  0.5335  1.0000
  O   O45       1.0  0.27716999999999997  0.99118  0.9500100000000001  1.0000
  O   O46       1.0  0.4143  0.07435  0.9013200000000001  1.0000
  O   O47       1.0  0.18764  0.67008  0.9840700000000001  1.0000
  O   O48       1.0  0.06641  0.7833  0.8542100000000001  1.0000
  O   O49       1.0  0.45337  0.93939  0.9715  1.0000
  O   O50       1.0  0.54738  0.8582099999999998  0.9716600000000002  1.0000
  O   O51       1.0  0.13394  0.78831  0.61897  1.0000
  O   O52       1.0  0.08938  0.68262  0.0479  1.0000
  O   O53       1.0  0.43314  0.9026799999999999  0.74595  1.0000
  O   O54       1.0  0.53825  0.07836  0.87936  1.0000
  O   O55       1.0  0.32443  0.0009600000000000001  0.44803000000000004  1.0000
  O   O56       1.0  0.09727  0.9328  0.46301000000000003  1.0000
  O   O57       1.0  0.06668  0.9324199999999999  0.07005  1.0000
  O   O58       1.0  0.09025  0.95831  0.5682700000000002  1.0000
  O   O59       1.0  0.0586  0.9057799999999999  0.96506  1.0000
  O   O60       1.0  0.27736  0.00972  0.54742  1.0000
  O   O61       1.0  0.91501  0.5753599999999999  0.09908  1.0000
  O   O62       1.0  0.68798  0.17126  0.01303  1.0000
  O   O63       1.0  0.56678  0.28242  0.14576000000000003  1.0000
  O   O64       1.0  0.95328  0.44045  0.02872  1.0000
  O   O65       1.0  0.04687  0.3588  0.028000000000000008  1.0000
  O   O66       1.0  0.63497  0.28767999999999994  0.3808000000000001  1.0000
  O   O67       1.0  0.58653  0.18239999999999998  0.9522000000000002  1.0000
  O   O68       1.0  0.93309  0.40420999999999996  0.25405  1.0000
  O   O69       1.0  0.03892  0.5787399999999999  0.12064000000000001  1.0000
  O   O70       1.0  0.82448  0.50131  0.55129  1.0000
  O   O71       1.0  0.59753  0.4340899999999999  0.53708  1.0000
  O   O72       1.0  0.56661  0.43156  0.92958  1.0000
  O   O73       1.0  0.58999  0.45734  0.4315800000000001  1.0000
  O   O74       1.0  0.55887  0.4069  0.03484000000000001  1.0000
  O   O75       1.0  0.7751  0.5085199999999999  0.45248  1.0000
  O   O76       1.0  0.91477  0.42681  0.40018000000000004  1.0000
  O   O77       1.0  0.68781  0.8289999999999997  0.4884100000000001  1.0000
  O   O78       1.0  0.5665  0.7176199999999999  0.35553  1.0000
  O   O79       1.0  0.9532099999999999  0.562  0.47184  1.0000
  O   O80       1.0  0.04752  0.6430599999999997  0.47314000000000006  1.0000
  O   O81       1.0  0.63299  0.71105  0.12048000000000002  1.0000
  O   O82       1.0  0.58632  0.8178  0.54906  1.0000
  O   O83       1.0  0.93348  0.59905  0.24722  1.0000
  O   O84       1.0  0.03856  0.42194  0.37802000000000013  1.0000
  O   O85       1.0  0.82394  0.49883999999999995  0.94982  1.0000
  O   O86       1.0  0.59735  0.56593  0.9642000000000001  1.0000
  O   O87       1.0  0.56661  0.5684799999999999  0.5717700000000001  1.0000
  O   O88       1.0  0.59  0.54268  0.06976000000000002  1.0000
  O   O89       1.0  0.55871  0.5929699999999999  0.46649000000000007  1.0000
  O   O90       1.0  0.77435  0.4917199999999999  0.04843  1.0000
  O   O91       1.0  0.5862  0.07421  0.40011  1.0000
  O   O92       1.0  0.81236  0.67006  0.48850000000000005  1.0000
  O   O93       1.0  0.93351  0.7834599999999998  0.35582  1.0000
  O   O94       1.0  0.54662  0.93958  0.47275  1.0000
  O   O95       1.0  0.45272  0.85814  0.47285  1.0000
  O   O96       1.0  0.8676  0.7900999999999998  0.12048000000000002  1.0000
  O   O97       1.0  0.91353  0.6832499999999999  0.54941  1.0000
  O   O98       1.0  0.56723  0.9025799999999999  0.24634000000000003  1.0000
  O   O99       1.0  0.46258999999999995  0.07905  0.37784  1.0000
  O   O100      1.0  0.67824  0.0027500000000000003  0.9496400000000002  1.0000
  O   O101      1.0  0.90285  0.9327499999999999  0.96433  1.0000
  O   O102      1.0  0.9332399999999998  0.9326299999999998  0.57148  1.0000
  O   O103      1.0  0.9099  0.9584799999999999  0.06959000000000001  1.0000
  O   O104      1.0  0.94146  0.9059099999999998  0.4665000000000001  1.0000
  O   O105      1.0  0.72283  0.00883  0.04998  1.0000
  O   O106      1.0  0.5857  0.92566  0.09868  1.0000
  O   O107      1.0  0.81236  0.32992999999999995  0.01593  1.0000
  O   O108      1.0  0.9335899999999999  0.21670999999999999  0.14579  1.0000
  O   O109      1.0  0.54663  0.06061999999999999  0.028500000000000008  1.0000
  O   O110      1.0  0.45262  0.1418  0.028340000000000008  1.0000
  O   O111      1.0  0.86605  0.2117  0.38103000000000004  1.0000
  O   O112      1.0  0.9106199999999999  0.31739  0.95211  1.0000
  O   O113      1.0  0.56687  0.09731  0.25406000000000006  1.0000
  O   O114      1.0  0.46174999999999994  0.9216399999999999  0.12065  1.0000
  O   O115      1.0  0.67558  0.99903  0.55196  1.0000
  O   O116      1.0  0.90273  0.0672  0.53699  1.0000
  O   O117      1.0  0.93332  0.06759  0.9299500000000003  1.0000
  O   O118      1.0  0.90974  0.04168  0.43174  1.0000
  O   O119      1.0  0.9413999999999999  0.09423  0.03494  1.0000
  O   O120      1.0  0.72263  0.9902899999999999  0.45256  1.0000
