data_image0
_chemical_formula_structural       Zn12H192C240N96
_chemical_formula_sum              "Zn12 H192 C240 N96"
_cell_length_a       23.40858
_cell_length_b       23.402630000000002
_cell_length_c       23.411569999999998
_cell_angle_alpha    60.0192
_cell_angle_beta     59.97963
_cell_angle_gamma    60.01776999999999

_space_group_name_H-M_alt    "P 1"
_space_group_IT_number       1

loop_
  _space_group_symop_operation_xyz
  'x, y, z'

loop_
  _atom_site_type_symbol
  _atom_site_label
  _atom_site_symmetry_multiplicity
  _atom_site_fract_x
  _atom_site_fract_y
  _atom_site_fract_z
  _atom_site_occupancy
  Zn  Zn1       1.0  0.12499999999999993  0.6250300000000001  0.12499  1.0000
  Zn  Zn2       1.0  0.6249400000000002  0.12512999999999996  0.62494  1.0000
  Zn  Zn3       1.0  0.62484  0.12513999999999997  0.12528  1.0000
  Zn  Zn4       1.0  0.1252  0.62484  0.62488  1.0000
  Zn  Zn5       1.0  0.12479000000000001  0.12482999999999991  0.62538  1.0000
  Zn  Zn6       1.0  0.62516  0.62518  0.12484  1.0000
  Zn  Zn7       1.0  0.8752499999999999  0.87511  0.37467  1.0000
  Zn  Zn8       1.0  0.37485000000000007  0.37478  0.87518  1.0000
  Zn  Zn9       1.0  0.8747800000000001  0.3751199999999999  0.37516  1.0000
  Zn  Zn10      1.0  0.37514999999999993  0.87485  0.87472  1.0000
  Zn  Zn11      1.0  0.8750800000000001  0.37499  0.875  1.0000
  Zn  Zn12      1.0  0.3750100000000001  0.8749399999999999  0.37503  1.0000
  H   H1        1.0  0.09065000000000001  0.48365  0.20712  1.0000
  H   H2        1.0  0.07346000000000005  0.41492  0.34814  1.0000
  H   H3        1.0  0.09786000000000006  0.6086699999999999  0.2832  1.0000
  H   H4        1.0  0.08083  0.59179  0.38511  1.0000
  H   H5        1.0  0.7185899999999997  0.2071  0.48368  1.0000
  H   H6        1.0  0.6633399999999998  0.3482  0.41484000000000004  1.0000
  H   H7        1.0  0.5103500000000001  0.28319999999999995  0.60877  1.0000
  H   H8        1.0  0.4422499999999999  0.38519  0.5916  1.0000
  H   H9        1.0  0.20719  0.71862  0.09079  1.0000
  H   H10       1.0  0.34800000000000003  0.66348  0.07378  1.0000
  H   H11       1.0  0.28328000000000003  0.5105  0.09735  1.0000
  H   H12       1.0  0.38492000000000004  0.44239  0.08113  1.0000
  H   H13       1.0  0.48364999999999997  0.09088  0.71853  1.0000
  H   H14       1.0  0.41481  0.07366999999999999  0.66333  1.0000
  H   H15       1.0  0.6088099999999999  0.09758999999999998  0.51039  1.0000
  H   H16       1.0  0.5917399999999999  0.08090999999999995  0.4421900000000001  1.0000
  H   H17       1.0  0.48380000000000006  0.20717999999999998  0.09051  1.0000
  H   H18       1.0  0.4147800000000001  0.34817  0.0735  1.0000
  H   H19       1.0  0.6083499999999998  0.28353000000000006  0.09803  1.0000
  H   H20       1.0  0.5919799999999998  0.38546  0.08015  1.0000
  H   H21       1.0  0.20728999999999986  0.48371  0.71859  1.0000
  H   H22       1.0  0.34827000000000014  0.4147799999999999  0.66348  1.0000
  H   H23       1.0  0.28353000000000006  0.60833  0.51022  1.0000
  H   H24       1.0  0.3853500000000001  0.59197  0.4424100000000001  1.0000
  H   H25       1.0  0.7186199999999999  0.09046999999999997  0.20731000000000002  1.0000
  H   H26       1.0  0.6635199999999999  0.07360999999999998  0.34813000000000005  1.0000
  H   H27       1.0  0.51018  0.09776999999999997  0.28355  1.0000
  H   H28       1.0  0.4422400000000001  0.08041000000000001  0.38539  1.0000
  H   H29       1.0  0.09077000000000005  0.7184199999999998  0.4838700000000001  1.0000
  H   H30       1.0  0.0737300000000001  0.6634099999999999  0.41472  1.0000
  H   H31       1.0  0.09762000000000004  0.51028  0.60845  1.0000
  H   H32       1.0  0.08042999999999997  0.4424500000000001  0.59188  1.0000
  H   H33       1.0  0.20738999999999996  0.09046999999999998  0.4836500000000001  1.0000
  H   H34       1.0  0.34835  0.07359999999999997  0.41505  1.0000
  H   H35       1.0  0.2828300000000001  0.09821000000000002  0.60879  1.0000
  H   H36       1.0  0.38511000000000006  0.08024000000000002  0.59209  1.0000
  H   H37       1.0  0.4835900000000002  0.7184499999999999  0.20744  1.0000
  H   H38       1.0  0.415  0.66298  0.34831  1.0000
  H   H39       1.0  0.60894  0.51025  0.28272  1.0000
  H   H40       1.0  0.59203  0.4426  0.38495000000000007  1.0000
  H   H41       1.0  0.09031  0.20742999999999995  0.71855  1.0000
  H   H42       1.0  0.07358000000000009  0.3483899999999999  0.6629900000000001  1.0000
  H   H43       1.0  0.09814999999999996  0.28279000000000004  0.5102  1.0000
  H   H44       1.0  0.08041000000000002  0.38511  0.44246  1.0000
  H   H45       1.0  0.7184400000000002  0.48361999999999994  0.09067000000000001  1.0000
  H   H46       1.0  0.6627599999999999  0.41495  0.07374  1.0000
  H   H47       1.0  0.51026  0.60889  0.09791  1.0000
  H   H48       1.0  0.44256999999999996  0.59212  0.08024000000000002  1.0000
  H   H49       1.0  0.21863000000000005  0.9837499999999998  0.70718  1.0000
  H   H50       1.0  0.16334000000000007  0.9148199999999999  0.84834  1.0000
  H   H51       1.0  0.010159999999999943  0.10835999999999998  0.78353  1.0000
  H   H52       1.0  0.94231  0.09200999999999997  0.8854100000000001  1.0000
  H   H53       1.0  0.5903199999999995  0.70722  0.98386  1.0000
  H   H54       1.0  0.5732500000000004  0.8483799999999999  0.9149200000000001  1.0000
  H   H55       1.0  0.59822  0.78357  0.10819000000000001  1.0000
  H   H56       1.0  0.58015  0.88535  0.09197  1.0000
  H   H57       1.0  0.9838199999999998  0.21845  0.59066  1.0000
  H   H58       1.0  0.9146700000000001  0.16353999999999994  0.57361  1.0000
  H   H59       1.0  0.10839999999999998  0.010219999999999996  0.59776  1.0000
  H   H60       1.0  0.09200000000000007  0.9422699999999998  0.58035  1.0000
  H   H61       1.0  0.70724  0.59059  0.21855000000000002  1.0000
  H   H62       1.0  0.84815  0.57364  0.16348  1.0000
  H   H63       1.0  0.78356  0.59765  0.01027  1.0000
  H   H64       1.0  0.8852499999999999  0.5804100000000001  0.94249  1.0000
  H   H65       1.0  0.2185900000000001  0.7073499999999999  0.59029  1.0000
  H   H66       1.0  0.16279999999999992  0.84859  0.5736  1.0000
  H   H67       1.0  0.010219999999999958  0.78288  0.59804  1.0000
  H   H68       1.0  0.9424300000000002  0.88507  0.5804  1.0000
  H   H69       1.0  0.5906000000000001  0.98366  0.21844000000000002  1.0000
  H   H70       1.0  0.5737700000000001  0.91499  0.16287  1.0000
  H   H71       1.0  0.59788  0.10903999999999998  0.010410000000000003  1.0000
  H   H72       1.0  0.5801899999999999  0.09204999999999999  0.9425300000000001  1.0000
  H   H73       1.0  0.9836300000000001  0.5905  0.70742  1.0000
  H   H74       1.0  0.9149799999999999  0.5736800000000001  0.8483799999999999  1.0000
  H   H75       1.0  0.10885000000000002  0.5982  0.78283  1.0000
  H   H76       1.0  0.09212000000000002  0.58022  0.88519  1.0000
  H   H77       1.0  0.70732  0.21846999999999997  0.98367  1.0000
  H   H78       1.0  0.8483900000000001  0.16289000000000003  0.91497  1.0000
  H   H79       1.0  0.7828  0.01034  0.10889  1.0000
  H   H80       1.0  0.88501  0.9425599999999998  0.09202  1.0000
  H   H81       1.0  0.21850999999999995  0.5909  0.9836600000000001  1.0000
  H   H82       1.0  0.16319  0.57371  0.9147800000000001  1.0000
  H   H83       1.0  0.010370000000000008  0.59753  0.10878  1.0000
  H   H84       1.0  0.9422800000000001  0.58091  0.09173  1.0000
  H   H85       1.0  0.5907800000000001  0.21858  0.70712  1.0000
  H   H86       1.0  0.57372  0.16359000000000004  0.84802  1.0000
  H   H87       1.0  0.59745  0.010540000000000006  0.78324  1.0000
  H   H88       1.0  0.5811300000000005  0.94219  0.88501  1.0000
  H   H89       1.0  0.9835999999999999  0.7071599999999999  0.2186  1.0000
  H   H90       1.0  0.91478  0.84818  0.1634  1.0000
  H   H91       1.0  0.10876000000000001  0.78306  0.01042  1.0000
  H   H92       1.0  0.09167999999999998  0.88516  0.9422500000000001  1.0000
  H   H93       1.0  0.7071500000000001  0.98351  0.59078  1.0000
  H   H94       1.0  0.8480899999999998  0.91488  0.57353  1.0000
  H   H95       1.0  0.78316  0.10871999999999998  0.59783  1.0000
  H   H96       1.0  0.8851600000000001  0.09165999999999999  0.58081  1.0000
  H   H97       1.0  0.7814500000000001  0.016510000000000004  0.29266  1.0000
  H   H98       1.0  0.8365  0.08524999999999998  0.15193  1.0000
  H   H99       1.0  0.9898200000000001  0.89149  0.21649000000000002  1.0000
  H   H100      1.0  0.057660000000000065  0.90802  0.11465  1.0000
  H   H101      1.0  0.40961000000000003  0.29282  0.01616  1.0000
  H   H102      1.0  0.4267000000000001  0.15187  0.08507000000000002  1.0000
  H   H103      1.0  0.40185999999999994  0.21652999999999997  0.89169  1.0000
  H   H104      1.0  0.4198599999999999  0.11449999999999995  0.90799  1.0000
  H   H105      1.0  0.01616000000000005  0.7814999999999998  0.40936  1.0000
  H   H106      1.0  0.08526000000000014  0.8365399999999998  0.42650000000000005  1.0000
  H   H107      1.0  0.8916300000000001  0.98974  0.40217  1.0000
  H   H108      1.0  0.90804  0.05763000000000001  0.41963  1.0000
  H   H109      1.0  0.2927899999999997  0.40948000000000007  0.78148  1.0000
  H   H110      1.0  0.15173  0.42643  0.83658  1.0000
  H   H111      1.0  0.21637999999999988  0.40218  0.9898400000000002  1.0000
  H   H112      1.0  0.11471999999999997  0.41967  0.05759999999999999  1.0000
  H   H113      1.0  0.7814400000000002  0.29254  0.40961  1.0000
  H   H114      1.0  0.8370799999999999  0.15163999999999994  0.42627000000000004  1.0000
  H   H115      1.0  0.9897999999999999  0.21721  0.40191  1.0000
  H   H116      1.0  0.057519999999999974  0.11491999999999997  0.4195900000000001  1.0000
  H   H117      1.0  0.40939000000000003  0.01618000000000001  0.7816  1.0000
  H   H118      1.0  0.42623000000000005  0.08506000000000001  0.83727  1.0000
  H   H119      1.0  0.40209999999999996  0.89115  0.9896700000000002  1.0000
  H   H120      1.0  0.41967  0.90786  0.05756  1.0000
  H   H121      1.0  0.016350000000000035  0.40949  0.2926  1.0000
  H   H122      1.0  0.08498  0.4263199999999999  0.15162000000000003  1.0000
  H   H123      1.0  0.8911  0.40186  0.21717000000000003  1.0000
  H   H124      1.0  0.9079100000000001  0.41975999999999997  0.11485000000000001  1.0000
  H   H125      1.0  0.2926  0.7814799999999998  0.01636  1.0000
  H   H126      1.0  0.1516500000000001  0.8370499999999998  0.08498  1.0000
  H   H127      1.0  0.2171899999999999  0.98972  0.89117  1.0000
  H   H128      1.0  0.11502999999999998  0.05741999999999994  0.90799  1.0000
  H   H129      1.0  0.7814500000000001  0.40908999999999995  0.01645  1.0000
  H   H130      1.0  0.83667  0.42623999999999995  0.08524  1.0000
  H   H131      1.0  0.9896  0.40250999999999987  0.8911800000000001  1.0000
  H   H132      1.0  0.05776  0.41903  0.9083600000000001  1.0000
  H   H133      1.0  0.40931  0.78142  0.29282  1.0000
  H   H134      1.0  0.42622000000000004  0.83657  0.15197  1.0000
  H   H135      1.0  0.4026099999999999  0.9895200000000002  0.21677  1.0000
  H   H136      1.0  0.41886  0.05772999999999999  0.11494  1.0000
  H   H137      1.0  0.01646000000000005  0.29275999999999996  0.78143  1.0000
  H   H138      1.0  0.08519  0.15197000000000002  0.83649  1.0000
  H   H139      1.0  0.8912499999999999  0.21689999999999995  0.9896800000000001  1.0000
  H   H140      1.0  0.9083  0.11482999999999999  0.05772  1.0000
  H   H141      1.0  0.29286999999999996  0.016469999999999978  0.40928000000000003  1.0000
  H   H142      1.0  0.15191000000000002  0.08517000000000002  0.42639  1.0000
  H   H143      1.0  0.21680000000000005  0.8912899999999999  0.40226  1.0000
  H   H144      1.0  0.11492000000000002  0.90831  0.41916  1.0000
  H   H145      1.0  0.9092999999999999  0.51636  0.79294  1.0000
  H   H146      1.0  0.9263900000000002  0.5851599999999998  0.65194  1.0000
  H   H147      1.0  0.9021500000000001  0.3913  0.71689  1.0000
  H   H148      1.0  0.9191699999999999  0.40823000000000004  0.61476  1.0000
  H   H149      1.0  0.2814500000000003  0.7928699999999995  0.51647  1.0000
  H   H150      1.0  0.33664000000000005  0.65193  0.58522  1.0000
  H   H151      1.0  0.4896000000000001  0.71694  0.39111  1.0000
  H   H152      1.0  0.5577899999999998  0.6148299999999999  0.40836000000000006  1.0000
  H   H153      1.0  0.7928600000000001  0.28136  0.9094400000000001  1.0000
  H   H154      1.0  0.6517799999999999  0.33658  0.9264100000000001  1.0000
  H   H155      1.0  0.7167900000000003  0.48954999999999993  0.90243  1.0000
  H   H156      1.0  0.61499  0.5576899999999999  0.9189400000000001  1.0000
  H   H157      1.0  0.5163200000000001  0.9091499999999999  0.28153  1.0000
  H   H158      1.0  0.5852200000000001  0.92637  0.33666  1.0000
  H   H159      1.0  0.39120000000000005  0.90245  0.48961000000000005  1.0000
  H   H160      1.0  0.40826000000000007  0.9191  0.55782  1.0000
  H   H161      1.0  0.51619  0.79288  0.90946  1.0000
  H   H162      1.0  0.5852200000000005  0.6518399999999999  0.92645  1.0000
  H   H163      1.0  0.39162000000000013  0.7164899999999998  0.902  1.0000
  H   H164      1.0  0.40798999999999996  0.6145399999999999  0.91977  1.0000
  H   H165      1.0  0.7928000000000001  0.51626  0.28142000000000006  1.0000
  H   H166      1.0  0.65169  0.58526  0.3366  1.0000
  H   H167      1.0  0.7164600000000001  0.39167  0.48974  1.0000
  H   H168      1.0  0.61467  0.40804  0.55758  1.0000
  H   H169      1.0  0.28142000000000006  0.90948  0.79271  1.0000
  H   H170      1.0  0.33649999999999997  0.92636  0.65184  1.0000
  H   H171      1.0  0.4898200000000001  0.9022799999999999  0.71637  1.0000
  H   H172      1.0  0.5576999999999999  0.9195899999999998  0.6146800000000001  1.0000
  H   H173      1.0  0.90937  0.28153  0.51612  1.0000
  H   H174      1.0  0.9265199999999998  0.33652  0.5852300000000001  1.0000
  H   H175      1.0  0.90219  0.4897599999999999  0.39171  1.0000
  H   H176      1.0  0.91966  0.55763  0.40804  1.0000
  H   H177      1.0  0.7926900000000001  0.90947  0.51633  1.0000
  H   H178      1.0  0.6515999999999998  0.92637  0.58495  1.0000
  H   H179      1.0  0.71711  0.9017699999999998  0.39125  1.0000
  H   H180      1.0  0.6149  0.91977  0.40794  1.0000
  H   H181      1.0  0.5163900000000002  0.28150999999999987  0.79255  1.0000
  H   H182      1.0  0.5849699999999999  0.33695  0.6517200000000001  1.0000
  H   H183      1.0  0.39104999999999973  0.48973  0.7173  1.0000
  H   H184      1.0  0.40795000000000003  0.55746  0.61496  1.0000
  H   H185      1.0  0.9095700000000001  0.7924199999999999  0.28149  1.0000
  H   H186      1.0  0.9263699999999999  0.65163  0.33703  1.0000
  H   H187      1.0  0.9019000000000001  0.71723  0.48978  1.0000
  H   H188      1.0  0.9196199999999998  0.61492  0.55745  1.0000
  H   H189      1.0  0.2815200000000001  0.5162699999999998  0.90945  1.0000
  H   H190      1.0  0.33716  0.5849999999999999  0.92632  1.0000
  H   H191      1.0  0.4897699999999999  0.3911200000000001  0.90201  1.0000
  H   H192      1.0  0.5574199999999999  0.40793  0.9196700000000001  1.0000
  C   C1        1.0  0.08938000000000004  0.49938999999999995  0.24411  1.0000
  C   C2        1.0  0.08138000000000008  0.46458999999999984  0.31393000000000004  1.0000
  C   C3        1.0  0.09310999999999998  0.56598  0.28169  1.0000
  C   C4        1.0  0.07936999999999994  0.49089  0.40687  1.0000
  C   C5        1.0  0.08008000000000007  0.5406799999999999  0.42346000000000006  1.0000
  C   C6        1.0  0.66712  0.24410999999999997  0.49934  1.0000
  C   C7        1.0  0.6400600000000001  0.31391  0.46451  1.0000
  C   C8        1.0  0.5592700000000002  0.28168  0.56602  1.0000
  C   C9        1.0  0.5229  0.40688  0.49080000000000007  1.0000
  C   C10       1.0  0.4558300000000001  0.4235499999999999  0.54051  1.0000
  C   C11       1.0  0.2441  0.66715  0.08951  1.0000
  C   C12       1.0  0.3138900000000001  0.64004  0.08163  1.0000
  C   C13       1.0  0.28171  0.55937  0.09287  1.0000
  C   C14       1.0  0.4068300000000001  0.52296  0.07936  1.0000
  C   C15       1.0  0.4234100000000001  0.45587999999999995  0.08015  1.0000
  C   C16       1.0  0.4992400000000001  0.08952999999999998  0.66715  1.0000
  C   C17       1.0  0.4645099999999999  0.08149  0.64005  1.0000
  C   C18       1.0  0.5660399999999998  0.09298  0.55931  1.0000
  C   C19       1.0  0.49089  0.07940000000000001  0.52289  1.0000
  C   C20       1.0  0.54058  0.08016999999999999  0.45582000000000006  1.0000
  C   C21       1.0  0.4993  0.24427999999999997  0.08936  1.0000
  C   C22       1.0  0.46448  0.31408  0.08132000000000002  1.0000
  C   C23       1.0  0.5657699999999999  0.28193  0.09317000000000002  1.0000
  C   C24       1.0  0.49054  0.40700000000000003  0.07986  1.0000
  C   C25       1.0  0.54079  0.42366  0.07969  1.0000
  C   C26       1.0  0.24432999999999996  0.49928  0.66711  1.0000
  C   C27       1.0  0.31413  0.4644799999999999  0.64011  1.0000
  C   C28       1.0  0.28193  0.56571  0.55918  1.0000
  C   C29       1.0  0.4069800000000001  0.4906099999999999  0.5225  1.0000
  C   C30       1.0  0.4236  0.54083  0.45575000000000004  1.0000
  C   C31       1.0  0.6671000000000001  0.08936000000000001  0.24425  1.0000
  C   C32       1.0  0.6401200000000002  0.08132999999999999  0.31405  1.0000
  C   C33       1.0  0.55919  0.09304000000000001  0.2819  1.0000
  C   C34       1.0  0.52256  0.07988999999999999  0.40696  1.0000
  C   C35       1.0  0.45578000000000013  0.07981000000000002  0.42361  1.0000
  C   C36       1.0  0.0895100000000001  0.66704  0.49928  1.0000
  C   C37       1.0  0.08146000000000006  0.6400999999999999  0.46444  1.0000
  C   C38       1.0  0.0930000000000001  0.55921  0.56581  1.0000
  C   C39       1.0  0.07989000000000004  0.52258  0.49056  1.0000
  C   C40       1.0  0.07983999999999997  0.45584  0.54077  1.0000
  C   C41       1.0  0.24420999999999984  0.08935999999999997  0.49946000000000007  1.0000
  C   C42       1.0  0.31404000000000004  0.08145999999999999  0.46473  1.0000
  C   C43       1.0  0.2815200000000001  0.09314999999999998  0.5662  1.0000
  C   C44       1.0  0.40676999999999996  0.07998999999999999  0.4909  1.0000
  C   C45       1.0  0.42341  0.07992  0.54085  1.0000
  C   C46       1.0  0.49938000000000005  0.6669599999999998  0.24428000000000002  1.0000
  C   C47       1.0  0.46471  0.63972  0.31408  1.0000
  C   C48       1.0  0.5662099999999999  0.55915  0.28148  1.0000
  C   C49       1.0  0.4909099999999999  0.52239  0.40673  1.0000
  C   C50       1.0  0.5408400000000002  0.45590999999999987  0.4233100000000001  1.0000
  C   C51       1.0  0.08924000000000001  0.24427999999999997  0.66703  1.0000
  C   C52       1.0  0.08129999999999997  0.3141  0.63982  1.0000
  C   C53       1.0  0.09313999999999999  0.2815  0.55915  1.0000
  C   C54       1.0  0.0798699999999999  0.4068  0.5224000000000001  1.0000
  C   C55       1.0  0.07988000000000009  0.4234499999999999  0.45588  1.0000
  C   C56       1.0  0.6669600000000003  0.49937999999999994  0.08946  1.0000
  C   C57       1.0  0.6397600000000001  0.46465999999999996  0.08153  1.0000
  C   C58       1.0  0.5592000000000001  0.56625  0.09304  1.0000
  C   C59       1.0  0.52234  0.4909499999999999  0.07992  1.0000
  C   C60       1.0  0.45582999999999996  0.5409  0.07987  1.0000
  C   C61       1.0  0.16714000000000018  0.9992999999999999  0.74425  1.0000
  C   C62       1.0  0.14012999999999998  0.9645  0.81407  1.0000
  C   C63       1.0  0.05916999999999997  0.06579999999999998  0.78191  1.0000
  C   C64       1.0  0.022520000000000234  0.9905999999999998  0.90697  1.0000
  C   C65       1.0  0.95574  0.04084  0.92364  1.0000
  C   C66       1.0  0.58916  0.7443199999999999  0.9993800000000002  1.0000
  C   C67       1.0  0.5811100000000001  0.8141299999999998  0.9645900000000001  1.0000
  C   C68       1.0  0.59327  0.78191  0.06573  1.0000
  C   C69       1.0  0.5799300000000001  0.90695  0.9905499999999999  1.0000
  C   C70       1.0  0.57971  0.92361  0.04082  1.0000
  C   C71       1.0  0.9992400000000001  0.16708000000000003  0.58939  1.0000
  C   C72       1.0  0.9644200000000002  0.14011000000000004  0.58134  1.0000
  C   C73       1.0  0.06576000000000001  0.05919999999999999  0.59308  1.0000
  C   C74       1.0  0.9906199999999998  0.022519999999999967  0.5799000000000001  1.0000
  C   C75       1.0  0.04084999999999997  0.95579  0.5798  1.0000
  C   C76       1.0  0.7442499999999999  0.58944  0.16707  1.0000
  C   C77       1.0  0.8140699999999998  0.58143  0.14006  1.0000
  C   C78       1.0  0.7819500000000003  0.59297  0.05922  1.0000
  C   C79       1.0  0.90698  0.57983  0.022590000000000002  1.0000
  C   C80       1.0  0.92358  0.57982  0.95583  1.0000
  C   C81       1.0  0.16704999999999998  0.74424  0.58932  1.0000
  C   C82       1.0  0.13982  0.8140799999999999  0.5813900000000001  1.0000
  C   C83       1.0  0.05923000000000001  0.78145  0.59308  1.0000
  C   C84       1.0  0.022429999999999953  0.90675  0.57984  1.0000
  C   C85       1.0  0.9558899999999998  0.9233899999999999  0.57984  1.0000
  C   C86       1.0  0.5894300000000001  0.99939  0.16697  1.0000
  C   C87       1.0  0.58156  0.9646899999999999  0.13972  1.0000
  C   C88       1.0  0.59298  0.06627999999999998  0.05924  1.0000
  C   C89       1.0  0.57986  0.99093  0.0224  1.0000
  C   C90       1.0  0.5798499999999999  0.040789999999999986  0.95589  1.0000
  C   C91       1.0  0.9993700000000001  0.5893699999999998  0.74429  1.0000
  C   C92       1.0  0.9647300000000001  0.58138  0.81413  1.0000
  C   C93       1.0  0.06619999999999997  0.59317  0.78152  1.0000
  C   C94       1.0  0.99092  0.5798900000000001  0.90679  1.0000
  C   C95       1.0  0.040839999999999974  0.5798699999999999  0.9234200000000001  1.0000
  C   C96       1.0  0.7442499999999999  0.1669899999999999  0.9993500000000001  1.0000
  C   C97       1.0  0.8140799999999998  0.13976000000000002  0.9647100000000001  1.0000
  C   C98       1.0  0.7815100000000001  0.0592  0.06615  1.0000
  C   C99       1.0  0.90674  0.02236999999999999  0.99091  1.0000
  C   C100      1.0  0.9233400000000002  0.9558699999999999  0.04084  1.0000
  C   C101      1.0  0.16711000000000012  0.5895399999999998  0.9993  1.0000
  C   C102      1.0  0.14008999999999996  0.58149  0.96449  1.0000
  C   C103      1.0  0.059299999999999964  0.59297  0.06604  1.0000
  C   C104      1.0  0.022839999999999937  0.5794799999999999  0.9908500000000001  1.0000
  C   C105      1.0  0.95581  0.58013  0.04062  1.0000
  C   C106      1.0  0.58951  0.16714999999999997  0.7441300000000001  1.0000
  C   C107      1.0  0.5816000000000002  0.14010000000000003  0.81393  1.0000
  C   C108      1.0  0.59287  0.05940999999999994  0.7817400000000001  1.0000
  C   C109      1.0  0.5794  0.022860000000000016  0.90685  1.0000
  C   C110      1.0  0.58019  0.95577  0.9234200000000001  1.0000
  C   C111      1.0  0.99926  0.7441700000000001  0.16716  1.0000
  C   C112      1.0  0.9645  0.81399  0.14007  1.0000
  C   C113      1.0  0.06595000000000002  0.78164  0.059300000000000005  1.0000
  C   C114      1.0  0.9908499999999999  0.90686  0.0229  1.0000
  C   C115      1.0  0.04052999999999996  0.92348  0.95583  1.0000
  C   C116      1.0  0.7440799999999999  0.99936  0.58947  1.0000
  C   C117      1.0  0.8139099999999994  0.96454  0.58147  1.0000
  C   C118      1.0  0.7816900000000001  0.06601000000000003  0.59307  1.0000
  C   C119      1.0  0.9068799999999998  0.9908  0.57945  1.0000
  C   C120      1.0  0.9235200000000001  0.04053  0.58014  1.0000
  C   C121      1.0  0.83296  0.0006899999999999789  0.25575000000000003  1.0000
  C   C122      1.0  0.85993  0.03549  0.18596  1.0000
  C   C123      1.0  0.94085  0.93413  0.21809  1.0000
  C   C124      1.0  0.9775000000000003  0.0094  0.09302  1.0000
  C   C125      1.0  0.04428  0.9591599999999999  0.07637  1.0000
  C   C126      1.0  0.41076  0.25574  0.00061  1.0000
  C   C127      1.0  0.41876000000000013  0.18594999999999995  0.03543  1.0000
  C   C128      1.0  0.40682999999999997  0.21807999999999994  0.9342000000000001  1.0000
  C   C129      1.0  0.42  0.09305  0.00943  1.0000
  C   C130      1.0  0.42019  0.07633999999999999  0.9592100000000001  1.0000
  C   C131      1.0  0.0007900000000000262  0.83287  0.41062  1.0000
  C   C132      1.0  0.03559000000000002  0.8598899999999999  0.41862  1.0000
  C   C133      1.0  0.9342299999999999  0.94075  0.40696  1.0000
  C   C134      1.0  0.009429999999999857  0.9774500000000003  0.42006  1.0000
  C   C135      1.0  0.95919  0.044179999999999976  0.42016000000000003  1.0000
  C   C136      1.0  0.2557  0.41065  0.83293  1.0000
  C   C137      1.0  0.18587000000000004  0.41867000000000004  0.85993  1.0000
  C   C138      1.0  0.2180600000000001  0.40689  0.94084  1.0000
  C   C139      1.0  0.09305  0.42011999999999994  0.97748  1.0000
  C   C140      1.0  0.07645000000000002  0.42019  0.04422  1.0000
  C   C141      1.0  0.8330000000000001  0.25576000000000004  0.41065  1.0000
  C   C142      1.0  0.8602099999999998  0.18593999999999997  0.4186  1.0000
  C   C143      1.0  0.9408300000000004  0.21854  0.40689000000000003  1.0000
  C   C144      1.0  0.9775800000000002  0.09320999999999999  0.42014  1.0000
  C   C145      1.0  0.04411999999999998  0.07655999999999999  0.42016000000000003  1.0000
  C   C146      1.0  0.41059999999999997  0.0006200000000000055  0.83301  1.0000
  C   C147      1.0  0.41853  0.03534  0.86022  1.0000
  C   C148      1.0  0.40692999999999996  0.9338200000000001  0.94077  1.0000
  C   C149      1.0  0.4201  0.009009999999999985  0.97764  1.0000
  C   C150      1.0  0.42013  0.95909  0.04414  1.0000
  C   C151      1.0  0.000600000000000005  0.41061999999999993  0.25574  1.0000
  C   C152      1.0  0.035250000000000024  0.4186099999999999  0.1859  1.0000
  C   C153      1.0  0.93377  0.40686  0.21848000000000004  1.0000
  C   C154      1.0  0.009100000000000046  0.42011999999999994  0.09323000000000001  1.0000
  C   C155      1.0  0.95918  0.42014  0.0766  1.0000
  C   C156      1.0  0.2557400000000001  0.83299  0.00061  1.0000
  C   C157      1.0  0.18592000000000003  0.86024  0.03526  1.0000
  C   C158      1.0  0.21850999999999998  0.9408199999999999  0.9338500000000001  1.0000
  C   C159      1.0  0.09327000000000006  0.9776199999999999  0.00909  1.0000
  C   C160      1.0  0.07666999999999996  0.04413000000000001  0.95917  1.0000
  C   C161      1.0  0.8328899999999999  0.41044  0.0007  1.0000
  C   C162      1.0  0.85992  0.41845  0.03551  1.0000
  C   C163      1.0  0.9407000000000002  0.40702  0.9339699999999999  1.0000
  C   C164      1.0  0.9771700000000001  0.4205  0.00919  1.0000
  C   C165      1.0  0.04422000000000012  0.4197999999999999  0.95947  1.0000
  C   C166      1.0  0.41055  0.83288  0.25588  1.0000
  C   C167      1.0  0.41848  0.85994  0.18608  1.0000
  C   C168      1.0  0.40708000000000005  0.9406899999999999  0.21828999999999998  1.0000
  C   C169      1.0  0.42065  0.97706  0.09313  1.0000
  C   C170      1.0  0.41981000000000007  0.04417999999999999  0.07652000000000002  1.0000
  C   C171      1.0  0.000680000000000007  0.25583999999999996  0.8328800000000001  1.0000
  C   C172      1.0  0.03547  0.18605  0.85996  1.0000
  C   C173      1.0  0.9340299999999999  0.21835999999999997  0.94078  1.0000
  C   C174      1.0  0.00915000000000003  0.09314000000000004  0.97711  1.0000
  C   C175      1.0  0.9594700000000002  0.07652  0.04417000000000001  1.0000
  C   C176      1.0  0.25594  0.0006699999999999974  0.41054  1.0000
  C   C177      1.0  0.1861  0.03546999999999999  0.4185400000000001  1.0000
  C   C178      1.0  0.21832000000000007  0.93401  0.40694  1.0000
  C   C179      1.0  0.09315  0.009170000000000011  0.42056  1.0000
  C   C180      1.0  0.07654000000000014  0.9594199999999998  0.41984  1.0000
  C   C181      1.0  0.9105900000000002  0.50065  0.75592  1.0000
  C   C182      1.0  0.9185900000000001  0.5354299999999999  0.6861  1.0000
  C   C183      1.0  0.90689  0.43401  0.71836  1.0000
  C   C184      1.0  0.9206300000000004  0.5091  0.59316  1.0000
  C   C185      1.0  0.9199099999999999  0.45937  0.5765  1.0000
  C   C186      1.0  0.33289000000000024  0.75591  0.50065  1.0000
  C   C187      1.0  0.35998000000000013  0.6861199999999997  0.53549  1.0000
  C   C188      1.0  0.4407099999999999  0.71837  0.4339100000000001  1.0000
  C   C189      1.0  0.47714  0.59315  0.50917  1.0000
  C   C190      1.0  0.5442200000000001  0.5764799999999999  0.45947000000000005  1.0000
  C   C191      1.0  0.7558200000000002  0.33279  0.9106999999999998  1.0000
  C   C192      1.0  0.6860000000000003  0.35988000000000003  0.9186199999999999  1.0000
  C   C193      1.0  0.7183  0.44066000000000005  0.9070199999999999  1.0000
  C   C194      1.0  0.59317  0.4770799999999999  0.9206000000000001  1.0000
  C   C195      1.0  0.57658  0.54416  0.91983  1.0000
  C   C196      1.0  0.50075  0.91052  0.33288  1.0000
  C   C197      1.0  0.5355300000000002  0.9185099999999998  0.35996  1.0000
  C   C198      1.0  0.43397999999999987  0.9070399999999998  0.4407  1.0000
  C   C199      1.0  0.5091399999999998  0.92058  0.47713  1.0000
  C   C200      1.0  0.45943000000000006  0.9198299999999998  0.54419  1.0000
  C   C201      1.0  0.5007  0.7557599999999999  0.9106100000000001  1.0000
  C   C202      1.0  0.5355000000000001  0.6859599999999999  0.9186700000000001  1.0000
  C   C203      1.0  0.4342  0.7180799999999998  0.9068700000000001  1.0000
  C   C204      1.0  0.5094300000000002  0.5930299999999998  0.92012  1.0000
  C   C205      1.0  0.4592  0.57638  0.92025  1.0000
  C   C206      1.0  0.7557000000000001  0.50074  0.33287  1.0000
  C   C207      1.0  0.6858800000000003  0.5355399999999999  0.35986  1.0000
  C   C208      1.0  0.71808  0.43427999999999994  0.44079  1.0000
  C   C209      1.0  0.59303  0.50938  0.47748  1.0000
  C   C210      1.0  0.57639  0.45915  0.54422  1.0000
  C   C211      1.0  0.3329199999999999  0.9105899999999999  0.75573  1.0000
  C   C212      1.0  0.35988  0.9186399999999999  0.68593  1.0000
  C   C213      1.0  0.44081  0.90694  0.71808  1.0000
  C   C214      1.0  0.4774600000000001  0.9201099999999999  0.59303  1.0000
  C   C215      1.0  0.54423  0.92019  0.5764  1.0000
  C   C216      1.0  0.91058  0.33291  0.50075  1.0000
  C   C217      1.0  0.9186400000000001  0.35986  0.53558  1.0000
  C   C218      1.0  0.9069300000000002  0.44077999999999995  0.43427000000000004  1.0000
  C   C219      1.0  0.9201000000000003  0.47745  0.50941  1.0000
  C   C220      1.0  0.9202200000000001  0.54417  0.45918000000000003  1.0000
  C   C221      1.0  0.7558200000000006  0.91058  0.50057  1.0000
  C   C222      1.0  0.68597  0.91854  0.53528  1.0000
  C   C223      1.0  0.7185199999999999  0.9068099999999998  0.43381000000000003  1.0000
  C   C224      1.0  0.59325  0.92004  0.50911  1.0000
  C   C225      1.0  0.57661  0.9200699999999999  0.45918000000000003  1.0000
  C   C226      1.0  0.50061  0.33302  0.75574  1.0000
  C   C227      1.0  0.5352799999999999  0.3602600000000001  0.68594  1.0000
  C   C228      1.0  0.4337599999999997  0.44082  0.7185200000000002  1.0000
  C   C229      1.0  0.5090700000000005  0.47758999999999985  0.59326  1.0000
  C   C230      1.0  0.45916999999999997  0.5441000000000001  0.57665  1.0000
  C   C231      1.0  0.91065  0.75569  0.33303  1.0000
  C   C232      1.0  0.9185499999999999  0.6858899999999999  0.36029000000000005  1.0000
  C   C233      1.0  0.9069000000000002  0.71849  0.4408500000000001  1.0000
  C   C234      1.0  0.9201200000000002  0.59318  0.47763  1.0000
  C   C235      1.0  0.92015  0.57653  0.54413  1.0000
  C   C236      1.0  0.333  0.50055  0.9106200000000001  1.0000
  C   C237      1.0  0.36019000000000007  0.53528  0.91857  1.0000
  C   C238      1.0  0.44081000000000004  0.43376999999999993  0.90691  1.0000
  C   C239      1.0  0.47766  0.5090899999999999  0.92004  1.0000
  C   C240      1.0  0.5441699999999999  0.45914  0.92006  1.0000
  N   N1        1.0  0.09635  0.56246  0.22406  1.0000
  N   N2        1.0  0.08296000000000006  0.50733  0.33834  1.0000
  N   N3        1.0  0.6172000000000001  0.22407999999999997  0.56248  1.0000
  N   N4        1.0  0.57135  0.33832  0.5073  1.0000
  N   N5        1.0  0.22409  0.61728  0.09615  1.0000
  N   N6        1.0  0.33832  0.57144  0.08295  1.0000
  N   N7        1.0  0.56241  0.09632  0.61721  1.0000
  N   N8        1.0  0.5073700000000002  0.08290000000000002  0.57141  1.0000
  N   N9        1.0  0.5623300000000001  0.22425999999999993  0.09643  1.0000
  N   N10       1.0  0.50704  0.3385099999999999  0.08313  1.0000
  N   N11       1.0  0.22428000000000012  0.5622999999999999  0.61704  1.0000
  N   N12       1.0  0.33851999999999993  0.50703  0.57131  1.0000
  N   N13       1.0  0.6170700000000001  0.09632  0.22422000000000003  1.0000
  N   N14       1.0  0.57133  0.08307  0.33848  1.0000
  N   N15       1.0  0.09641  0.61697  0.56236  1.0000
  N   N16       1.0  0.08306999999999998  0.57138  0.50706  1.0000
  N   N17       1.0  0.22401999999999994  0.09635999999999999  0.5626  1.0000
  N   N18       1.0  0.33824  0.08318999999999999  0.5075  1.0000
  N   N19       1.0  0.56252  0.6170699999999999  0.22404  1.0000
  N   N20       1.0  0.50752  0.57107  0.33821  1.0000
  N   N21       1.0  0.09631999999999998  0.22403  0.61709  1.0000
  N   N22       1.0  0.08305999999999997  0.33827  0.57111  1.0000
  N   N23       1.0  0.61708  0.56257  0.09635000000000002  1.0000
  N   N24       1.0  0.57109  0.50754  0.08313  1.0000
  N   N25       1.0  0.11705  0.062340000000000007  0.72425  1.0000
  N   N26       1.0  0.07130999999999997  0.007089999999999969  0.83849  1.0000
  N   N27       1.0  0.5964300000000001  0.7242599999999999  0.06233000000000001  1.0000
  N   N28       1.0  0.58313  0.83848  0.00707  1.0000
  N   N29       1.0  0.06229999999999996  0.11701000000000002  0.59642  1.0000
  N   N30       1.0  0.00706  0.07135000000000001  0.58307  1.0000
  N   N31       1.0  0.72426  0.59632  0.11705000000000002  1.0000
  N   N32       1.0  0.83852  0.58304  0.07134  1.0000
  N   N33       1.0  0.1171499999999999  0.7239800000000001  0.59632  1.0000
  N   N34       1.0  0.07113999999999998  0.83821  0.58309  1.0000
  N   N35       1.0  0.5962900000000002  0.06257999999999997  0.11712  1.0000
  N   N36       1.0  0.58312  0.007559999999999998  0.07109  1.0000
  N   N37       1.0  0.06250000000000004  0.5964099999999999  0.72405  1.0000
  N   N38       1.0  0.007540000000000093  0.5830999999999997  0.83827  1.0000
  N   N39       1.0  0.7240400000000001  0.11708  0.06249  1.0000
  N   N40       1.0  0.83823  0.07111  0.00751  1.0000
  N   N41       1.0  0.11716000000000004  0.59635  0.062450000000000006  1.0000
  N   N42       1.0  0.07141000000000006  0.5829399999999999  0.007339999999999999  1.0000
  N   N43       1.0  0.59619  0.11727999999999997  0.7241100000000001  1.0000
  N   N44       1.0  0.5829500000000002  0.07145000000000001  0.83836  1.0000
  N   N45       1.0  0.062380000000000005  0.72408  0.11724  1.0000
  N   N46       1.0  0.007299999999999992  0.83833  0.07138000000000001  1.0000
  N   N47       1.0  0.7240400000000001  0.06247999999999993  0.5963500000000002  1.0000
  N   N48       1.0  0.83834  0.007310000000000017  0.58298  1.0000
  N   N49       1.0  0.8829800000000002  0.9376099999999999  0.27577  1.0000
  N   N50       1.0  0.9287300000000003  0.99289  0.1615  1.0000
  N   N51       1.0  0.4036399999999999  0.27574999999999994  0.9376100000000002  1.0000
  N   N52       1.0  0.41684  0.1615099999999999  0.9929400000000002  1.0000
  N   N53       1.0  0.9377  0.88292  0.40366  1.0000
  N   N54       1.0  0.99296  0.92863  0.41689000000000004  1.0000
  N   N55       1.0  0.27572999999999986  0.40362000000000003  0.88299  1.0000
  N   N56       1.0  0.16148999999999997  0.41691999999999996  0.92869  1.0000
  N   N57       1.0  0.8828900000000002  0.2760199999999999  0.40365  1.0000
  N   N58       1.0  0.9289  0.16177  0.41691  1.0000
  N   N59       1.0  0.40364  0.93747  0.88291  1.0000
  N   N60       1.0  0.4169  0.9924599999999998  0.92887  1.0000
  N   N61       1.0  0.93747  0.40359999999999996  0.27597000000000005  1.0000
  N   N62       1.0  0.99245  0.4169  0.16175  1.0000
  N   N63       1.0  0.27597000000000005  0.88292  0.9374900000000002  1.0000
  N   N64       1.0  0.16178000000000006  0.9289  0.9924799999999999  1.0000
  N   N65       1.0  0.88283  0.40367999999999993  0.93754  1.0000
  N   N66       1.0  0.92861  0.41703  0.99268  1.0000
  N   N67       1.0  0.4037900000000001  0.88279  0.27591  1.0000
  N   N68       1.0  0.41707999999999995  0.9286  0.16165  1.0000
  N   N69       1.0  0.9375700000000002  0.27592999999999995  0.88281  1.0000
  N   N70       1.0  0.9927099999999999  0.16167999999999996  0.9286600000000002  1.0000
  N   N71       1.0  0.2759599999999999  0.93754  0.40368  1.0000
  N   N72       1.0  0.16168000000000007  0.9926999999999999  0.41703  1.0000
  N   N73       1.0  0.9036399999999999  0.4375700000000001  0.77598  1.0000
  N   N74       1.0  0.9170500000000003  0.49265999999999993  0.66169  1.0000
  N   N75       1.0  0.3827700000000001  0.7759599999999999  0.43748  1.0000
  N   N76       1.0  0.42867999999999995  0.66171  0.49266000000000004  1.0000
  N   N77       1.0  0.7758900000000001  0.3827399999999999  0.90383  1.0000
  N   N78       1.0  0.6616600000000001  0.4285599999999999  0.9170700000000002  1.0000
  N   N79       1.0  0.4375800000000001  0.9037199999999999  0.38281  1.0000
  N   N80       1.0  0.49267000000000005  0.9170799999999998  0.42861  1.0000
  N   N81       1.0  0.4376599999999999  0.77577  0.9035700000000001  1.0000
  N   N82       1.0  0.4929400000000001  0.6615199999999999  0.9168800000000001  1.0000
  N   N83       1.0  0.77574  0.43771  0.38294  1.0000
  N   N84       1.0  0.6614999999999999  0.49296  0.42866000000000004  1.0000
  N   N85       1.0  0.38295000000000007  0.90361  0.77576  1.0000
  N   N86       1.0  0.4286700000000001  0.9169299999999999  0.66149  1.0000
  N   N87       1.0  0.9035700000000001  0.383  0.43770000000000003  1.0000
  N   N88       1.0  0.9169100000000002  0.42861999999999995  0.49298  1.0000
  N   N89       1.0  0.7760200000000003  0.9035599999999999  0.43744  1.0000
  N   N90       1.0  0.6617900000000002  0.91684  0.49248  1.0000
  N   N91       1.0  0.43745  0.38289999999999996  0.77597  1.0000
  N   N92       1.0  0.49246999999999996  0.42892  0.66179  1.0000
  N   N93       1.0  0.9036899999999999  0.77595  0.3829000000000001  1.0000
  N   N94       1.0  0.91688  0.66172  0.42895  1.0000
  N   N95       1.0  0.38293  0.4374199999999999  0.90362  1.0000
  N   N96       1.0  0.42890000000000017  0.49244999999999967  0.9168800000000001  1.0000
