data_image0
_chemical_formula_structural       Zn16H112C192N64O32
_chemical_formula_sum              "Zn16 H112 C192 N64 O32"
_cell_length_a       9.91707
_cell_length_b       18.99951
_cell_length_c       32.46558999999999
_cell_angle_alpha    89.98582
_cell_angle_beta     89.80499999999999
_cell_angle_gamma    89.91734000000001

_space_group_name_H-M_alt    "P 1"
_space_group_IT_number       1

loop_
  _space_group_symop_operation_xyz
  'x, y, z'

loop_
  _atom_site_type_symbol
  _atom_site_label
  _atom_site_symmetry_multiplicity
  _atom_site_fract_x
  _atom_site_fract_y
  _atom_site_fract_z
  _atom_site_occupancy
  Zn  Zn1       1.0  0.74961  0.90431  0.9448900000000002  1.0000
  Zn  Zn2       1.0  0.97085  0.93659  0.7801700000000003  1.0000
  Zn  Zn3       1.0  0.24957999999999997  0.59574  0.44447  1.0000
  Zn  Zn4       1.0  0.028629999999999992  0.56323  0.28011000000000014  1.0000
  Zn  Zn5       1.0  0.25014  0.09512  0.55542  1.0000
  Zn  Zn6       1.0  0.47153  0.06504  0.7198000000000002  1.0000
  Zn  Zn7       1.0  0.74986  0.40413  0.05537  1.0000
  Zn  Zn8       1.0  0.52874  0.43484  0.21982  1.0000
  Zn  Zn9       1.0  0.25038  0.09569  0.055120000000000016  1.0000
  Zn  Zn10      1.0  0.029139999999999996  0.0634  0.21983000000000005  1.0000
  Zn  Zn11      1.0  0.75041  0.40426  0.55554  1.0000
  Zn  Zn12      1.0  0.9713599999999999  0.43677  0.7198900000000003  1.0000
  Zn  Zn13      1.0  0.74985  0.90488  0.44458  1.0000
  Zn  Zn14      1.0  0.52846  0.9349499999999998  0.2802000000000001  1.0000
  Zn  Zn15      1.0  0.25013  0.59586  0.94463  1.0000
  Zn  Zn16      1.0  0.47124999999999995  0.56516  0.78018  1.0000
  H   H1        1.0  0.9361500000000001  0.82316  0.007140000000000001  1.0000
  H   H2        1.0  0.98335  0.69429  0.02173  1.0000
  H   H3        1.0  0.8496100000000001  0.60431  0.98407  1.0000
  H   H4        1.0  0.67869  0.64256  0.9328100000000003  1.0000
  H   H5        1.0  0.55017  0.68268  0.88819  1.0000
  H   H6        1.0  0.37994  0.73782  0.84222  1.0000
  H   H7        1.0  0.36117  0.86787  0.83905  1.0000
  H   H8        1.0  0.5146  0.9404599999999999  0.88454  1.0000
  H   H9        1.0  0.04077  0.98296  0.9743500000000003  1.0000
  H   H10       1.0  0.36583  0.04755  0.8945  1.0000
  H   H11       1.0  0.24419999999999997  0.00167  0.83193  1.0000
  H   H12       1.0  0.8841299999999999  0.73361  0.7418  1.0000
  H   H13       1.0  0.8567400000000001  0.6049  0.72889  1.0000
  H   H14       1.0  0.28569  0.7036  0.78854  1.0000
  H   H15       1.0  0.06175  0.67667  0.50691  1.0000
  H   H16       1.0  0.014930000000000002  0.80547  0.52181  1.0000
  H   H17       1.0  0.14917  0.8956  0.4841600000000001  1.0000
  H   H18       1.0  0.3205  0.8575199999999998  0.43263  1.0000
  H   H19       1.0  0.451  0.81761  0.38821  1.0000
  H   H20       1.0  0.62237  0.76241  0.34225  1.0000
  H   H21       1.0  0.6403  0.63241  0.33867  1.0000
  H   H22       1.0  0.48468  0.55973  0.38385  1.0000
  H   H23       1.0  0.9575399999999998  0.5174  0.47453  1.0000
  H   H24       1.0  0.63249  0.45205  0.3958800000000001  1.0000
  H   H25       1.0  0.75403  0.49720000000000003  0.3328000000000001  1.0000
  H   H26       1.0  0.11674999999999999  0.76667  0.24179000000000003  1.0000
  H   H27       1.0  0.14389  0.89536  0.22875  1.0000
  H   H28       1.0  0.71391  0.79634  0.2884  1.0000
  H   H29       1.0  0.43826999999999994  0.17643  0.4927600000000001  1.0000
  H   H30       1.0  0.4854  0.30523  0.47828  1.0000
  H   H31       1.0  0.35103  0.39527  0.51611  1.0000
  H   H32       1.0  0.17939  0.35707  0.56744  1.0000
  H   H33       1.0  0.049150000000000006  0.31729  0.61176  1.0000
  H   H34       1.0  0.87826  0.2623  0.65783  1.0000
  H   H35       1.0  0.8602399999999999  0.13229  0.66131  1.0000
  H   H36       1.0  0.015509999999999993  0.05948  0.6160000000000002  1.0000
  H   H37       1.0  0.54191  0.01857  0.52523  1.0000
  H   H38       1.0  0.86859  0.952  0.60329  1.0000
  H   H39       1.0  0.74772  0.9965599999999999  0.6666200000000001  1.0000
  H   H40       1.0  0.38373  0.26724  0.75815  1.0000
  H   H41       1.0  0.35613  0.39588  0.77133  1.0000
  H   H42       1.0  0.78642  0.29684  0.7115500000000002  1.0000
  H   H43       1.0  0.56399  0.3234  0.99287  1.0000
  H   H44       1.0  0.5169199999999999  0.19453  0.9782900000000002  1.0000
  H   H45       1.0  0.6507  0.10438  0.01607  1.0000
  H   H46       1.0  0.8211600000000001  0.14256  0.06742  1.0000
  H   H47       1.0  0.95019  0.18247  0.11187000000000002  1.0000
  H   H48       1.0  0.12037  0.23746000000000003  0.15777  1.0000
  H   H49       1.0  0.13881  0.36748  0.16092000000000006  1.0000
  H   H50       1.0  0.98493  0.44021999999999994  0.11551  1.0000
  H   H51       1.0  0.45935  0.48305999999999993  0.02561  1.0000
  H   H52       1.0  0.13295  0.54844  0.10468000000000002  1.0000
  H   H53       1.0  0.25348  0.50287  0.16756  1.0000
  H   H54       1.0  0.61555  0.23288000000000003  0.25809  1.0000
  H   H55       1.0  0.64324  0.10423  0.27127  1.0000
  H   H56       1.0  0.21389999999999998  0.20303  0.21154  1.0000
  H   H57       1.0  0.06384  0.17684  0.9928600000000001  1.0000
  H   H58       1.0  0.01663999999999999  0.30571  0.9782700000000002  1.0000
  H   H59       1.0  0.15038  0.39568  0.01594  1.0000
  H   H60       1.0  0.3213  0.35743  0.06719  1.0000
  H   H61       1.0  0.44983  0.31732  0.11181  1.0000
  H   H62       1.0  0.62005  0.26217  0.15779  1.0000
  H   H63       1.0  0.63882  0.13212  0.16095  1.0000
  H   H64       1.0  0.4854  0.05954  0.11546  1.0000
  H   H65       1.0  0.95922  0.01704  0.025650000000000006  1.0000
  H   H66       1.0  0.63417  0.95244  0.1055  1.0000
  H   H67       1.0  0.75579  0.99833  0.16807  1.0000
  H   H68       1.0  0.11586  0.26639  0.2582  1.0000
  H   H69       1.0  0.14325  0.3951  0.27111000000000013  1.0000
  H   H70       1.0  0.7143  0.2964  0.21146  1.0000
  H   H71       1.0  0.93824  0.32333  0.49309  1.0000
  H   H72       1.0  0.9850599999999999  0.19453  0.47819  1.0000
  H   H73       1.0  0.85082  0.1044  0.5158500000000003  1.0000
  H   H74       1.0  0.67949  0.14247  0.56737  1.0000
  H   H75       1.0  0.54899  0.18239  0.6118  1.0000
  H   H76       1.0  0.37763  0.23758000000000004  0.65775  1.0000
  H   H77       1.0  0.35969  0.36759  0.6613300000000002  1.0000
  H   H78       1.0  0.51531  0.44027  0.61615  1.0000
  H   H79       1.0  0.04245  0.48259  0.52547  1.0000
  H   H80       1.0  0.3675  0.54795  0.60413  1.0000
  H   H81       1.0  0.24597000000000002  0.5028  0.6672000000000002  1.0000
  H   H82       1.0  0.88324  0.23332999999999998  0.7582100000000003  1.0000
  H   H83       1.0  0.8561  0.10464  0.77125  1.0000
  H   H84       1.0  0.28608  0.20365  0.7116  1.0000
  H   H85       1.0  0.56172  0.82357  0.5072400000000002  1.0000
  H   H86       1.0  0.51459  0.69476  0.52173  1.0000
  H   H87       1.0  0.64896  0.60472  0.48389  1.0000
  H   H88       1.0  0.8206  0.64292  0.4325600000000001  1.0000
  H   H89       1.0  0.9508399999999999  0.6827  0.3882500000000001  1.0000
  H   H90       1.0  0.12173  0.7377  0.34217  1.0000
  H   H91       1.0  0.13975  0.86771  0.33869  1.0000
  H   H92       1.0  0.9844799999999999  0.9405200000000001  0.38401000000000013  1.0000
  H   H93       1.0  0.45808  0.9814200000000001  0.47477000000000014  1.0000
  H   H94       1.0  0.1314  0.048  0.39672  1.0000
  H   H95       1.0  0.25227  0.00343  0.33338  1.0000
  H   H96       1.0  0.61626  0.73275  0.24186  1.0000
  H   H97       1.0  0.64386  0.60411  0.22867  1.0000
  H   H98       1.0  0.21356999999999998  0.70316  0.28846  1.0000
  H   H99       1.0  0.436  0.6766  0.00713  1.0000
  H   H100      1.0  0.48306999999999994  0.80546  0.02171  1.0000
  H   H101      1.0  0.34929  0.8956099999999999  0.98393  1.0000
  H   H102      1.0  0.17883  0.8574300000000001  0.93258  1.0000
  H   H103      1.0  0.0498  0.81753  0.8881300000000002  1.0000
  H   H104      1.0  0.87963  0.76254  0.8422300000000003  1.0000
  H   H105      1.0  0.8611800000000001  0.63252  0.8390900000000002  1.0000
  H   H106      1.0  0.01506  0.55977  0.88449  1.0000
  H   H107      1.0  0.54064  0.51694  0.9744000000000003  1.0000
  H   H108      1.0  0.86704  0.4515600000000001  0.89533  1.0000
  H   H109      1.0  0.74651  0.49711999999999995  0.83244  1.0000
  H   H110      1.0  0.38444  0.7671199999999999  0.74191  1.0000
  H   H111      1.0  0.35675  0.8957600000000001  0.72873  1.0000
  H   H112      1.0  0.78609  0.79697  0.78846  1.0000
  C   C1        1.0  0.88175  0.78125  0.9914900000000001  1.0000
  C   C2        1.0  0.9067399999999999  0.71051  0.9997200000000002  1.0000
  C   C3        1.0  0.8323600000000001  0.66008  0.97828  1.0000
  C   C4        1.0  0.73652  0.68168  0.94958  1.0000
  C   C5        1.0  0.71688  0.75373  0.9426200000000002  1.0000
  C   C6        1.0  0.6176  0.78226  0.91286  1.0000
  C   C7        1.0  0.53836  0.73945  0.88769  1.0000
  C   C8        1.0  0.44458  0.77032  0.86139  1.0000
  C   C9        1.0  0.43365  0.84343  0.85975  1.0000
  C   C10       1.0  0.51784  0.8832399999999999  0.88485  1.0000
  C   C11       1.0  0.014169999999999997  0.9647800000000001  0.90883  1.0000
  C   C12       1.0  0.08403  0.98763  0.94375  1.0000
  C   C13       1.0  0.21115000000000003  0.01725  0.93767  1.0000
  C   C14       1.0  0.28597  0.04796  0.97383  1.0000
  C   C15       1.0  0.26755  0.02256  0.89733  1.0000
  C   C16       1.0  0.20040999999999998  0.99842  0.86266  1.0000
  C   C17       1.0  0.07103  0.9696899999999999  0.86894  1.0000
  C   C18       1.0  0.0929  0.80255  0.7776800000000003  1.0000
  C   C19       1.0  0.08537  0.72572  0.76645  1.0000
  C   C20       1.0  0.9661800000000001  0.69756  0.74847  1.0000
  C   C21       1.0  0.9510800000000001  0.62646  0.74024  1.0000
  C   C22       1.0  0.06278  0.58308  0.74851  1.0000
  C   C23       1.0  0.18332  0.61116  0.76469  1.0000
  C   C24       1.0  0.19466999999999998  0.68239  0.7750700000000001  1.0000
  C   C25       1.0  0.11645999999999998  0.71863  0.4912600000000001  1.0000
  C   C26       1.0  0.09163  0.78933  0.49967  1.0000
  C   C27       1.0  0.16634999999999994  0.83986  0.4782400000000001  1.0000
  C   C28       1.0  0.26238  0.81836  0.44938  1.0000
  C   C29       1.0  0.28203  0.74634  0.44229  1.0000
  C   C30       1.0  0.38195  0.71791  0.41249000000000013  1.0000
  C   C31       1.0  0.46226  0.76079  0.3875  1.0000
  C   C32       1.0  0.5567  0.72991  0.36123  1.0000
  C   C33       1.0  0.56718  0.65679  0.35934  1.0000
  C   C34       1.0  0.48196  0.61695  0.38428  1.0000
  C   C35       1.0  0.98404  0.53555  0.4089200000000001  1.0000
  C   C36       1.0  0.9146499999999999  0.5126  0.4440000000000001  1.0000
  C   C37       1.0  0.78791  0.48256  0.43835  1.0000
  C   C38       1.0  0.71522  0.45200999999999997  0.475  1.0000
  C   C39       1.0  0.73088  0.4769900000000001  0.39828  1.0000
  C   C40       1.0  0.79783  0.50102  0.3634  1.0000
  C   C41       1.0  0.9270900000000001  0.5301  0.36919000000000013  1.0000
  C   C42       1.0  0.90722  0.69753  0.27766  1.0000
  C   C43       1.0  0.9148199999999999  0.77435  0.2663700000000001  1.0000
  C   C44       1.0  0.03435  0.8026  0.24840000000000004  1.0000
  C   C45       1.0  0.04943  0.87371  0.24014000000000005  1.0000
  C   C46       1.0  0.9374400000000002  0.91701  0.24841  1.0000
  C   C47       1.0  0.8166000000000001  0.88885  0.26457  1.0000
  C   C48       1.0  0.8052199999999999  0.81761  0.2749700000000001  1.0000
  C   C49       1.0  0.3835  0.21828999999999998  0.50854  1.0000
  C   C50       1.0  0.40852  0.28903  0.50033  1.0000
  C   C51       1.0  0.33373  0.33951  0.52185  1.0000
  C   C52       1.0  0.23756000000000002  0.31794  0.55061  1.0000
  C   C53       1.0  0.2179  0.24588999999999997  0.55754  1.0000
  C   C54       1.0  0.11808  0.21757000000000004  0.58738  1.0000
  C   C55       1.0  0.03789  0.26051  0.61243  1.0000
  C   C56       1.0  0.94367  0.22972999999999996  0.63876  1.0000
  C   C57       1.0  0.9331700000000002  0.15663  0.6406100000000002  1.0000
  C   C58       1.0  0.018220000000000004  0.11671  0.61561  1.0000
  C   C59       1.0  0.51633  0.03564  0.59089  1.0000
  C   C60       1.0  0.58554  0.013190000000000004  0.55564  1.0000
  C   C61       1.0  0.71275  0.98319  0.56103  1.0000
  C   C62       1.0  0.78493  0.95334  0.52405  1.0000
  C   C63       1.0  0.77011  0.97707  0.60104  1.0000
  C   C64       1.0  0.70342  0.00074  0.63609  1.0000
  C   C65       1.0  0.57394  0.02997  0.63054  1.0000
  C   C66       1.0  0.59309  0.19828  0.72231  1.0000
  C   C67       1.0  0.58564  0.27501  0.73358  1.0000
  C   C68       1.0  0.46597  0.3032  0.75159  1.0000
  C   C69       1.0  0.4507  0.37427  0.75993  1.0000
  C   C70       1.0  0.56251  0.41759  0.7516900000000002  1.0000
  C   C71       1.0  0.68351  0.3894  0.7355  1.0000
  C   C72       1.0  0.69513  0.31818  0.72502  1.0000
  C   C73       1.0  0.61829  0.2814  0.00856  1.0000
  C   C74       1.0  0.59341  0.21068  0.00033  1.0000
  C   C75       1.0  0.66775  0.16015  0.02183  1.0000
  C   C76       1.0  0.76341  0.18169  0.050560000000000015  1.0000
  C   C77       1.0  0.78295  0.25371  0.0575  1.0000
  C   C78       1.0  0.8822  0.28211  0.08725  1.0000
  C   C79       1.0  0.96175  0.23923  0.11236000000000003  1.0000
  C   C80       1.0  0.05555  0.27001  0.13862000000000005  1.0000
  C   C81       1.0  0.06629  0.3431  0.14026  1.0000
  C   C82       1.0  0.98184  0.383  0.11522  1.0000
  C   C83       1.0  0.48472000000000004  0.46496999999999994  0.09119  1.0000
  C   C84       1.0  0.41559  0.48774999999999996  0.05612000000000002  1.0000
  C   C85       1.0  0.28835  0.51757  0.061840000000000006  1.0000
  C   C86       1.0  0.21537  0.54793  0.02522  1.0000
  C   C87       1.0  0.23116  0.52318  0.10205  1.0000
  C   C88       1.0  0.29771  0.49914  0.13691  1.0000
  C   C89       1.0  0.42723  0.47006  0.131  1.0000
  C   C90       1.0  0.40684  0.30173  0.22229  1.0000
  C   C91       1.0  0.41422  0.22496999999999998  0.23353000000000004  1.0000
  C   C92       1.0  0.53358  0.19684  0.2515400000000001  1.0000
  C   C93       1.0  0.5488  0.12578  0.25991  1.0000
  C   C94       1.0  0.43720999999999993  0.08241  0.2517300000000001  1.0000
  C   C95       1.0  0.31655  0.11053  0.23552  1.0000
  C   C96       1.0  0.30498  0.18174  0.22501  1.0000
  C   C97       1.0  0.11825000000000001  0.21875000000000003  0.00851  1.0000
  C   C98       1.0  0.09325  0.28948  0.00028  1.0000
  C   C99       1.0  0.16764  0.33992  0.02173  1.0000
  C   C100      1.0  0.26347  0.31832  0.05042  1.0000
  C   C101      1.0  0.28312  0.24626  0.05739  1.0000
  C   C102      1.0  0.38239  0.21773999999999996  0.08714  1.0000
  C   C103      1.0  0.46163  0.26054  0.11231000000000002  1.0000
  C   C104      1.0  0.55541  0.22966999999999999  0.13861  1.0000
  C   C105      1.0  0.56634  0.15657  0.14026  1.0000
  C   C106      1.0  0.48215  0.11675999999999999  0.11516000000000003  1.0000
  C   C107      1.0  0.98582  0.03522  0.09117  1.0000
  C   C108      1.0  0.9159700000000001  0.01237  0.05625  1.0000
  C   C109      1.0  0.78884  0.98275  0.06234  1.0000
  C   C110      1.0  0.71403  0.95203  0.026170000000000006  1.0000
  C   C111      1.0  0.73244  0.97743  0.10268000000000001  1.0000
  C   C112      1.0  0.79958  0.00158  0.13734000000000005  1.0000
  C   C113      1.0  0.92896  0.0303  0.13106000000000007  1.0000
  C   C114      1.0  0.90709  0.19745  0.22232  1.0000
  C   C115      1.0  0.9146299999999999  0.27427  0.23355  1.0000
  C   C116      1.0  0.03382  0.30243  0.25153  1.0000
  C   C117      1.0  0.04892  0.37354  0.25976  1.0000
  C   C118      1.0  0.93721  0.41692  0.25149  1.0000
  C   C119      1.0  0.81667  0.38884  0.23532  1.0000
  C   C120      1.0  0.80532  0.31761  0.22493000000000005  1.0000
  C   C121      1.0  0.88353  0.28137  0.50874  1.0000
  C   C122      1.0  0.90836  0.21067  0.50033  1.0000
  C   C123      1.0  0.83364  0.16014  0.52176  1.0000
  C   C124      1.0  0.73761  0.18164  0.55062  1.0000
  C   C125      1.0  0.71796  0.25366  0.55771  1.0000
  C   C126      1.0  0.61804  0.28208  0.58751  1.0000
  C   C127      1.0  0.53774  0.2392  0.6125  1.0000
  C   C128      1.0  0.4432900000000001  0.27009  0.63878  1.0000
  C   C129      1.0  0.4328099999999999  0.3432  0.64066  1.0000
  C   C130      1.0  0.51803  0.38304  0.61572  1.0000
  C   C131      1.0  0.015949999999999995  0.46445  0.5910800000000003  1.0000
  C   C132      1.0  0.08534000000000001  0.48739  0.556  1.0000
  C   C133      1.0  0.21208000000000002  0.51743  0.56165  1.0000
  C   C134      1.0  0.28477  0.54799  0.525  1.0000
  C   C135      1.0  0.26911  0.523  0.6017200000000003  1.0000
  C   C136      1.0  0.20216000000000003  0.49898  0.6366  1.0000
  C   C137      1.0  0.0729  0.4699  0.63081  1.0000
  C   C138      1.0  0.09278  0.30247  0.72235  1.0000
  C   C139      1.0  0.08517  0.22564  0.73363  1.0000
  C   C140      1.0  0.96564  0.19739  0.7516000000000003  1.0000
  C   C141      1.0  0.95057  0.12629  0.75986  1.0000
  C   C142      1.0  0.06256  0.08299  0.75159  1.0000
  C   C143      1.0  0.1834  0.11115000000000001  0.73543  1.0000
  C   C144      1.0  0.19477000000000005  0.18239  0.7250300000000002  1.0000
  C   C145      1.0  0.61649  0.78171  0.4914600000000001  1.0000
  C   C146      1.0  0.59147  0.71097  0.49967  1.0000
  C   C147      1.0  0.66626  0.66048  0.47815  1.0000
  C   C148      1.0  0.76244  0.68206  0.44939  1.0000
  C   C149      1.0  0.78209  0.75411  0.44246  1.0000
  C   C150      1.0  0.88192  0.78242  0.41262  1.0000
  C   C151      1.0  0.9620999999999998  0.73949  0.38757000000000014  1.0000
  C   C152      1.0  0.05632  0.77027  0.36124  1.0000
  C   C153      1.0  0.06683  0.84337  0.3593900000000001  1.0000
  C   C154      1.0  0.98177  0.88329  0.38439  1.0000
  C   C155      1.0  0.48367  0.96436  0.4091100000000001  1.0000
  C   C156      1.0  0.41445  0.9868000000000001  0.44436  1.0000
  C   C157      1.0  0.28724  0.01681  0.43897000000000014  1.0000
  C   C158      1.0  0.21505999999999997  0.04666  0.4759500000000001  1.0000
  C   C159      1.0  0.22987999999999997  0.02293  0.39896  1.0000
  C   C160      1.0  0.29657  0.99926  0.36391  1.0000
  C   C161      1.0  0.42605000000000004  0.97002  0.36946  1.0000
  C   C162      1.0  0.4069  0.80171  0.27769  1.0000
  C   C163      1.0  0.41435  0.72499  0.26642  1.0000
  C   C164      1.0  0.53402  0.69679  0.24842000000000003  1.0000
  C   C165      1.0  0.54929  0.62573  0.24007  1.0000
  C   C166      1.0  0.4374799999999999  0.5824  0.24831  1.0000
  C   C167      1.0  0.31648  0.6106  0.2645000000000001  1.0000
  C   C168      1.0  0.30487  0.68181  0.2749800000000001  1.0000
  C   C169      1.0  0.3817  0.7186  0.9914400000000001  1.0000
  C   C170      1.0  0.40657999999999994  0.78932  0.99967  1.0000
  C   C171      1.0  0.33224  0.83984  0.97817  1.0000
  C   C172      1.0  0.23657999999999998  0.81831  0.94944  1.0000
  C   C173      1.0  0.21704  0.74629  0.9425100000000002  1.0000
  C   C174      1.0  0.1178  0.71788  0.91275  1.0000
  C   C175      1.0  0.038239999999999996  0.76076  0.8876400000000002  1.0000
  C   C176      1.0  0.9444499999999999  0.72998  0.86138  1.0000
  C   C177      1.0  0.9336999999999999  0.6569  0.8597400000000002  1.0000
  C   C178      1.0  0.018160000000000003  0.61699  0.88478  1.0000
  C   C179      1.0  0.51527  0.53502  0.90881  1.0000
  C   C180      1.0  0.5844  0.51225  0.94388  1.0000
  C   C181      1.0  0.71164  0.48243  0.93816  1.0000
  C   C182      1.0  0.78462  0.45206  0.97478  1.0000
  C   C183      1.0  0.76884  0.47681999999999997  0.89796  1.0000
  C   C184      1.0  0.70228  0.50086  0.8631000000000002  1.0000
  C   C185      1.0  0.57276  0.52994  0.86901  1.0000
  C   C186      1.0  0.59315  0.69827  0.77771  1.0000
  C   C187      1.0  0.58577  0.77502  0.76647  1.0000
  C   C188      1.0  0.46642  0.80316  0.7484600000000002  1.0000
  C   C189      1.0  0.4511899999999999  0.8742200000000001  0.74009  1.0000
  C   C190      1.0  0.56278  0.9175899999999999  0.74827  1.0000
  C   C191      1.0  0.68344  0.88946  0.7644800000000003  1.0000
  C   C192      1.0  0.69501  0.81825  0.77499  1.0000
  N   N1        1.0  0.60641  0.85363  0.9110700000000003  1.0000
  N   N2        1.0  0.78997  0.80213  0.9635600000000002  1.0000
  N   N3        1.0  0.8885999999999998  0.93522  0.90405  1.0000
  N   N4        1.0  0.8684599999999999  0.9228  0.86386  1.0000
  N   N5        1.0  0.97644  0.9432199999999998  0.84239  1.0000
  N   N6        1.0  0.27311  0.55616  0.76732  1.0000
  N   N7        1.0  0.21315  0.49749  0.75433  1.0000
  N   N8        1.0  0.08594  0.51232  0.74313  1.0000
  N   N9        1.0  0.39291  0.64653  0.41055  1.0000
  N   N10       1.0  0.20855000000000004  0.69787  0.4632100000000001  1.0000
  N   N11       1.0  0.10938  0.56532  0.40383  1.0000
  N   N12       1.0  0.12944  0.57729  0.3635500000000001  1.0000
  N   N13       1.0  0.02161  0.55645  0.34235  1.0000
  N   N14       1.0  0.72662  0.94378  0.26718  1.0000
  N   N15       1.0  0.78673  0.00249  0.25418  1.0000
  N   N16       1.0  0.91422  0.98774  0.24299  1.0000
  N   N17       1.0  0.10712  0.14623  0.58932  1.0000
  N   N18       1.0  0.29128  0.19739  0.53651  1.0000
  N   N19       1.0  0.39094  0.06547  0.59619  1.0000
  N   N20       1.0  0.37158  0.07741  0.63648  1.0000
  N   N21       1.0  0.47977000000000003  0.05644999999999999  0.65753  1.0000
  N   N22       1.0  0.77322  0.44434  0.7329300000000002  1.0000
  N   N23       1.0  0.71278  0.50303  0.74592  1.0000
  N   N24       1.0  0.58537  0.4883700000000001  0.7571200000000002  1.0000
  N   N25       1.0  0.89318  0.35347  0.08906000000000003  1.0000
  N   N26       1.0  0.70987  0.30217  0.03652  1.0000
  N   N27       1.0  0.60998  0.43498  0.09610000000000003  1.0000
  N   N28       1.0  0.62934  0.42228999999999994  0.13628  1.0000
  N   N29       1.0  0.52127  0.44304999999999994  0.15765000000000007  1.0000
  N   N30       1.0  0.22702  0.05555  0.23293000000000005  1.0000
  N   N31       1.0  0.28725  0.9968899999999999  0.24596  1.0000
  N   N32       1.0  0.41435999999999995  0.01162  0.25719  1.0000
  N   N33       1.0  0.39359  0.14637  0.08893  1.0000
  N   N34       1.0  0.21002  0.19787  0.03644  1.0000
  N   N35       1.0  0.11139  0.06477  0.09595000000000002  1.0000
  N   N36       1.0  0.13154  0.07719  0.13615000000000005  1.0000
  N   N37       1.0  0.02355  0.05678  0.15761  1.0000
  N   N38       1.0  0.72688  0.44382999999999995  0.23268000000000005  1.0000
  N   N39       1.0  0.78684  0.50251  0.24567  1.0000
  N   N40       1.0  0.91406  0.48768  0.2568800000000001  1.0000
  N   N41       1.0  0.60708  0.35346  0.58945  1.0000
  N   N42       1.0  0.79145  0.30213  0.5367900000000002  1.0000
  N   N43       1.0  0.8906099999999999  0.43467000000000006  0.59617  1.0000
  N   N44       1.0  0.87055  0.4227  0.6364500000000002  1.0000
  N   N45       1.0  0.9783799999999999  0.44354  0.65765  1.0000
  N   N46       1.0  0.27337  0.05622  0.73283  1.0000
  N   N47       1.0  0.21326  0.9974999999999999  0.74582  1.0000
  N   N48       1.0  0.08577  0.01225  0.75701  1.0000
  N   N49       1.0  0.89287  0.8537700000000001  0.41068  1.0000
  N   N50       1.0  0.70871  0.80261  0.46350000000000013  1.0000
  N   N51       1.0  0.60905  0.9345299999999999  0.40382  1.0000
  N   N52       1.0  0.62841  0.9225799999999998  0.36352  1.0000
  N   N53       1.0  0.52023  0.94354  0.34247  1.0000
  N   N54       1.0  0.22677  0.55566  0.2670700000000001  1.0000
  N   N55       1.0  0.28721  0.49697  0.25408  1.0000
  N   N56       1.0  0.41462  0.51163  0.24288  1.0000
  N   N57       1.0  0.10680999999999999  0.64653  0.9109400000000002  1.0000
  N   N58       1.0  0.29012  0.69782  0.96348  1.0000
  N   N59       1.0  0.39001  0.56502  0.90391  1.0000
  N   N60       1.0  0.37065  0.5777  0.86373  1.0000
  N   N61       1.0  0.47872  0.55695  0.84235  1.0000
  N   N62       1.0  0.77298  0.9444499999999999  0.76707  1.0000
  N   N63       1.0  0.71274  0.0031100000000000004  0.75404  1.0000
  N   N64       1.0  0.58563  0.98837  0.7428100000000002  1.0000
  O   O1        1.0  0.9999300000000001  0.84109  0.76038  1.0000
  O   O2        1.0  0.17981  0.8247  0.8022200000000003  1.0000
  O   O3        1.0  0.38667  0.08579  0.96876  1.0000
  O   O4        1.0  0.23169  0.03203  0.00978  1.0000
  O   O5        1.0  0.00032  0.65894  0.26032  1.0000
  O   O6        1.0  0.81994  0.67538  0.3022600000000001  1.0000
  O   O7        1.0  0.61385  0.41435  0.47095  1.0000
  O   O8        1.0  0.77287  0.46786  0.51035  1.0000
  O   O9        1.0  0.49942999999999993  0.16023  0.73969  1.0000
  O   O10       1.0  0.68008  0.17554  0.69777  1.0000
  O   O11       1.0  0.88549  0.9145399999999999  0.5273  1.0000
  O   O12       1.0  0.72752  0.97068  0.48892  1.0000
  O   O13       1.0  0.50032  0.3397  0.23966000000000007  1.0000
  O   O14       1.0  0.32021  0.3245  0.19782  1.0000
  O   O15       1.0  0.11354999999999998  0.58549  0.02931  1.0000
  O   O16       1.0  0.27286  0.53211  0.98973  1.0000
  O   O17       1.0  7.000000000000028e-05  0.15891  0.23963  1.0000
  O   O18       1.0  0.8201799999999999  0.1753  0.19778  1.0000
  O   O19       1.0  0.61333  0.9142099999999999  0.031240000000000004  1.0000
  O   O20       1.0  0.7683  0.9679699999999999  0.9902300000000002  1.0000
  O   O21       1.0  0.99967  0.34106  0.73969  1.0000
  O   O22       1.0  0.18005  0.32462  0.69774  1.0000
  O   O23       1.0  0.38614  0.58565  0.52905  1.0000
  O   O24       1.0  0.22712  0.53214  0.48965  1.0000
  O   O25       1.0  0.50056  0.83977  0.26031  1.0000
  O   O26       1.0  0.31991  0.82446  0.30223  1.0000
  O   O27       1.0  0.11449999999999999  0.08546  0.4727000000000001  1.0000
  O   O28       1.0  0.27247  0.02932  0.51108  1.0000
  O   O29       1.0  0.49967  0.6603  0.7603400000000001  1.0000
  O   O30       1.0  0.67978  0.6755  0.80218  1.0000
  O   O31       1.0  0.88644  0.4145  0.97069  1.0000
  O   O32       1.0  0.72713  0.46789  0.010270000000000003  1.0000
