data_image0
_chemical_formula_structural       Al24H72C192N24O104
_chemical_formula_sum              "Al24 H72 C192 N24 O104"
_cell_length_a       21.51931
_cell_length_b       21.51931
_cell_length_c       21.51931
_cell_angle_alpha    90.0
_cell_angle_beta     90.0
_cell_angle_gamma    90.0

_space_group_name_H-M_alt    "P 1"
_space_group_IT_number       1

loop_
  _space_group_symop_operation_xyz
  'x, y, z'

loop_
  _atom_site_type_symbol
  _atom_site_label
  _atom_site_symmetry_multiplicity
  _atom_site_fract_x
  _atom_site_fract_y
  _atom_site_fract_z
  _atom_site_occupancy
  Al  Al1       1.0  0.26063  0.20160999999999996  0.31624  1.0000
  Al  Al2       1.0  0.7393699999999999  0.79839  0.31624  1.0000
  Al  Al3       1.0  0.7393699999999999  0.20160999999999996  0.6837499999999999  1.0000
  Al  Al4       1.0  0.26063  0.79839  0.6837499999999999  1.0000
  Al  Al5       1.0  0.31624  0.26063  0.20160999999999996  1.0000
  Al  Al6       1.0  0.31624  0.7393699999999999  0.79839  1.0000
  Al  Al7       1.0  0.6837499999999999  0.7393699999999999  0.20160999999999996  1.0000
  Al  Al8       1.0  0.6837499999999999  0.26063  0.79839  1.0000
  Al  Al9       1.0  0.20160999999999996  0.31624  0.26063  1.0000
  Al  Al10      1.0  0.79839  0.31624  0.7393699999999999  1.0000
  Al  Al11      1.0  0.20160999999999996  0.6837499999999999  0.7393699999999999  1.0000
  Al  Al12      1.0  0.79839  0.6837499999999999  0.26063  1.0000
  Al  Al13      1.0  0.7016  0.76062  0.81624  1.0000
  Al  Al14      1.0  0.29839  0.23936999999999997  0.81624  1.0000
  Al  Al15      1.0  0.7016  0.23936999999999997  0.18376  1.0000
  Al  Al16      1.0  0.29839  0.76062  0.18376  1.0000
  Al  Al17      1.0  0.76062  0.81624  0.7016  1.0000
  Al  Al18      1.0  0.23936999999999997  0.81624  0.29839  1.0000
  Al  Al19      1.0  0.23936999999999997  0.18376  0.7016  1.0000
  Al  Al20      1.0  0.76062  0.18376  0.29839  1.0000
  Al  Al21      1.0  0.81624  0.7016  0.76062  1.0000
  Al  Al22      1.0  0.81624  0.29839  0.23936999999999997  1.0000
  Al  Al23      1.0  0.18376  0.7016  0.23936999999999997  1.0000
  Al  Al24      1.0  0.18376  0.29839  0.76062  1.0000
  H   H1        1.0  0.5078  0.22840999999999997  0.24152999999999997  1.0000
  H   H2        1.0  0.61556  0.18794  0.40618999999999994  1.0000
  H   H3        1.0  0.41681  0.20009999999999997  0.41872  1.0000
  H   H4        1.0  0.4922  0.7715899999999999  0.24152999999999997  1.0000
  H   H5        1.0  0.3844399999999999  0.81206  0.40618999999999994  1.0000
  H   H6        1.0  0.58319  0.79989  0.41872  1.0000
  H   H7        1.0  0.4922  0.22840999999999997  0.75847  1.0000
  H   H8        1.0  0.3844399999999999  0.18794  0.59381  1.0000
  H   H9        1.0  0.58319  0.20009999999999997  0.5812799999999999  1.0000
  H   H10       1.0  0.5078  0.7715899999999999  0.75847  1.0000
  H   H11       1.0  0.61556  0.81206  0.59381  1.0000
  H   H12       1.0  0.41681  0.79989  0.5812799999999999  1.0000
  H   H13       1.0  0.24152999999999997  0.5078  0.22840999999999997  1.0000
  H   H14       1.0  0.40618999999999994  0.61556  0.18794  1.0000
  H   H15       1.0  0.41872  0.41681  0.20009999999999997  1.0000
  H   H16       1.0  0.24152999999999997  0.4922  0.7715899999999999  1.0000
  H   H17       1.0  0.40618999999999994  0.3844399999999999  0.81206  1.0000
  H   H18       1.0  0.41872  0.58319  0.79989  1.0000
  H   H19       1.0  0.75847  0.4922  0.22840999999999997  1.0000
  H   H20       1.0  0.59381  0.3844399999999999  0.18794  1.0000
  H   H21       1.0  0.5812799999999999  0.58319  0.20009999999999997  1.0000
  H   H22       1.0  0.75847  0.5078  0.7715899999999999  1.0000
  H   H23       1.0  0.59381  0.61556  0.81206  1.0000
  H   H24       1.0  0.5812799999999999  0.41681  0.79989  1.0000
  H   H25       1.0  0.22840999999999997  0.24152999999999997  0.5078  1.0000
  H   H26       1.0  0.18794  0.40618999999999994  0.61556  1.0000
  H   H27       1.0  0.20009999999999997  0.41872  0.41681  1.0000
  H   H28       1.0  0.7715899999999999  0.24152999999999997  0.4922  1.0000
  H   H29       1.0  0.81206  0.40618999999999994  0.3844399999999999  1.0000
  H   H30       1.0  0.79989  0.41872  0.58319  1.0000
  H   H31       1.0  0.22840999999999997  0.75847  0.4922  1.0000
  H   H32       1.0  0.18794  0.59381  0.3844399999999999  1.0000
  H   H33       1.0  0.20009999999999997  0.5812799999999999  0.58319  1.0000
  H   H34       1.0  0.7715899999999999  0.75847  0.5078  1.0000
  H   H35       1.0  0.81206  0.59381  0.61556  1.0000
  H   H36       1.0  0.79989  0.5812799999999999  0.41681  1.0000
  H   H37       1.0  0.72841  0.0078  0.74153  1.0000
  H   H38       1.0  0.68793  0.11556  0.90619  1.0000
  H   H39       1.0  0.7001  0.91681  0.9187199999999999  1.0000
  H   H40       1.0  0.27159  0.9922  0.74153  1.0000
  H   H41       1.0  0.31206  0.88444  0.90619  1.0000
  H   H42       1.0  0.29989  0.08319  0.9187199999999999  1.0000
  H   H43       1.0  0.72841  0.9922  0.25847  1.0000
  H   H44       1.0  0.68793  0.88444  0.09381  1.0000
  H   H45       1.0  0.7001  0.08319  0.08128  1.0000
  H   H46       1.0  0.27159  0.0078  0.25847  1.0000
  H   H47       1.0  0.31206  0.11556  0.09381  1.0000
  H   H48       1.0  0.29989  0.91681  0.08128  1.0000
  H   H49       1.0  0.0078  0.74153  0.72841  1.0000
  H   H50       1.0  0.11556  0.90619  0.68793  1.0000
  H   H51       1.0  0.91681  0.9187199999999999  0.7001  1.0000
  H   H52       1.0  0.9922  0.74153  0.27159  1.0000
  H   H53       1.0  0.88444  0.90619  0.31206  1.0000
  H   H54       1.0  0.08319  0.9187199999999999  0.29989  1.0000
  H   H55       1.0  0.9922  0.25847  0.72841  1.0000
  H   H56       1.0  0.88444  0.09381  0.68793  1.0000
  H   H57       1.0  0.08319  0.08128  0.7001  1.0000
  H   H58       1.0  0.0078  0.25847  0.27159  1.0000
  H   H59       1.0  0.11556  0.09381  0.31206  1.0000
  H   H60       1.0  0.91681  0.08128  0.29989  1.0000
  H   H61       1.0  0.74153  0.72841  0.0078  1.0000
  H   H62       1.0  0.90619  0.68793  0.11556  1.0000
  H   H63       1.0  0.9187199999999999  0.7001  0.91681  1.0000
  H   H64       1.0  0.74153  0.27159  0.9922  1.0000
  H   H65       1.0  0.90619  0.31206  0.88444  1.0000
  H   H66       1.0  0.9187199999999999  0.29989  0.08319  1.0000
  H   H67       1.0  0.25847  0.72841  0.9922  1.0000
  H   H68       1.0  0.09381  0.68793  0.88444  1.0000
  H   H69       1.0  0.08128  0.7001  0.08319  1.0000
  H   H70       1.0  0.25847  0.27159  0.0078  1.0000
  H   H71       1.0  0.09381  0.31206  0.11556  1.0000
  H   H72       1.0  0.08128  0.29989  0.91681  1.0000
  C   C1        1.0  0.45598  0.21396  0.32698  1.0000
  C   C2        1.0  0.5103  0.2179  0.29082  1.0000
  C   C3        1.0  0.56799  0.20636999999999997  0.3195799999999999  1.0000
  C   C4        1.0  0.57085  0.19481  0.38373999999999997  1.0000
  C   C5        1.0  0.5169499999999999  0.19419  0.42023  1.0000
  C   C6        1.0  0.45881  0.20179  0.39085  1.0000
  C   C7        1.0  0.39393  0.22273  0.29876  1.0000
  C   C8        1.0  0.6269599999999999  0.20677  0.28484999999999994  1.0000
  C   C9        1.0  0.54402  0.78603  0.32698  1.0000
  C   C10       1.0  0.4897  0.7821  0.29082  1.0000
  C   C11       1.0  0.43201  0.79363  0.3195799999999999  1.0000
  C   C12       1.0  0.42915  0.8051899999999999  0.38373999999999997  1.0000
  C   C13       1.0  0.48305  0.80581  0.42023  1.0000
  C   C14       1.0  0.54119  0.7982099999999999  0.39085  1.0000
  C   C15       1.0  0.60607  0.77726  0.29876  1.0000
  C   C16       1.0  0.37304  0.79323  0.28484999999999994  1.0000
  C   C17       1.0  0.54402  0.21396  0.6730199999999998  1.0000
  C   C18       1.0  0.4897  0.2179  0.70918  1.0000
  C   C19       1.0  0.43201  0.20636999999999997  0.6804199999999999  1.0000
  C   C20       1.0  0.42915  0.19481  0.6162599999999999  1.0000
  C   C21       1.0  0.48305  0.19419  0.5797699999999999  1.0000
  C   C22       1.0  0.54119  0.20179  0.60915  1.0000
  C   C23       1.0  0.60607  0.22273  0.7012399999999999  1.0000
  C   C24       1.0  0.37304  0.20677  0.71515  1.0000
  C   C25       1.0  0.45598  0.78603  0.6730199999999998  1.0000
  C   C26       1.0  0.5103  0.7821  0.70918  1.0000
  C   C27       1.0  0.56799  0.79363  0.6804199999999999  1.0000
  C   C28       1.0  0.57085  0.8051899999999999  0.6162599999999999  1.0000
  C   C29       1.0  0.5169499999999999  0.80581  0.5797699999999999  1.0000
  C   C30       1.0  0.45881  0.7982099999999999  0.60915  1.0000
  C   C31       1.0  0.39393  0.77726  0.7012399999999999  1.0000
  C   C32       1.0  0.6269599999999999  0.79323  0.71515  1.0000
  C   C33       1.0  0.32698  0.45598  0.21396  1.0000
  C   C34       1.0  0.29082  0.5103  0.2179  1.0000
  C   C35       1.0  0.3195799999999999  0.56799  0.20636999999999997  1.0000
  C   C36       1.0  0.38373999999999997  0.57085  0.19481  1.0000
  C   C37       1.0  0.42023  0.5169499999999999  0.19419  1.0000
  C   C38       1.0  0.39085  0.45881  0.20179  1.0000
  C   C39       1.0  0.29876  0.39393  0.22273  1.0000
  C   C40       1.0  0.28484999999999994  0.6269599999999999  0.20677  1.0000
  C   C41       1.0  0.32698  0.54402  0.78603  1.0000
  C   C42       1.0  0.29082  0.4897  0.7821  1.0000
  C   C43       1.0  0.3195799999999999  0.43201  0.79363  1.0000
  C   C44       1.0  0.38373999999999997  0.42915  0.8051899999999999  1.0000
  C   C45       1.0  0.42023  0.48305  0.80581  1.0000
  C   C46       1.0  0.39085  0.54119  0.7982099999999999  1.0000
  C   C47       1.0  0.29876  0.60607  0.77726  1.0000
  C   C48       1.0  0.28484999999999994  0.37304  0.79323  1.0000
  C   C49       1.0  0.6730199999999998  0.54402  0.21396  1.0000
  C   C50       1.0  0.70918  0.4897  0.2179  1.0000
  C   C51       1.0  0.6804199999999999  0.43201  0.20636999999999997  1.0000
  C   C52       1.0  0.6162599999999999  0.42915  0.19481  1.0000
  C   C53       1.0  0.5797699999999999  0.48305  0.19419  1.0000
  C   C54       1.0  0.60915  0.54119  0.20179  1.0000
  C   C55       1.0  0.7012399999999999  0.60607  0.22273  1.0000
  C   C56       1.0  0.71515  0.37304  0.20677  1.0000
  C   C57       1.0  0.6730199999999998  0.45598  0.78603  1.0000
  C   C58       1.0  0.70918  0.5103  0.7821  1.0000
  C   C59       1.0  0.6804199999999999  0.56799  0.79363  1.0000
  C   C60       1.0  0.6162599999999999  0.57085  0.8051899999999999  1.0000
  C   C61       1.0  0.5797699999999999  0.5169499999999999  0.80581  1.0000
  C   C62       1.0  0.60915  0.45881  0.7982099999999999  1.0000
  C   C63       1.0  0.7012399999999999  0.39393  0.77726  1.0000
  C   C64       1.0  0.71515  0.6269599999999999  0.79323  1.0000
  C   C65       1.0  0.21396  0.32698  0.45598  1.0000
  C   C66       1.0  0.2179  0.29082  0.5103  1.0000
  C   C67       1.0  0.20636999999999997  0.3195799999999999  0.56799  1.0000
  C   C68       1.0  0.19481  0.38373999999999997  0.57085  1.0000
  C   C69       1.0  0.19419  0.42023  0.5169499999999999  1.0000
  C   C70       1.0  0.20179  0.39085  0.45881  1.0000
  C   C71       1.0  0.22273  0.29876  0.39393  1.0000
  C   C72       1.0  0.20677  0.28484999999999994  0.6269599999999999  1.0000
  C   C73       1.0  0.78603  0.32698  0.54402  1.0000
  C   C74       1.0  0.7821  0.29082  0.4897  1.0000
  C   C75       1.0  0.79363  0.3195799999999999  0.43201  1.0000
  C   C76       1.0  0.8051899999999999  0.38373999999999997  0.42915  1.0000
  C   C77       1.0  0.80581  0.42023  0.48305  1.0000
  C   C78       1.0  0.7982099999999999  0.39085  0.54119  1.0000
  C   C79       1.0  0.77726  0.29876  0.60607  1.0000
  C   C80       1.0  0.79323  0.28484999999999994  0.37304  1.0000
  C   C81       1.0  0.21396  0.6730199999999998  0.54402  1.0000
  C   C82       1.0  0.2179  0.70918  0.4897  1.0000
  C   C83       1.0  0.20636999999999997  0.6804199999999999  0.43201  1.0000
  C   C84       1.0  0.19481  0.6162599999999999  0.42915  1.0000
  C   C85       1.0  0.19419  0.5797699999999999  0.48305  1.0000
  C   C86       1.0  0.20179  0.60915  0.54119  1.0000
  C   C87       1.0  0.22273  0.7012399999999999  0.60607  1.0000
  C   C88       1.0  0.20677  0.71515  0.37304  1.0000
  C   C89       1.0  0.78603  0.6730199999999998  0.45598  1.0000
  C   C90       1.0  0.7821  0.70918  0.5103  1.0000
  C   C91       1.0  0.79363  0.6804199999999999  0.56799  1.0000
  C   C92       1.0  0.8051899999999999  0.6162599999999999  0.57085  1.0000
  C   C93       1.0  0.80581  0.5797699999999999  0.5169499999999999  1.0000
  C   C94       1.0  0.7982099999999999  0.60915  0.45881  1.0000
  C   C95       1.0  0.77726  0.7012399999999999  0.39393  1.0000
  C   C96       1.0  0.79323  0.71515  0.6269599999999999  1.0000
  C   C97       1.0  0.71396  0.95598  0.82698  1.0000
  C   C98       1.0  0.7179  0.0103  0.79082  1.0000
  C   C99       1.0  0.70637  0.06799  0.81958  1.0000
  C   C100      1.0  0.6948  0.07085  0.8837399999999999  1.0000
  C   C101      1.0  0.69419  0.01695  0.9202299999999999  1.0000
  C   C102      1.0  0.7017899999999999  0.9588099999999999  0.8908499999999998  1.0000
  C   C103      1.0  0.72273  0.8939299999999999  0.7987599999999999  1.0000
  C   C104      1.0  0.70677  0.12696  0.7848499999999999  1.0000
  C   C105      1.0  0.28602999999999995  0.04402  0.82698  1.0000
  C   C106      1.0  0.2821  0.9896999999999999  0.79082  1.0000
  C   C107      1.0  0.29363  0.93201  0.81958  1.0000
  C   C108      1.0  0.30519  0.92915  0.8837399999999999  1.0000
  C   C109      1.0  0.30581  0.9830499999999999  0.9202299999999999  1.0000
  C   C110      1.0  0.2982099999999999  0.04119  0.8908499999999998  1.0000
  C   C111      1.0  0.27726  0.10607  0.7987599999999999  1.0000
  C   C112      1.0  0.29322999999999994  0.8730399999999999  0.7848499999999999  1.0000
  C   C113      1.0  0.71396  0.04402  0.17302  1.0000
  C   C114      1.0  0.7179  0.9896999999999999  0.20918  1.0000
  C   C115      1.0  0.70637  0.93201  0.18042  1.0000
  C   C116      1.0  0.6948  0.92915  0.11625999999999999  1.0000
  C   C117      1.0  0.69419  0.9830499999999999  0.07977  1.0000
  C   C118      1.0  0.7017899999999999  0.04119  0.10915  1.0000
  C   C119      1.0  0.72273  0.10607  0.20123999999999997  1.0000
  C   C120      1.0  0.70677  0.8730399999999999  0.21515  1.0000
  C   C121      1.0  0.28602999999999995  0.95598  0.17302  1.0000
  C   C122      1.0  0.2821  0.0103  0.20918  1.0000
  C   C123      1.0  0.29363  0.06799  0.18042  1.0000
  C   C124      1.0  0.30519  0.07085  0.11625999999999999  1.0000
  C   C125      1.0  0.30581  0.01695  0.07977  1.0000
  C   C126      1.0  0.2982099999999999  0.9588099999999999  0.10915  1.0000
  C   C127      1.0  0.27726  0.8939299999999999  0.20123999999999997  1.0000
  C   C128      1.0  0.29322999999999994  0.12696  0.21515  1.0000
  C   C129      1.0  0.95598  0.82698  0.71396  1.0000
  C   C130      1.0  0.0103  0.79082  0.7179  1.0000
  C   C131      1.0  0.06799  0.81958  0.70637  1.0000
  C   C132      1.0  0.07085  0.8837399999999999  0.6948  1.0000
  C   C133      1.0  0.01695  0.9202299999999999  0.69419  1.0000
  C   C134      1.0  0.9588099999999999  0.8908499999999998  0.7017899999999999  1.0000
  C   C135      1.0  0.8939299999999999  0.7987599999999999  0.72273  1.0000
  C   C136      1.0  0.12696  0.7848499999999999  0.70677  1.0000
  C   C137      1.0  0.04402  0.82698  0.28602999999999995  1.0000
  C   C138      1.0  0.9896999999999999  0.79082  0.2821  1.0000
  C   C139      1.0  0.93201  0.81958  0.29363  1.0000
  C   C140      1.0  0.92915  0.8837399999999999  0.30519  1.0000
  C   C141      1.0  0.9830499999999999  0.9202299999999999  0.30581  1.0000
  C   C142      1.0  0.04119  0.8908499999999998  0.2982099999999999  1.0000
  C   C143      1.0  0.10607  0.7987599999999999  0.27726  1.0000
  C   C144      1.0  0.8730399999999999  0.7848499999999999  0.29322999999999994  1.0000
  C   C145      1.0  0.04402  0.17302  0.71396  1.0000
  C   C146      1.0  0.9896999999999999  0.20918  0.7179  1.0000
  C   C147      1.0  0.93201  0.18042  0.70637  1.0000
  C   C148      1.0  0.92915  0.11625999999999999  0.6948  1.0000
  C   C149      1.0  0.9830499999999999  0.07977  0.69419  1.0000
  C   C150      1.0  0.04119  0.10915  0.7017899999999999  1.0000
  C   C151      1.0  0.10607  0.20123999999999997  0.72273  1.0000
  C   C152      1.0  0.8730399999999999  0.21515  0.70677  1.0000
  C   C153      1.0  0.95598  0.17302  0.28602999999999995  1.0000
  C   C154      1.0  0.0103  0.20918  0.2821  1.0000
  C   C155      1.0  0.06799  0.18042  0.29363  1.0000
  C   C156      1.0  0.07085  0.11625999999999999  0.30519  1.0000
  C   C157      1.0  0.01695  0.07977  0.30581  1.0000
  C   C158      1.0  0.9588099999999999  0.10915  0.2982099999999999  1.0000
  C   C159      1.0  0.8939299999999999  0.20123999999999997  0.27726  1.0000
  C   C160      1.0  0.12696  0.21515  0.29322999999999994  1.0000
  C   C161      1.0  0.82698  0.71396  0.95598  1.0000
  C   C162      1.0  0.79082  0.7179  0.0103  1.0000
  C   C163      1.0  0.81958  0.70637  0.06799  1.0000
  C   C164      1.0  0.8837399999999999  0.6948  0.07085  1.0000
  C   C165      1.0  0.9202299999999999  0.69419  0.01695  1.0000
  C   C166      1.0  0.8908499999999998  0.7017899999999999  0.9588099999999999  1.0000
  C   C167      1.0  0.7987599999999999  0.72273  0.8939299999999999  1.0000
  C   C168      1.0  0.7848499999999999  0.70677  0.12696  1.0000
  C   C169      1.0  0.82698  0.28602999999999995  0.04402  1.0000
  C   C170      1.0  0.79082  0.2821  0.9896999999999999  1.0000
  C   C171      1.0  0.81958  0.29363  0.93201  1.0000
  C   C172      1.0  0.8837399999999999  0.30519  0.92915  1.0000
  C   C173      1.0  0.9202299999999999  0.30581  0.9830499999999999  1.0000
  C   C174      1.0  0.8908499999999998  0.2982099999999999  0.04119  1.0000
  C   C175      1.0  0.7987599999999999  0.27726  0.10607  1.0000
  C   C176      1.0  0.7848499999999999  0.29322999999999994  0.8730399999999999  1.0000
  C   C177      1.0  0.17302  0.71396  0.04402  1.0000
  C   C178      1.0  0.20918  0.7179  0.9896999999999999  1.0000
  C   C179      1.0  0.18042  0.70637  0.93201  1.0000
  C   C180      1.0  0.11625999999999999  0.6948  0.92915  1.0000
  C   C181      1.0  0.07977  0.69419  0.9830499999999999  1.0000
  C   C182      1.0  0.10915  0.7017899999999999  0.04119  1.0000
  C   C183      1.0  0.20123999999999997  0.72273  0.10607  1.0000
  C   C184      1.0  0.21515  0.70677  0.8730399999999999  1.0000
  C   C185      1.0  0.17302  0.28602999999999995  0.95598  1.0000
  C   C186      1.0  0.20918  0.2821  0.0103  1.0000
  C   C187      1.0  0.18042  0.29363  0.06799  1.0000
  C   C188      1.0  0.11625999999999999  0.30519  0.07085  1.0000
  C   C189      1.0  0.07977  0.30581  0.01695  1.0000
  C   C190      1.0  0.10915  0.2982099999999999  0.9588099999999999  1.0000
  C   C191      1.0  0.20123999999999997  0.27726  0.8939299999999999  1.0000
  C   C192      1.0  0.21515  0.29322999999999994  0.12696  1.0000
  N   N1        1.0  0.52586  0.18949  0.48445  1.0000
  N   N2        1.0  0.47413999999999995  0.81051  0.48445  1.0000
  N   N3        1.0  0.47413999999999995  0.18949  0.51555  1.0000
  N   N4        1.0  0.52586  0.81051  0.51555  1.0000
  N   N5        1.0  0.48445  0.52586  0.18949  1.0000
  N   N6        1.0  0.48445  0.47413999999999995  0.81051  1.0000
  N   N7        1.0  0.51555  0.47413999999999995  0.18949  1.0000
  N   N8        1.0  0.51555  0.52586  0.81051  1.0000
  N   N9        1.0  0.18949  0.48445  0.52586  1.0000
  N   N10       1.0  0.81051  0.48445  0.47413999999999995  1.0000
  N   N11       1.0  0.18949  0.51555  0.47413999999999995  1.0000
  N   N12       1.0  0.81051  0.51555  0.52586  1.0000
  N   N13       1.0  0.68949  0.02586  0.98445  1.0000
  N   N14       1.0  0.31051  0.9741399999999998  0.98445  1.0000
  N   N15       1.0  0.68949  0.9741399999999998  0.01555  1.0000
  N   N16       1.0  0.31051  0.02586  0.01555  1.0000
  N   N17       1.0  0.02586  0.98445  0.68949  1.0000
  N   N18       1.0  0.9741399999999998  0.98445  0.31051  1.0000
  N   N19       1.0  0.9741399999999998  0.01555  0.68949  1.0000
  N   N20       1.0  0.02586  0.01555  0.31051  1.0000
  N   N21       1.0  0.98445  0.68949  0.02586  1.0000
  N   N22       1.0  0.98445  0.31051  0.9741399999999998  1.0000
  N   N23       1.0  0.01555  0.68949  0.9741399999999998  1.0000
  N   N24       1.0  0.01555  0.31051  0.02586  1.0000
  O   O1        1.0  0.347  0.20321  0.3302  1.0000
  O   O2        1.0  0.3904299999999999  0.24968999999999997  0.24509999999999998  1.0000
  O   O3        1.0  0.67477  0.18431999999999998  0.31295  1.0000
  O   O4        1.0  0.62821  0.22954999999999998  0.22902999999999998  1.0000
  O   O5        1.0  0.653  0.79679  0.3302  1.0000
  O   O6        1.0  0.60957  0.7503  0.24509999999999998  1.0000
  O   O7        1.0  0.32523  0.8156799999999997  0.31295  1.0000
  O   O8        1.0  0.37179  0.77045  0.22902999999999998  1.0000
  O   O9        1.0  0.653  0.20321  0.6698  1.0000
  O   O10       1.0  0.60957  0.24968999999999997  0.7548999999999999  1.0000
  O   O11       1.0  0.32523  0.18431999999999998  0.68704  1.0000
  O   O12       1.0  0.37179  0.22954999999999998  0.7709699999999999  1.0000
  O   O13       1.0  0.347  0.79679  0.6698  1.0000
  O   O14       1.0  0.3904299999999999  0.7503  0.7548999999999999  1.0000
  O   O15       1.0  0.67477  0.8156799999999997  0.68704  1.0000
  O   O16       1.0  0.62821  0.77045  0.7709699999999999  1.0000
  O   O17       1.0  0.3302  0.347  0.20321  1.0000
  O   O18       1.0  0.24509999999999998  0.3904299999999999  0.24968999999999997  1.0000
  O   O19       1.0  0.31295  0.67477  0.18431999999999998  1.0000
  O   O20       1.0  0.22902999999999998  0.62821  0.22954999999999998  1.0000
  O   O21       1.0  0.3302  0.653  0.79679  1.0000
  O   O22       1.0  0.24509999999999998  0.60957  0.7503  1.0000
  O   O23       1.0  0.31295  0.32523  0.8156799999999997  1.0000
  O   O24       1.0  0.22902999999999998  0.37179  0.77045  1.0000
  O   O25       1.0  0.6698  0.653  0.20321  1.0000
  O   O26       1.0  0.7548999999999999  0.60957  0.24968999999999997  1.0000
  O   O27       1.0  0.68704  0.32523  0.18431999999999998  1.0000
  O   O28       1.0  0.7709699999999999  0.37179  0.22954999999999998  1.0000
  O   O29       1.0  0.6698  0.347  0.79679  1.0000
  O   O30       1.0  0.7548999999999999  0.3904299999999999  0.7503  1.0000
  O   O31       1.0  0.68704  0.67477  0.8156799999999997  1.0000
  O   O32       1.0  0.7709699999999999  0.62821  0.77045  1.0000
  O   O33       1.0  0.20321  0.3302  0.347  1.0000
  O   O34       1.0  0.24968999999999997  0.24509999999999998  0.3904299999999999  1.0000
  O   O35       1.0  0.18431999999999998  0.31295  0.67477  1.0000
  O   O36       1.0  0.22954999999999998  0.22902999999999998  0.62821  1.0000
  O   O37       1.0  0.79679  0.3302  0.653  1.0000
  O   O38       1.0  0.7503  0.24509999999999998  0.60957  1.0000
  O   O39       1.0  0.8156799999999997  0.31295  0.32523  1.0000
  O   O40       1.0  0.77045  0.22902999999999998  0.37179  1.0000
  O   O41       1.0  0.20321  0.6698  0.653  1.0000
  O   O42       1.0  0.24968999999999997  0.7548999999999999  0.60957  1.0000
  O   O43       1.0  0.18431999999999998  0.68704  0.32523  1.0000
  O   O44       1.0  0.22954999999999998  0.7709699999999999  0.37179  1.0000
  O   O45       1.0  0.79679  0.6698  0.347  1.0000
  O   O46       1.0  0.7503  0.7548999999999999  0.3904299999999999  1.0000
  O   O47       1.0  0.8156799999999997  0.68704  0.67477  1.0000
  O   O48       1.0  0.77045  0.7709699999999999  0.62821  1.0000
  O   O49       1.0  0.7031999999999999  0.847  0.8301999999999999  1.0000
  O   O50       1.0  0.7496899999999999  0.89043  0.7450999999999998  1.0000
  O   O51       1.0  0.6843099999999999  0.17477  0.8129499999999998  1.0000
  O   O52       1.0  0.72955  0.12821  0.7290299999999998  1.0000
  O   O53       1.0  0.29679  0.153  0.8301999999999999  1.0000
  O   O54       1.0  0.25031  0.10957  0.7450999999999998  1.0000
  O   O55       1.0  0.31568  0.82523  0.8129499999999998  1.0000
  O   O56       1.0  0.27044999999999997  0.87179  0.7290299999999998  1.0000
  O   O57       1.0  0.7031999999999999  0.153  0.1698  1.0000
  O   O58       1.0  0.7496899999999999  0.10957  0.2549  1.0000
  O   O59       1.0  0.6843099999999999  0.82523  0.18704999999999997  1.0000
  O   O60       1.0  0.72955  0.87179  0.27097  1.0000
  O   O61       1.0  0.29679  0.847  0.1698  1.0000
  O   O62       1.0  0.25031  0.89043  0.2549  1.0000
  O   O63       1.0  0.31568  0.17477  0.18704999999999997  1.0000
  O   O64       1.0  0.27044999999999997  0.12821  0.27097  1.0000
  O   O65       1.0  0.847  0.8301999999999999  0.7031999999999999  1.0000
  O   O66       1.0  0.89043  0.7450999999999998  0.7496899999999999  1.0000
  O   O67       1.0  0.17477  0.8129499999999998  0.6843099999999999  1.0000
  O   O68       1.0  0.12821  0.7290299999999998  0.72955  1.0000
  O   O69       1.0  0.153  0.8301999999999999  0.29679  1.0000
  O   O70       1.0  0.10957  0.7450999999999998  0.25031  1.0000
  O   O71       1.0  0.82523  0.8129499999999998  0.31568  1.0000
  O   O72       1.0  0.87179  0.7290299999999998  0.27044999999999997  1.0000
  O   O73       1.0  0.153  0.1698  0.7031999999999999  1.0000
  O   O74       1.0  0.10957  0.2549  0.7496899999999999  1.0000
  O   O75       1.0  0.82523  0.18704999999999997  0.6843099999999999  1.0000
  O   O76       1.0  0.87179  0.27097  0.72955  1.0000
  O   O77       1.0  0.847  0.1698  0.29679  1.0000
  O   O78       1.0  0.89043  0.2549  0.25031  1.0000
  O   O79       1.0  0.17477  0.18704999999999997  0.31568  1.0000
  O   O80       1.0  0.12821  0.27097  0.27044999999999997  1.0000
  O   O81       1.0  0.8301999999999999  0.7031999999999999  0.847  1.0000
  O   O82       1.0  0.7450999999999998  0.7496899999999999  0.89043  1.0000
  O   O83       1.0  0.8129499999999998  0.6843099999999999  0.17477  1.0000
  O   O84       1.0  0.7290299999999998  0.72955  0.12821  1.0000
  O   O85       1.0  0.8301999999999999  0.29679  0.153  1.0000
  O   O86       1.0  0.7450999999999998  0.25031  0.10957  1.0000
  O   O87       1.0  0.8129499999999998  0.31568  0.82523  1.0000
  O   O88       1.0  0.7290299999999998  0.27044999999999997  0.87179  1.0000
  O   O89       1.0  0.1698  0.7031999999999999  0.153  1.0000
  O   O90       1.0  0.2549  0.7496899999999999  0.10957  1.0000
  O   O91       1.0  0.18704999999999997  0.6843099999999999  0.82523  1.0000
  O   O92       1.0  0.27097  0.72955  0.87179  1.0000
  O   O93       1.0  0.1698  0.29679  0.847  1.0000
  O   O94       1.0  0.2549  0.25031  0.89043  1.0000
  O   O95       1.0  0.18704999999999997  0.31568  0.17477  1.0000
  O   O96       1.0  0.27097  0.27044999999999997  0.12821  1.0000
  O   O97       1.0  0.25945  0.25945  0.25945  1.0000
  O   O98       1.0  0.74055  0.74055  0.25945  1.0000
  O   O99       1.0  0.74055  0.25945  0.74055  1.0000
  O   O100      1.0  0.25945  0.74055  0.74055  1.0000
  O   O101      1.0  0.7594499999999998  0.7594499999999998  0.7594499999999998  1.0000
  O   O102      1.0  0.24055  0.24055  0.7594499999999998  1.0000
  O   O103      1.0  0.7594499999999998  0.24055  0.24055  1.0000
  O   O104      1.0  0.24055  0.7594499999999998  0.24055  1.0000
