data_image0
_chemical_formula_structural       Cu6P12H162C210N6Cl6
_chemical_formula_sum              "Cu6 P12 H162 C210 N6 Cl6"
_cell_length_a       18.60696
_cell_length_b       18.60708
_cell_length_c       21.1224
_cell_angle_alpha    89.98908
_cell_angle_beta     90.01085
_cell_angle_gamma    120.07381

_space_group_name_H-M_alt    "P 1"
_space_group_IT_number       1

loop_
  _space_group_symop_operation_xyz
  'x, y, z'

loop_
  _atom_site_type_symbol
  _atom_site_label
  _atom_site_symmetry_multiplicity
  _atom_site_fract_x
  _atom_site_fract_y
  _atom_site_fract_z
  _atom_site_occupancy
  Cu  Cu1       1.0  0.49445  0.15958  0.34118  1.0000
  Cu  Cu2       1.0  0.84024  0.33472  0.008  1.0000
  Cu  Cu3       1.0  0.66526  0.50559  0.67462  1.0000
  Cu  Cu4       1.0  0.15958000000000006  0.49445  0.65882  1.0000
  Cu  Cu5       1.0  0.33471999999999985  0.8402299999999998  0.992  1.0000
  Cu  Cu6       1.0  0.50559  0.66525  0.32538  1.0000
  P   P1        1.0  0.61795  0.26348  0.30766  1.0000
  P   P2        1.0  0.85688  0.33022  0.11286000000000002  1.0000
  P   P3        1.0  0.7366100000000001  0.35454  0.97439  1.0000
  P   P4        1.0  0.6699100000000001  0.5266  0.7794700000000001  1.0000
  P   P5        1.0  0.6455500000000001  0.3821699999999999  0.641  1.0000
  P   P6        1.0  0.47338  0.14316999999999994  0.44611  1.0000
  P   P7        1.0  0.26348  0.61794  0.69234  1.0000
  P   P8        1.0  0.33022  0.85687  0.88714  1.0000
  P   P9        1.0  0.3545399999999999  0.7365999999999998  0.025600000000000005  1.0000
  P   P10       1.0  0.52661  0.66991  0.22052  1.0000
  P   P11       1.0  0.38216999999999984  0.6455499999999997  0.359  1.0000
  P   P12       1.0  0.14317000000000002  0.4733699999999999  0.55388  1.0000
  H   H1        1.0  0.34173  0.9781999999999997  0.06447  1.0000
  H   H2        1.0  0.44607  0.10503999999999997  0.12348000000000002  1.0000
  H   H3        1.0  0.6340800000000001  0.04920999999999998  0.06081000000000001  1.0000
  H   H4        1.0  0.5226000000000001  0.92837  0.00251  1.0000
  H   H5        1.0  0.52693  0.14557  0.20985  1.0000
  H   H6        1.0  0.7784100000000003  0.34425  0.2345  1.0000
  H   H7        1.0  0.7124800000000001  0.19002  0.06846  1.0000
  H   H8        1.0  0.50003  0.31317  0.27488  1.0000
  H   H9        1.0  0.51221  0.44965  0.24837000000000004  1.0000
  H   H10       1.0  0.64811  0.57968  0.2576  1.0000
  H   H11       1.0  0.7736800000000003  0.57373  0.2901500000000001  1.0000
  H   H12       1.0  0.7630899999999999  0.43848  0.31424  1.0000
  H   H13       1.0  0.6865399999999999  0.36004  0.42339  1.0000
  H   H14       1.0  0.79181  0.37064  0.49975  1.0000
  H   H15       1.0  0.87101  0.2980699999999999  0.4797  1.0000
  H   H16       1.0  0.84236  0.21213999999999994  0.38251000000000007  1.0000
  H   H17       1.0  0.73596  0.19995  0.30581  1.0000
  H   H18       1.0  0.85717  0.24972  0.23536  1.0000
  H   H19       1.0  0.9379300000000002  0.18455  0.27186  1.0000
  H   H20       1.0  0.03644  0.17292  0.19851  1.0000
  H   H21       1.0  0.04851000000000002  0.22072  0.08697  1.0000
  H   H22       1.0  0.9646500000000001  0.2830999999999999  0.04973  1.0000
  H   H23       1.0  0.98619  0.39966  0.21756  1.0000
  H   H24       1.0  0.05021000000000002  0.53358  0.27418  1.0000
  H   H25       1.0  0.00781000000000001  0.63802  0.24927000000000002  1.0000
  H   H26       1.0  0.90237  0.6076  0.16469  1.0000
  H   H27       1.0  0.8397499999999999  0.47446  0.10703000000000001  1.0000
  H   H28       1.0  0.021449999999999997  0.36344  0.73118  1.0000
  H   H29       1.0  0.8948000000000002  0.34092  0.7901300000000001  1.0000
  H   H30       1.0  0.95108  0.58504  0.72735  1.0000
  H   H31       1.0  0.07171  0.59442  0.66905  1.0000
  H   H32       1.0  0.85436  0.3815999999999999  0.8766000000000002  1.0000
  H   H33       1.0  0.65588  0.4342199999999999  0.90116  1.0000
  H   H34       1.0  0.8100200000000001  0.52254  0.73504  1.0000
  H   H35       1.0  0.6867  0.18696  0.9416300000000001  1.0000
  H   H36       1.0  0.5501  0.06244999999999999  0.91503  1.0000
  H   H37       1.0  0.42023  0.06823  0.9241500000000001  1.0000
  H   H38       1.0  0.4263000000000001  0.19974  0.95679  1.0000
  H   H39       1.0  0.56165  0.32462  0.9809800000000001  1.0000
  H   H40       1.0  0.6399699999999999  0.3262799999999999  0.09014  1.0000
  H   H41       1.0  0.6294  0.4210099999999999  0.16642  1.0000
  H   H42       1.0  0.70194  0.57294  0.14618  1.0000
  H   H43       1.0  0.78809  0.63035  0.04906  1.0000
  H   H44       1.0  0.80021  0.53603  0.97247  1.0000
  H   H45       1.0  0.7504600000000001  0.60738  0.90191  1.0000
  H   H46       1.0  0.8156700000000001  0.75348  0.9384600000000001  1.0000
  H   H47       1.0  0.8270500000000002  0.86365  0.86521  1.0000
  H   H48       1.0  0.77933  0.82797  0.75367  1.0000
  H   H49       1.0  0.71689  0.68155  0.7163700000000001  1.0000
  H   H50       1.0  0.60063  0.58665  0.88415  1.0000
  H   H51       1.0  0.46668000000000004  0.51664  0.9407300000000001  1.0000
  H   H52       1.0  0.36199000000000003  0.36967  0.91569  1.0000
  H   H53       1.0  0.39242  0.29448  0.8313300000000001  1.0000
  H   H54       1.0  0.52564  0.36513  0.7737400000000001  1.0000
  H   H55       1.0  0.63664  0.65833  0.39791000000000004  1.0000
  H   H56       1.0  0.6591400000000002  0.55414  0.45679  1.0000
  H   H57       1.0  0.41487  0.3658  0.39396  1.0000
  H   H58       1.0  0.4055599999999999  0.4771799999999999  0.33578  1.0000
  H   H59       1.0  0.61851  0.47294  0.5432200000000001  1.0000
  H   H60       1.0  0.56577  0.22165  0.56774  1.0000
  H   H61       1.0  0.4775000000000001  0.2874699999999999  0.40163  1.0000
  H   H62       1.0  0.8132300000000002  0.50005  0.60821  1.0000
  H   H63       1.0  0.9375800000000001  0.4879699999999999  0.58165  1.0000
  H   H64       1.0  0.9315100000000001  0.35214  0.59089  1.0000
  H   H65       1.0  0.7998  0.22647999999999993  0.62354  1.0000
  H   H66       1.0  0.67517  0.23701  0.6477  1.0000
  H   H67       1.0  0.67369  0.3137299999999999  0.75673  1.0000
  H   H68       1.0  0.57884  0.2083  0.83306  1.0000
  H   H69       1.0  0.42688  0.12892  0.81288  1.0000
  H   H70       1.0  0.36958  0.15757  0.7157200000000001  1.0000
  H   H71       1.0  0.46406000000000003  0.26413  0.63906  1.0000
  H   H72       1.0  0.39271000000000006  0.14297  0.56858  1.0000
  H   H73       1.0  0.24659000000000003  0.06206  0.60514  1.0000
  H   H74       1.0  0.13622999999999985  0.9633599999999998  0.53183  1.0000
  H   H75       1.0  0.17187999999999995  0.95111  0.42034  1.0000
  H   H76       1.0  0.31835  0.03513  0.38304000000000005  1.0000
  H   H77       1.0  0.41337000000000007  0.01384  0.55096  1.0000
  H   H78       1.0  0.48324  0.94995  0.60754  1.0000
  H   H79       1.0  0.6301200000000001  0.99229  0.58243  1.0000
  H   H80       1.0  0.70535  0.09792  0.49791  1.0000
  H   H81       1.0  0.6348500000000001  0.16045  0.44034000000000006  1.0000
  H   H82       1.0  0.9782000000000001  0.34173  0.93553  1.0000
  H   H83       1.0  0.10504000000000004  0.44606  0.8765100000000001  1.0000
  H   H84       1.0  0.04921000000000004  0.63407  0.93919  1.0000
  H   H85       1.0  0.92837  0.5226  0.99749  1.0000
  H   H86       1.0  0.14556999999999995  0.52692  0.79015  1.0000
  H   H87       1.0  0.34425000000000006  0.7784  0.7655  1.0000
  H   H88       1.0  0.19002000000000005  0.71248  0.9315399999999999  1.0000
  H   H89       1.0  0.31317  0.50002  0.72512  1.0000
  H   H90       1.0  0.44966  0.51221  0.75163  1.0000
  H   H91       1.0  0.57968  0.64811  0.7424  1.0000
  H   H92       1.0  0.57374  0.77367  0.70985  1.0000
  H   H93       1.0  0.43848  0.7630799999999998  0.68576  1.0000
  H   H94       1.0  0.3600400000000001  0.68653  0.57661  1.0000
  H   H95       1.0  0.37064  0.7918  0.50025  1.0000
  H   H96       1.0  0.29807  0.871  0.5203  1.0000
  H   H97       1.0  0.21214000000000002  0.84235  0.61749  1.0000
  H   H98       1.0  0.19995  0.73595  0.69419  1.0000
  H   H99       1.0  0.24972  0.85716  0.76464  1.0000
  H   H100      1.0  0.1845499999999999  0.93792  0.72814  1.0000
  H   H101      1.0  0.17292  0.03644  0.8014900000000001  1.0000
  H   H102      1.0  0.22073  0.048509999999999984  0.91303  1.0000
  H   H103      1.0  0.2831  0.96464  0.95027  1.0000
  H   H104      1.0  0.39966000000000007  0.9861799999999997  0.78244  1.0000
  H   H105      1.0  0.53359  0.05021  0.72582  1.0000
  H   H106      1.0  0.63803  0.00781  0.75073  1.0000
  H   H107      1.0  0.6076  0.90236  0.8353100000000001  1.0000
  H   H108      1.0  0.4744600000000001  0.83974  0.89297  1.0000
  H   H109      1.0  0.36345000000000005  0.021449999999999993  0.26882  1.0000
  H   H110      1.0  0.34093  0.89479  0.20987000000000003  1.0000
  H   H111      1.0  0.5850500000000001  0.95107  0.27264  1.0000
  H   H112      1.0  0.5944300000000001  0.07170999999999998  0.33094  1.0000
  H   H113      1.0  0.3816  0.85435  0.1234  1.0000
  H   H114      1.0  0.43422  0.65588  0.09883  1.0000
  H   H115      1.0  0.52254  0.81002  0.26496  1.0000
  H   H116      1.0  0.18695999999999996  0.6867  0.05837  1.0000
  H   H117      1.0  0.06245000000000001  0.55009  0.08497  1.0000
  H   H118      1.0  0.06822999999999999  0.42021999999999987  0.07585  1.0000
  H   H119      1.0  0.19975  0.4263  0.04321  1.0000
  H   H120      1.0  0.32462000000000013  0.56164  0.01902  1.0000
  H   H121      1.0  0.32628  0.63996  0.90986  1.0000
  H   H122      1.0  0.42101  0.62939  0.83358  1.0000
  H   H123      1.0  0.57294  0.70193  0.8538200000000001  1.0000
  H   H124      1.0  0.63036  0.78809  0.95094  1.0000
  H   H125      1.0  0.53604  0.8002  0.027530000000000002  1.0000
  H   H126      1.0  0.60738  0.75046  0.09809  1.0000
  H   H127      1.0  0.75348  0.8156599999999998  0.06154  1.0000
  H   H128      1.0  0.8636500000000001  0.82704  0.13479  1.0000
  H   H129      1.0  0.8279800000000002  0.77932  0.24633  1.0000
  H   H130      1.0  0.6815500000000001  0.71689  0.28363  1.0000
  H   H131      1.0  0.5866500000000001  0.60062  0.11585000000000001  1.0000
  H   H132      1.0  0.51664  0.46668  0.05927  1.0000
  H   H133      1.0  0.36967000000000005  0.36199  0.08431000000000001  1.0000
  H   H134      1.0  0.29448  0.39241  0.16867  1.0000
  H   H135      1.0  0.36513  0.52564  0.22626  1.0000
  H   H136      1.0  0.6583400000000001  0.63663  0.60209  1.0000
  H   H137      1.0  0.55414  0.65914  0.54321  1.0000
  H   H138      1.0  0.36581  0.41487  0.60604  1.0000
  H   H139      1.0  0.47718  0.40555  0.66421  1.0000
  H   H140      1.0  0.4729400000000001  0.61851  0.45678  1.0000
  H   H141      1.0  0.22166000000000002  0.56577  0.43226  1.0000
  H   H142      1.0  0.28747000000000006  0.4775  0.59837  1.0000
  H   H143      1.0  0.5000500000000001  0.81322  0.3917900000000001  1.0000
  H   H144      1.0  0.48797  0.93757  0.41835  1.0000
  H   H145      1.0  0.3521400000000001  0.9315  0.40911000000000003  1.0000
  H   H146      1.0  0.22648  0.79979  0.37645  1.0000
  H   H147      1.0  0.23702000000000006  0.67516  0.3523  1.0000
  H   H148      1.0  0.31373  0.67368  0.24327000000000001  1.0000
  H   H149      1.0  0.2083  0.57883  0.16694  1.0000
  H   H150      1.0  0.12892  0.42688  0.18712  1.0000
  H   H151      1.0  0.15757  0.36958  0.28427  1.0000
  H   H152      1.0  0.26413  0.46405  0.36094  1.0000
  H   H153      1.0  0.14297000000000004  0.3927  0.43142  1.0000
  H   H154      1.0  0.062060000000000004  0.24658  0.39486  1.0000
  H   H155      1.0  0.96337  0.13623  0.46817  1.0000
  H   H156      1.0  0.95112  0.17189  0.57966  1.0000
  H   H157      1.0  0.03514  0.31834  0.61696  1.0000
  H   H158      1.0  0.013839999999999995  0.41336  0.44904  1.0000
  H   H159      1.0  0.94996  0.48323  0.39246000000000003  1.0000
  H   H160      1.0  0.99229  0.63012  0.41757  1.0000
  H   H161      1.0  0.0979199999999999  0.7053399999999997  0.50209  1.0000
  H   H162      1.0  0.16044999999999995  0.6348499999999999  0.55966  1.0000
  C   C1        1.0  0.4077499999999999  0.9981299999999999  0.06452  1.0000
  C   C2        1.0  0.46585000000000004  0.06713  0.09795000000000001  1.0000
  C   C3        1.0  0.54937  0.08743  0.09823  1.0000
  C   C4        1.0  0.57036  0.03671999999999999  0.06276  1.0000
  C   C5        1.0  0.50858  0.9691  0.030250000000000003  1.0000
  C   C6        1.0  0.6121900000000001  0.15844  0.13497  1.0000
  C   C7        1.0  0.59046  0.18038  0.19267  1.0000
  C   C8        1.0  0.65001  0.24509  0.22964000000000004  1.0000
  C   C9        1.0  0.73196  0.29205  0.2071  1.0000
  C   C10       1.0  0.754  0.27175  0.14929  1.0000
  C   C11       1.0  0.6944  0.20419  0.11389000000000002  1.0000
  C   C12       1.0  0.63076  0.36694  0.29621  1.0000
  C   C13       1.0  0.55999  0.37051  0.27796  1.0000
  C   C14       1.0  0.56672  0.44707  0.26367  1.0000
  C   C15       1.0  0.64325  0.52026  0.26859  1.0000
  C   C16       1.0  0.71377  0.51691  0.2869300000000001  1.0000
  C   C17       1.0  0.70791  0.44066  0.30037  1.0000
  C   C18       1.0  0.70507  0.2809599999999999  0.35804  1.0000
  C   C19       1.0  0.72111  0.32833  0.41362  1.0000
  C   C20       1.0  0.78043  0.3342  0.45691  1.0000
  C   C21       1.0  0.82478  0.29309  0.4457  1.0000
  C   C22       1.0  0.8085600000000001  0.2449  0.39115999999999995  1.0000
  C   C23       1.0  0.74882  0.23843  0.34775  1.0000
  C   C24       1.0  0.9088700000000001  0.27456  0.14086  1.0000
  C   C25       1.0  0.8998100000000001  0.24434  0.20306  1.0000
  C   C26       1.0  0.9454600000000001  0.20781  0.22363  1.0000
  C   C27       1.0  0.0004500000000000003  0.20083  0.18229  1.0000
  C   C28       1.0  0.007749999999999972  0.22834  0.11979  1.0000
  C   C29       1.0  0.9618100000000002  0.26459  0.09898000000000001  1.0000
  C   C30       1.0  0.90736  0.42677  0.15882  1.0000
  C   C31       1.0  0.9672300000000001  0.4446299999999999  0.20597  1.0000
  C   C32       1.0  0.003329999999999983  0.52048  0.23821000000000003  1.0000
  C   C33       1.0  0.9797400000000002  0.57912  0.22406  1.0000
  C   C34       1.0  0.9206800000000002  0.56217  0.17673  1.0000
  C   C35       1.0  0.8852100000000002  0.48691  0.14404  1.0000
  C   C36       1.0  0.0016999999999999984  0.40962  0.73119  1.0000
  C   C37       1.0  0.9327500000000001  0.3987  0.7646  1.0000
  C   C38       1.0  0.91257  0.4619899999999999  0.76485  1.0000
  C   C39       1.0  0.9634200000000002  0.5337399999999998  0.72933  1.0000
  C   C40       1.0  0.03097000000000002  0.5396  0.69685  1.0000
  C   C41       1.0  0.8416  0.45385  0.80157  1.0000
  C   C42       1.0  0.81961  0.4102499999999999  0.85933  1.0000
  C   C43       1.0  0.75497  0.40505  0.8963400000000001  1.0000
  C   C44       1.0  0.70803  0.4399399999999999  0.87378  1.0000
  C   C45       1.0  0.72837  0.48227  0.81591  1.0000
  C   C46       1.0  0.7958999999999998  0.4902899999999999  0.78049  1.0000
  C   C47       1.0  0.63307  0.26388  0.9628900000000001  1.0000
  C   C48       1.0  0.62938  0.18949  0.94464  1.0000
  C   C49       1.0  0.55279  0.11958  0.93034  1.0000
  C   C50       1.0  0.47966  0.12286  0.9352200000000002  1.0000
  C   C51       1.0  0.48311000000000004  0.19675999999999993  0.95358  1.0000
  C   C52       1.0  0.5594  0.26724  0.96705  1.0000
  C   C53       1.0  0.71911  0.42408  0.024770000000000004  1.0000
  C   C54       1.0  0.67169  0.39263  0.08032  1.0000
  C   C55       1.0  0.66582  0.44611  0.12356  1.0000
  C   C56       1.0  0.7069700000000001  0.53167  0.11227000000000001  1.0000
  C   C57       1.0  0.75523  0.56372  0.05775000000000001  1.0000
  C   C58       1.0  0.7616900000000002  0.51042  0.01441  1.0000
  C   C59       1.0  0.7255800000000001  0.63434  0.80747  1.0000
  C   C60       1.0  0.7558100000000001  0.65547  0.86966  1.0000
  C   C61       1.0  0.79231  0.73771  0.89026  1.0000
  C   C62       1.0  0.7992200000000002  0.79972  0.8489500000000001  1.0000
  C   C63       1.0  0.77168  0.77952  0.78645  1.0000
  C   C64       1.0  0.7354500000000002  0.69727  0.76561  1.0000
  C   C65       1.0  0.57335  0.48056  0.82542  1.0000
  C   C66       1.0  0.5555800000000001  0.52265  0.8725300000000001  1.0000
  C   C67       1.0  0.4797099999999999  0.4828399999999999  0.90476  1.0000
  C   C68       1.0  0.42097  0.40051  0.89059  1.0000
  C   C69       1.0  0.43786  0.35831  0.84333  1.0000
  C   C70       1.0  0.5131500000000001  0.39817  0.81067  1.0000
  C   C71       1.0  0.59044  0.59229  0.39788000000000007  1.0000
  C   C72       1.0  0.60134  0.53422  0.43126  1.0000
  C   C73       1.0  0.53802  0.45062  0.43147  1.0000
  C   C74       1.0  0.46621  0.42955  0.39598999999999995  1.0000
  C   C75       1.0  0.46041  0.49132  0.3635300000000001  1.0000
  C   C76       1.0  0.5462000000000001  0.38779999999999987  0.46818  1.0000
  C   C77       1.0  0.58983  0.40948  0.52594  1.0000
  C   C78       1.0  0.59503  0.35002  0.56294  1.0000
  C   C79       1.0  0.56006  0.26811  0.54038  1.0000
  C   C80       1.0  0.5177700000000001  0.24608999999999995  0.4825  1.0000
  C   C81       1.0  0.50977  0.3056  0.44708  1.0000
  C   C82       1.0  0.73614  0.36934  0.62954  1.0000
  C   C83       1.0  0.8105900000000001  0.4401299999999999  0.61128  1.0000
  C   C84       1.0  0.88041  0.43345  0.59699  1.0000
  C   C85       1.0  0.8769400000000002  0.35693  0.6019300000000001  1.0000
  C   C86       1.0  0.80298  0.28638  0.62031  1.0000
  C   C87       1.0  0.73259  0.29221  0.63376  1.0000
  C   C88       1.0  0.57594  0.29501  0.69137  1.0000
  C   C89       1.0  0.6073300000000003  0.27904  0.74694  1.0000
  C   C90       1.0  0.5537800000000003  0.21965  0.7902  1.0000
  C   C91       1.0  0.46821000000000007  0.17522  0.77894  1.0000
  C   C92       1.0  0.43622000000000005  0.19141  0.72439  1.0000
  C   C93       1.0  0.4895999999999999  0.2512099999999999  0.68102  1.0000
  C   C94       1.0  0.36563  0.09108  0.47413000000000005  1.0000
  C   C95       1.0  0.34455000000000013  0.10021999999999998  0.53632  1.0000
  C   C96       1.0  0.2623  0.05449  0.5569300000000001  1.0000
  C   C97       1.0  0.20020000000000004  0.99937  0.51561  1.0000
  C   C98       1.0  0.22035999999999992  0.9919799999999998  0.4531200000000001  1.0000
  C   C99       1.0  0.30264000000000013  0.03801  0.43228  1.0000
  C   C100      1.0  0.51942  0.09271999999999997  0.49211  1.0000
  C   C101      1.0  0.47733000000000003  0.03283999999999999  0.53929  1.0000
  C   C102      1.0  0.51706  0.99678  0.57152  1.0000
  C   C103      1.0  0.59934  0.02041  0.5573  1.0000
  C   C104      1.0  0.6415500000000001  0.0795  0.50997  1.0000
  C   C105      1.0  0.60176  0.11493  0.4773200000000001  1.0000
  C   C106      1.0  0.9981300000000001  0.40774  0.93548  1.0000
  C   C107      1.0  0.06712999999999995  0.46584  0.90205  1.0000
  C   C108      1.0  0.08743000000000005  0.54936  0.90177  1.0000
  C   C109      1.0  0.036710000000000007  0.57035  0.93724  1.0000
  C   C110      1.0  0.96911  0.50857  0.9697400000000002  1.0000
  C   C111      1.0  0.15843999999999991  0.6121799999999997  0.86503  1.0000
  C   C112      1.0  0.18038000000000004  0.59046  0.80733  1.0000
  C   C113      1.0  0.2450999999999999  0.6500099999999998  0.77036  1.0000
  C   C114      1.0  0.29206  0.73195  0.79289  1.0000
  C   C115      1.0  0.2717499999999999  0.7539899999999998  0.8507100000000001  1.0000
  C   C116      1.0  0.20419000000000007  0.69439  0.88611  1.0000
  C   C117      1.0  0.36694  0.63075  0.70379  1.0000
  C   C118      1.0  0.37052  0.55998  0.72204  1.0000
  C   C119      1.0  0.44708  0.56671  0.73633  1.0000
  C   C120      1.0  0.52026  0.64324  0.73141  1.0000
  C   C121      1.0  0.5169099999999999  0.7137599999999997  0.71307  1.0000
  C   C122      1.0  0.44066  0.7079  0.69963  1.0000
  C   C123      1.0  0.28096  0.70506  0.64196  1.0000
  C   C124      1.0  0.32833  0.7211  0.58638  1.0000
  C   C125      1.0  0.3342  0.78042  0.54309  1.0000
  C   C126      1.0  0.2930899999999999  0.8247799999999997  0.55429  1.0000
  C   C127      1.0  0.24490000000000003  0.80855  0.60884  1.0000
  C   C128      1.0  0.23843  0.74881  0.65225  1.0000
  C   C129      1.0  0.2745600000000001  0.90886  0.85914  1.0000
  C   C130      1.0  0.24434000000000003  0.8998  0.79694  1.0000
  C   C131      1.0  0.20780999999999994  0.9454499999999999  0.77637  1.0000
  C   C132      1.0  0.20083000000000004  0.00045  0.81771  1.0000
  C   C133      1.0  0.22835  0.007749999999999999  0.88021  1.0000
  C   C134      1.0  0.26459  0.9618  0.90102  1.0000
  C   C135      1.0  0.42677000000000015  0.90735  0.8411800000000001  1.0000
  C   C136      1.0  0.4446300000000001  0.96722  0.79403  1.0000
  C   C137      1.0  0.52048  0.00333  0.76179  1.0000
  C   C138      1.0  0.57912  0.97973  0.77594  1.0000
  C   C139      1.0  0.5621699999999998  0.9206699999999998  0.82327  1.0000
  C   C140      1.0  0.48691  0.88521  0.85596  1.0000
  C   C141      1.0  0.40963  0.0017  0.26881  1.0000
  C   C142      1.0  0.3987099999999999  0.93274  0.2354  1.0000
  C   C143      1.0  0.46199000000000007  0.91257  0.23515  1.0000
  C   C144      1.0  0.53375  0.96341  0.27067  1.0000
  C   C145      1.0  0.53961  0.03097  0.30315  1.0000
  C   C146      1.0  0.45385  0.84159  0.19843  1.0000
  C   C147      1.0  0.41025  0.8196  0.14067  1.0000
  C   C148      1.0  0.40505000000000013  0.75497  0.10366  1.0000
  C   C149      1.0  0.43994  0.70803  0.12622  1.0000
  C   C150      1.0  0.48227  0.72837  0.18408  1.0000
  C   C151      1.0  0.49029  0.79589  0.21951  1.0000
  C   C152      1.0  0.26388  0.63307  0.03711  1.0000
  C   C153      1.0  0.18949  0.62938  0.05535000000000001  1.0000
  C   C154      1.0  0.11958000000000005  0.55278  0.06966  1.0000
  C   C155      1.0  0.12286  0.47965  0.06478  1.0000
  C   C156      1.0  0.19676  0.48311  0.04642  1.0000
  C   C157      1.0  0.26725  0.5594  0.03295  1.0000
  C   C158      1.0  0.42408  0.7191  0.97523  1.0000
  C   C159      1.0  0.39262999999999987  0.6716799999999998  0.91968  1.0000
  C   C160      1.0  0.44611000000000006  0.66581  0.87644  1.0000
  C   C161      1.0  0.5316700000000001  0.70697  0.8877300000000001  1.0000
  C   C162      1.0  0.5637199999999999  0.7552199999999998  0.94225  1.0000
  C   C163      1.0  0.51042  0.76169  0.98559  1.0000
  C   C164      1.0  0.63434  0.72557  0.19253  1.0000
  C   C165      1.0  0.65547  0.7558  0.13034  1.0000
  C   C166      1.0  0.7377100000000001  0.7923  0.10974000000000002  1.0000
  C   C167      1.0  0.79973  0.79922  0.15105  1.0000
  C   C168      1.0  0.7795200000000002  0.77168  0.21355  1.0000
  C   C169      1.0  0.69727  0.73544  0.23438  1.0000
  C   C170      1.0  0.48056  0.57335  0.17458  1.0000
  C   C171      1.0  0.52266  0.55557  0.12747  1.0000
  C   C172      1.0  0.48285000000000006  0.4797  0.09524  1.0000
  C   C173      1.0  0.40052  0.42097  0.10941000000000001  1.0000
  C   C174      1.0  0.35832  0.43786  0.15667  1.0000
  C   C175      1.0  0.39817000000000013  0.51315  0.18933  1.0000
  C   C176      1.0  0.59229  0.59044  0.60212  1.0000
  C   C177      1.0  0.53422  0.60134  0.56874  1.0000
  C   C178      1.0  0.45063000000000003  0.53801  0.56853  1.0000
  C   C179      1.0  0.42956000000000005  0.46621  0.60401  1.0000
  C   C180      1.0  0.49133  0.4604  0.63647  1.0000
  C   C181      1.0  0.38781000000000004  0.54619  0.53182  1.0000
  C   C182      1.0  0.4094800000000001  0.58983  0.47406000000000004  1.0000
  C   C183      1.0  0.35002000000000005  0.59502  0.43706  1.0000
  C   C184      1.0  0.26811  0.56006  0.4596199999999999  1.0000
  C   C185      1.0  0.24608999999999998  0.51777  0.5175  1.0000
  C   C186      1.0  0.3056100000000001  0.50977  0.55292  1.0000
  C   C187      1.0  0.36934  0.7361299999999997  0.37045  1.0000
  C   C188      1.0  0.4401300000000001  0.81058  0.38872000000000007  1.0000
  C   C189      1.0  0.43345  0.88041  0.40301  1.0000
  C   C190      1.0  0.35692999999999997  0.87693  0.39807  1.0000
  C   C191      1.0  0.28638  0.80297  0.3796900000000001  1.0000
  C   C192      1.0  0.29221  0.73259  0.36624  1.0000
  C   C193      1.0  0.29502  0.57594  0.30863  1.0000
  C   C194      1.0  0.27904  0.60732  0.25306  1.0000
  C   C195      1.0  0.2196500000000001  0.55377  0.20980000000000001  1.0000
  C   C196      1.0  0.17522000000000007  0.4682  0.22106  1.0000
  C   C197      1.0  0.19141  0.43621  0.2756  1.0000
  C   C198      1.0  0.25121  0.48959  0.31898  1.0000
  C   C199      1.0  0.09108  0.36562  0.52587  1.0000
  C   C200      1.0  0.10022000000000005  0.34455  0.46367  1.0000
  C   C201      1.0  0.05449  0.26229  0.44307  1.0000
  C   C202      1.0  0.99938  0.2002  0.48439  1.0000
  C   C203      1.0  0.9919900000000001  0.22036  0.54688  1.0000
  C   C204      1.0  0.03800999999999995  0.3026299999999999  0.56772  1.0000
  C   C205      1.0  0.09271999999999997  0.51941  0.50789  1.0000
  C   C206      1.0  0.03283999999999999  0.47732  0.46071  1.0000
  C   C207      1.0  0.9967900000000001  0.51706  0.4284700000000001  1.0000
  C   C208      1.0  0.02041000000000002  0.59933  0.4427  1.0000
  C   C209      1.0  0.07949999999999999  0.64154  0.49002  1.0000
  C   C210      1.0  0.11492999999999996  0.60175  0.52268  1.0000
  N   N1        1.0  0.4281  0.94898  0.031150000000000004  1.0000
  N   N2        1.0  0.05095999999999993  0.4791899999999999  0.6978  1.0000
  N   N3        1.0  0.52086  0.57185  0.3645  1.0000
  N   N4        1.0  0.9489900000000002  0.42809  0.9688500000000001  1.0000
  N   N5        1.0  0.47919000000000006  0.05096  0.3022  1.0000
  N   N6        1.0  0.57185  0.52086  0.6355  1.0000
  Cl  Cl1       1.0  0.386  0.16755999999999993  0.29547  1.0000
  Cl  Cl2       1.0  0.8321600000000001  0.21823  0.96259  1.0000
  Cl  Cl3       1.0  0.78155  0.61396  0.62897  1.0000
  Cl  Cl4       1.0  0.16756  0.38599  0.70453  1.0000
  Cl  Cl5       1.0  0.21824000000000002  0.83215  0.03741  1.0000
  Cl  Cl6       1.0  0.61397  0.78155  0.37102  1.0000
