data_image0
_chemical_formula_structural       Eu12H120C176S16N16O66
_chemical_formula_sum              "Eu12 H120 C176 S16 N16 O66"
_cell_length_a       10.20418
_cell_length_b       24.183530000000005
_cell_length_c       26.6633
_cell_angle_alpha    69.6415
_cell_angle_beta     78.66456
_cell_angle_gamma    77.8317

_space_group_name_H-M_alt    "P 1"
_space_group_IT_number       1

loop_
  _space_group_symop_operation_xyz
  'x, y, z'

loop_
  _atom_site_type_symbol
  _atom_site_label
  _atom_site_symmetry_multiplicity
  _atom_site_fract_x
  _atom_site_fract_y
  _atom_site_fract_z
  _atom_site_occupancy
  Eu  Eu1       1.0  0.17897  0.027679999999999993  0.42049  1.0000
  Eu  Eu2       1.0  0.18358999999999998  0.97987  0.56686  1.0000
  Eu  Eu3       1.0  0.9431  0.11272  0.49776999999999993  1.0000
  Eu  Eu4       1.0  0.62545  0.47123  0.07954999999999998  1.0000
  Eu  Eu5       1.0  0.73114  0.5191  0.9325499999999998  1.0000
  Eu  Eu6       1.0  0.55053  0.38744  0.0019099999999999998  1.0000
  Eu  Eu7       1.0  0.8223099999999998  0.9723  0.5799499999999999  1.0000
  Eu  Eu8       1.0  0.8182000000000001  0.019760000000000024  0.4338199999999999  1.0000
  Eu  Eu9       1.0  0.058790000000000044  0.8870500000000001  0.5019899999999999  1.0000
  Eu  Eu10      1.0  0.3739900000000002  0.5287599999999999  0.9204599999999997  1.0000
  Eu  Eu11      1.0  0.26849  0.48101999999999995  0.06749  1.0000
  Eu  Eu12      1.0  0.44881999999999994  0.6128099999999999  0.99825  1.0000
  H   H1        1.0  0.6607  0.005629999999999999  0.0565  1.0000
  H   H2        1.0  0.46051  0.95214  0.21690999999999994  1.0000
  H   H3        1.0  0.46037999999999996  0.86811  0.17134999999999997  1.0000
  H   H4        1.0  0.80605  0.21664  0.05431  1.0000
  H   H5        1.0  0.62336  0.16812  0.13771  1.0000
  H   H6        1.0  0.81937  0.044140000000000026  0.98935  1.0000
  H   H7        1.0  0.10431000000000011  0.06855000000000004  0.8466199999999998  1.0000
  H   H8        1.0  0.14737000000000006  0.1356600000000001  0.9020799999999998  1.0000
  H   H9        1.0  0.5834000000000001  0.86427  0.9667  1.0000
  H   H10       1.0  0.7368600000000002  0.92453  0.87823  1.0000
  H   H11       1.0  0.33637999999999996  0.10226999999999999  0.18611999999999995  1.0000
  H   H12       1.0  0.28598  0.11727  0.2756  1.0000
  H   H13       1.0  0.6972199999999997  0.04288999999999999  0.30495  1.0000
  H   H14       1.0  0.7485100000000001  0.028180000000000018  0.21534999999999996  1.0000
  H   H15       1.0  0.0547  0.16395  0.0635  1.0000
  H   H16       1.0  0.12290999999999999  0.26311  0.04715  1.0000
  H   H17       1.0  0.03897000000000001  0.31995000000000007  0.8835499999999998  1.0000
  H   H18       1.0  0.9722900000000002  0.22251999999999994  0.8989  1.0000
  H   H19       1.0  0.06305000000000005  0.9167500000000001  0.8801099999999997  1.0000
  H   H20       1.0  0.10718000000000016  0.8835399999999999  0.79925  1.0000
  H   H21       1.0  0.8303000000000004  0.036030000000000055  0.7201999999999997  1.0000
  H   H22       1.0  0.78679  0.06931000000000008  0.8014899999999999  1.0000
  H   H23       1.0  0.31910000000000005  0.88859  0.08884999999999997  1.0000
  H   H24       1.0  0.2137199999999999  0.79948  0.10325999999999999  1.0000
  H   H25       1.0  0.6095299999999999  0.6982399999999999  0.08003999999999999  1.0000
  H   H26       1.0  0.7141699999999999  0.78843  0.06230999999999998  1.0000
  H   H27       1.0  0.9215600000000003  0.061239999999999975  0.60697  1.0000
  H   H28       1.0  0.6720999999999999  0.09065000000000002  0.50284  1.0000
  H   H29       1.0  0.97043  0.12874  0.37284  1.0000
  H   H30       1.0  0.25079  0.09317000000000004  0.4893399999999999  1.0000
  H   H31       1.0  0.7235300000000001  0.49406999999999995  0.44321999999999995  1.0000
  H   H32       1.0  0.63017  0.54824  0.28334  1.0000
  H   H33       1.0  0.5004600000000001  0.63166  0.32955  1.0000
  H   H34       1.0  0.07654999999999999  0.28342  0.44548  1.0000
  H   H35       1.0  0.9296199999999999  0.3315  0.36244  1.0000
  H   H36       1.0  0.8513200000000001  0.45624999999999993  0.5103799999999998  1.0000
  H   H37       1.0  0.019880000000000026  0.4327099999999999  0.65163  1.0000
  H   H38       1.0  0.18438000000000002  0.3652900000000001  0.5959099999999999  1.0000
  H   H39       1.0  0.41372  0.63612  0.53365  1.0000
  H   H40       1.0  0.5379100000000001  0.5768800000000001  0.6216199999999998  1.0000
  H   H41       1.0  0.62314  0.3973999999999999  0.31537  1.0000
  H   H42       1.0  0.6744499999999999  0.38247  0.22593999999999997  1.0000
  H   H43       1.0  0.043670000000000014  0.45602  0.19398999999999994  1.0000
  H   H44       1.0  0.99285  0.47097  0.28329  1.0000
  H   H45       1.0  0.2826  0.33533  0.43592999999999993  1.0000
  H   H46       1.0  0.4354500000000001  0.23676000000000003  0.45314999999999994  1.0000
  H   H47       1.0  0.23934000000000005  0.18015999999999993  0.6164  1.0000
  H   H48       1.0  0.08957000000000002  0.27715  0.60075  1.0000
  H   H49       1.0  0.85905  0.5839300000000001  0.61889  1.0000
  H   H50       1.0  0.7906999999999997  0.61705  0.69988  1.0000
  H   H51       1.0  0.5844000000000001  0.46485000000000004  0.7801799999999998  1.0000
  H   H52       1.0  0.6539499999999998  0.4317  0.69892  1.0000
  H   H53       1.0  0.29696000000000017  0.6115499999999999  0.4117199999999999  1.0000
  H   H54       1.0  0.11818999999999993  0.7008000000000003  0.3969399999999999  1.0000
  H   H55       1.0  0.38847000000000004  0.8013099999999999  0.42153  1.0000
  H   H56       1.0  0.5642099999999999  0.7106999999999999  0.43971  1.0000
  H   H57       1.0  0.5913  0.4384  0.89263  1.0000
  H   H58       1.0  0.2635100000000001  0.4106699999999998  0.9977299999999999  1.0000
  H   H59       1.0  0.46671  0.3699299999999999  0.1266  1.0000
  H   H60       1.0  0.82923  0.40485  0.011069999999999998  1.0000
  H   H61       1.0  0.33937  0.99443  0.94352  1.0000
  H   H62       1.0  0.5393400000000002  0.04785000000000001  0.78305  1.0000
  H   H63       1.0  0.5396000000000001  0.13193  0.82856  1.0000
  H   H64       1.0  0.19370000000000004  0.78343  0.94558  1.0000
  H   H65       1.0  0.3767100000000001  0.8319000000000001  0.8623099999999998  1.0000
  H   H66       1.0  0.18073  0.95576  0.010569999999999998  1.0000
  H   H67       1.0  0.89572  0.93157  0.15333  1.0000
  H   H68       1.0  0.85311  0.86417  0.09804999999999998  1.0000
  H   H69       1.0  0.4166  0.13572  0.0333  1.0000
  H   H70       1.0  0.26286999999999994  0.07553999999999997  0.12173  1.0000
  H   H71       1.0  0.6638299999999999  0.89761  0.8138099999999999  1.0000
  H   H72       1.0  0.7139099999999999  0.88283  0.72428  1.0000
  H   H73       1.0  0.3026799999999998  0.9570799999999999  0.69519  1.0000
  H   H74       1.0  0.2516800000000001  0.9716199999999998  0.78489  1.0000
  H   H75       1.0  0.9442600000000001  0.83681  0.9367499999999997  1.0000
  H   H76       1.0  0.8760299999999999  0.7378500000000001  0.9524099999999998  1.0000
  H   H77       1.0  0.9626099999999999  0.67966  0.11589  1.0000
  H   H78       1.0  0.028519999999999997  0.77713  0.10095999999999998  1.0000
  H   H79       1.0  0.93699  0.08341  0.11994999999999997  1.0000
  H   H80       1.0  0.89306  0.11662000000000003  0.20076999999999995  1.0000
  H   H81       1.0  0.16988999999999968  0.9640300000000002  0.27974999999999994  1.0000
  H   H82       1.0  0.2131800000000001  0.9307299999999998  0.19851  1.0000
  H   H83       1.0  0.6811700000000002  0.11144000000000007  0.9108799999999998  1.0000
  H   H84       1.0  0.7863099999999998  0.20060999999999998  0.89653  1.0000
  H   H85       1.0  0.3905700000000001  0.30150999999999994  0.9204999999999999  1.0000
  H   H86       1.0  0.28611  0.21112999999999998  0.93866  1.0000
  H   H87       1.0  0.08089999999999999  0.93862  0.39319  1.0000
  H   H88       1.0  0.32986  0.90929  0.49661  1.0000
  H   H89       1.0  0.031930000000000056  0.87067  0.62695  1.0000
  H   H90       1.0  0.7521200000000001  0.90622  0.51183  1.0000
  H   H91       1.0  0.27619000000000005  0.5060999999999998  0.55671  1.0000
  H   H92       1.0  0.3692699999999997  0.4520000000000001  0.71661  1.0000
  H   H93       1.0  0.49945000000000006  0.3685999999999999  0.6703699999999999  1.0000
  H   H94       1.0  0.9235900000000004  0.7165899999999998  0.55433  1.0000
  H   H95       1.0  0.06953  0.6685799999999997  0.63764  1.0000
  H   H96       1.0  0.14921999999999996  0.54373  0.48935999999999996  1.0000
  H   H97       1.0  0.98012  0.56756  0.34823  1.0000
  H   H98       1.0  0.8155999999999999  0.63479  0.40408999999999995  1.0000
  H   H99       1.0  0.5860600000000001  0.36388  0.46635999999999994  1.0000
  H   H100      1.0  0.46171  0.42326  0.37837  1.0000
  H   H101      1.0  0.3764999999999999  0.60252  0.6845299999999997  1.0000
  H   H102      1.0  0.3255100000000001  0.6175000000000002  0.7739699999999998  1.0000
  H   H103      1.0  0.9561700000000001  0.54397  0.8060199999999998  1.0000
  H   H104      1.0  0.006760000000000194  0.5290399999999998  0.7167299999999998  1.0000
  H   H105      1.0  0.71803  0.66488  0.56418  1.0000
  H   H106      1.0  0.5675  0.76366  0.54733  1.0000
  H   H107      1.0  0.76248  0.81968  0.38353999999999994  1.0000
  H   H108      1.0  0.9108300000000001  0.72224  0.39933  1.0000
  H   H109      1.0  0.14069  0.41622  0.38115  1.0000
  H   H110      1.0  0.20881999999999995  0.38317  0.30015  1.0000
  H   H111      1.0  0.41524999999999995  0.53543  0.21989  1.0000
  H   H112      1.0  0.3453799999999997  0.5684500000000001  0.3013  1.0000
  H   H113      1.0  0.7036800000000001  0.3885199999999999  0.5879  1.0000
  H   H114      1.0  0.8816499999999999  0.29899  0.60332  1.0000
  H   H115      1.0  0.60934  0.19830000000000003  0.58021  1.0000
  H   H116      1.0  0.43451  0.28909  0.56149  1.0000
  H   H117      1.0  0.40842  0.5615  0.10747  1.0000
  H   H118      1.0  0.7380499999999999  0.58909  0.0016099999999999997  1.0000
  H   H119      1.0  0.53275  0.6299900000000002  0.8737699999999998  1.0000
  H   H120      1.0  0.1693500000000002  0.59519  0.9894399999999998  1.0000
  C   C1        1.0  0.56761  0.99869  0.13679  1.0000
  C   C2        1.0  0.5012799999999998  0.95232  0.1762  1.0000
  C   C3        1.0  0.5006800000000001  0.90962  0.15283  1.0000
  C   C4        1.0  0.56554  0.92896  0.09833999999999997  1.0000
  C   C5        1.0  0.5921399999999999  0.05145999999999999  0.14229999999999998  1.0000
  C   C6        1.0  0.67337  0.09144  0.10356  1.0000
  C   C7        1.0  0.8272  0.12887  0.03787  1.0000
  C   C8        1.0  0.7762600000000001  0.17297  0.06591  1.0000
  C   C9        1.0  0.6823200000000001  0.14895  0.10747  1.0000
  C   C10       1.0  0.93589  0.13556000000000004  0.99463  1.0000
  C   C11       1.0  0.9689100000000002  0.10132000000000008  0.9590899999999999  1.0000
  C   C12       1.0  0.9369200000000002  0.04261999999999998  0.91391  1.0000
  C   C13       1.0  0.04807999999999996  0.07311000000000001  0.88429  1.0000
  C   C14       1.0  0.06924000000000011  0.1079700000000001  0.9124599999999998  1.0000
  C   C15       1.0  0.8748499999999999  0.004319999999999995  0.8999  1.0000
  C   C16       1.0  0.7752100000000002  0.9703499999999998  0.93389  1.0000
  C   C17       1.0  0.6496  0.92203  0.005469999999999999  1.0000
  C   C18       1.0  0.64148  0.8987499999999999  0.9627599999999998  1.0000
  C   C19       1.0  0.71871  0.92925  0.91811  1.0000
  C   C20       1.0  0.58316  0.9004199999999999  0.058839999999999996  1.0000
  C   C21       1.0  0.54579  0.06247999999999998  0.19518  1.0000
  C   C22       1.0  0.41532999999999975  0.08815000000000002  0.21218  1.0000
  C   C23       1.0  0.38676  0.09717  0.26262  1.0000
  C   C24       1.0  0.48799999999999993  0.07911  0.29627  1.0000
  C   C25       1.0  0.6184999999999998  0.054700000000000006  0.27925  1.0000
  C   C26       1.0  0.6468899999999999  0.04688000000000002  0.22881999999999994  1.0000
  C   C27       1.0  0.005149999999999999  0.18682000000000004  0.98284  1.0000
  C   C28       1.0  0.05019000000000001  0.19826999999999997  0.02448  1.0000
  C   C29       1.0  0.08793000000000001  0.25301  0.01577  1.0000
  C   C30       1.0  0.07981999999999999  0.29685  0.96516  1.0000
  C   C31       1.0  0.04309000000000011  0.28523000000000004  0.9224699999999998  1.0000
  C   C32       1.0  0.008030000000000015  0.22998999999999997  0.9312599999999999  1.0000
  C   C33       1.0  0.91992  0.9942100000000003  0.8466699999999998  1.0000
  C   C34       1.0  0.012520000000000071  0.9428199999999998  0.84523  1.0000
  C   C35       1.0  0.037190000000000126  0.9240099999999998  0.8001099999999999  1.0000
  C   C36       1.0  0.9684900000000001  0.95717  0.7559899999999999  1.0000
  C   C37       1.0  0.8814400000000001  0.010500000000000042  0.7553599999999999  1.0000
  C   C38       1.0  0.8576199999999999  0.02904  0.80091  1.0000
  C   C39       1.0  0.52275  0.84537  0.073  1.0000
  C   C40       1.0  0.3818500000000001  0.84709  0.08648999999999997  1.0000
  C   C41       1.0  0.32308000000000003  0.7971800000000001  0.09414999999999998  1.0000
  C   C42       1.0  0.40608999999999995  0.74447  0.08997999999999999  1.0000
  C   C43       1.0  0.54709  0.7408499999999999  0.07992  1.0000
  C   C44       1.0  0.6047499999999999  0.7915  0.07059  1.0000
  C   C45       1.0  0.7034000000000001  0.50125  0.36331  1.0000
  C   C46       1.0  0.6305800000000001  0.5477200000000001  0.32410999999999995  1.0000
  C   C47       1.0  0.5635000000000001  0.59016  0.34779  1.0000
  C   C48       1.0  0.5928300000000001  0.5708299999999998  0.40214  1.0000
  C   C49       1.0  0.7862400000000003  0.44848000000000005  0.35761999999999994  1.0000
  C   C50       1.0  0.86873  0.40854  0.3961099999999999  1.0000
  C   C51       1.0  0.9932899999999998  0.37121000000000015  0.4616999999999999  1.0000
  C   C52       1.0  0.014869999999999953  0.32704000000000005  0.4338  1.0000
  C   C53       1.0  0.93916  0.35093  0.39236  1.0000
  C   C54       1.0  0.06472000000000004  0.36443  0.50484  1.0000
  C   C55       1.0  0.02782999999999997  0.39904000000000006  0.54008  1.0000
  C   C56       1.0  0.8921400000000002  0.45792999999999984  0.58545  1.0000
  C   C57       1.0  0.0046699999999999945  0.42773  0.61443  1.0000
  C   C58       1.0  0.08859000000000006  0.39274999999999993  0.5861499999999998  1.0000
  C   C59       1.0  0.7776899999999999  0.49617000000000006  0.59995  1.0000
  C   C60       1.0  0.6781099999999998  0.5301  0.56636  1.0000
  C   C61       1.0  0.5765  0.57783  0.49499  1.0000
  C   C62       1.0  0.50224  0.6016599999999998  0.53751  1.0000
  C   C63       1.0  0.5648500000000001  0.57152  0.5820099999999999  1.0000
  C   C64       1.0  0.5422099999999999  0.59919  0.44181  1.0000
  C   C65       1.0  0.8031400000000002  0.43734  0.30479  1.0000
  C   C66       1.0  0.71423  0.4114499999999999  0.2888  1.0000
  C   C67       1.0  0.7432500000000001  0.4023999999999999  0.23833999999999997  1.0000
  C   C68       1.0  0.85941  0.4207600000000002  0.20352999999999993  1.0000
  C   C69       1.0  0.95057  0.44446  0.21994999999999998  1.0000
  C   C70       1.0  0.92266  0.45229  0.27035999999999993  1.0000
  C   C71       1.0  0.17298000000000002  0.31288999999999995  0.51669  1.0000
  C   C72       1.0  0.27275000000000005  0.30122  0.4751999999999999  1.0000
  C   C73       1.0  0.35726000000000013  0.24661000000000002  0.4843599999999999  1.0000
  C   C74       1.0  0.34031  0.20264  0.53491  1.0000
  C   C75       1.0  0.2483599999999999  0.21469000000000005  0.57739  1.0000
  C   C76       1.0  0.16625000000000004  0.26975999999999994  0.56836  1.0000
  C   C77       1.0  0.75984  0.50628  0.65316  1.0000
  C   C78       1.0  0.8006100000000002  0.5576000000000001  0.6542799999999999  1.0000
  C   C79       1.0  0.7620199999999999  0.5764000000000001  0.69945  1.0000
  C   C80       1.0  0.6818800000000003  0.54343  0.7440099999999997  1.0000
  C   C81       1.0  0.64623  0.4902299999999999  0.7449299999999999  1.0000
  C   C82       1.0  0.68599  0.47164000000000017  0.6993099999999998  1.0000
  C   C83       1.0  0.44113999999999987  0.65419  0.4281499999999999  1.0000
  C   C84       1.0  0.31593999999999994  0.65281  0.41443  1.0000
  C   C85       1.0  0.21553000000000008  0.7027799999999998  0.40661  1.0000
  C   C86       1.0  0.24176000000000014  0.7554299999999998  0.41089  1.0000
  C   C87       1.0  0.36841000000000024  0.7587099999999999  0.4215899999999999  1.0000
  C   C88       1.0  0.46668999999999994  0.70788  0.431  1.0000
  C   C89       1.0  0.43242000000000014  0.0012999999999999967  0.86322  1.0000
  C   C90       1.0  0.49868  0.04769  0.82378  1.0000
  C   C91       1.0  0.4994  0.09040000000000004  0.8471199999999999  1.0000
  C   C92       1.0  0.43466999999999983  0.07105000000000003  0.9016499999999998  1.0000
  C   C93       1.0  0.4080199999999999  0.9485000000000001  0.8577399999999997  1.0000
  C   C94       1.0  0.32671  0.90854  0.89648  1.0000
  C   C95       1.0  0.1727100000000002  0.87118  0.9621099999999998  1.0000
  C   C96       1.0  0.2236000000000001  0.82707  0.9340599999999998  1.0000
  C   C97       1.0  0.31761000000000006  0.85107  0.89254  1.0000
  C   C98       1.0  0.06418000000000006  0.8644999999999999  0.0054  1.0000
  C   C99       1.0  0.031239999999999945  0.89867  0.04095  1.0000
  C   C100      1.0  0.06316000000000001  0.95743  0.08604999999999997  1.0000
  C   C101      1.0  0.9520399999999999  0.9269299999999999  0.11569  1.0000
  C   C102      1.0  0.9310499999999998  0.89195  0.08761  1.0000
  C   C103      1.0  0.12504000000000026  0.9957499999999998  0.10007999999999999  1.0000
  C   C104      1.0  0.22463  0.029720000000000003  0.06607  1.0000
  C   C105      1.0  0.35054  0.07788999999999999  0.99455  1.0000
  C   C106      1.0  0.35850999999999994  0.10123999999999998  0.03724  1.0000
  C   C107      1.0  0.28109000000000006  0.07080999999999998  0.08185999999999999  1.0000
  C   C108      1.0  0.4170499999999999  0.09954000000000007  0.9411899999999999  1.0000
  C   C109      1.0  0.45442000000000005  0.93748  0.8048399999999998  1.0000
  C   C110      1.0  0.5848399999999999  0.91183  0.78776  1.0000
  C   C111      1.0  0.61323  0.9029899999999997  0.73725  1.0000
  C   C112      1.0  0.5121199999999999  0.9213199999999999  0.70354  1.0000
  C   C113      1.0  0.38154999999999994  0.94541  0.7207699999999999  1.0000
  C   C114      1.0  0.35327000000000003  0.9530599999999998  0.7712499999999999  1.0000
  C   C115      1.0  0.9952  0.81315  0.01724  1.0000
  C   C116      1.0  0.9494000000000001  0.8022000000000001  0.9755599999999998  1.0000
  C   C117      1.0  0.91096  0.7476899999999999  0.9838999999999999  1.0000
  C   C118      1.0  0.9196800000000003  0.7033599999999999  0.0342  1.0000
  C   C119      1.0  0.9571  0.71451  0.07705  1.0000
  C   C120      1.0  0.99259  0.7696099999999999  0.06862  1.0000
  C   C121      1.0  0.08003999999999999  0.005880000000000001  0.15331  1.0000
  C   C122      1.0  0.9875599999999999  0.05727999999999999  0.15479  1.0000
  C   C123      1.0  0.9629600000000004  0.07613000000000002  0.19988999999999996  1.0000
  C   C124      1.0  0.03175000000000001  0.042880000000000015  0.24398999999999996  1.0000
  C   C125      1.0  0.11870000000000008  0.9895599999999998  0.24459  1.0000
  C   C126      1.0  0.1423800000000001  0.9710099999999999  0.19907  1.0000
  C   C127      1.0  0.47749000000000014  0.15456000000000006  0.9271399999999999  1.0000
  C   C128      1.0  0.6183299999999998  0.15289  0.91343  1.0000
  C   C129      1.0  0.67706  0.20278000000000007  0.9058499999999998  1.0000
  C   C130      1.0  0.59404  0.25545000000000007  0.9101899999999999  1.0000
  C   C131      1.0  0.45315  0.25896  0.92056  1.0000
  C   C132      1.0  0.39547000000000015  0.20832000000000006  0.9299299999999998  1.0000
  C   C133      1.0  0.29635  0.49887  0.63662  1.0000
  C   C134      1.0  0.36913000000000007  0.4524599999999999  0.67584  1.0000
  C   C135      1.0  0.43632000000000004  0.41006000000000004  0.6521399999999999  1.0000
  C   C136      1.0  0.40706999999999993  0.42935  0.5978  1.0000
  C   C137      1.0  0.21351000000000012  0.55157  0.6424  1.0000
  C   C138      1.0  0.13123000000000007  0.59155  0.6039099999999998  1.0000
  C   C139      1.0  0.0069800000000000036  0.62877  0.53826  1.0000
  C   C140      1.0  0.9852500000000001  0.67299  0.5661  1.0000
  C   C141      1.0  0.06062000000000006  0.6491299999999999  0.60764  1.0000
  C   C142      1.0  0.9354299999999999  0.63548  0.49519  1.0000
  C   C143      1.0  0.9721400000000001  0.60089  0.4599499999999999  1.0000
  C   C144      1.0  0.10774999999999994  0.54214  0.41448  1.0000
  C   C145      1.0  0.9952899999999999  0.57241  0.38548  1.0000
  C   C146      1.0  0.91133  0.60727  0.4138599999999999  1.0000
  C   C147      1.0  0.22220999999999996  0.50389  0.4000699999999999  1.0000
  C   C148      1.0  0.32175  0.46997999999999995  0.43368999999999996  1.0000
  C   C149      1.0  0.42354  0.42224  0.50501  1.0000
  C   C150      1.0  0.4976199999999999  0.39839000000000013  0.46249999999999997  1.0000
  C   C151      1.0  0.4349700000000001  0.42857  0.41801  1.0000
  C   C152      1.0  0.45776999999999995  0.40089  0.55821  1.0000
  C   C153      1.0  0.19646000000000002  0.56267  0.6952299999999999  1.0000
  C   C154      1.0  0.28537999999999997  0.5886  0.7111499999999997  1.0000
  C   C155      1.0  0.25649999999999995  0.59764  0.76161  1.0000
  C   C156      1.0  0.14044000000000012  0.57926  0.7964699999999998  1.0000
  C   C157      1.0  0.04912000000000003  0.5556300000000001  0.7800299999999998  1.0000
  C   C158      1.0  0.07689999999999998  0.54778  0.72963  1.0000
  C   C159      1.0  0.8272800000000002  0.68703  0.48332  1.0000
  C   C160      1.0  0.7280400000000001  0.69889  0.52487  1.0000
  C   C161      1.0  0.64437  0.7537099999999999  0.51579  1.0000
  C   C162      1.0  0.6606400000000001  0.7974699999999999  0.46503999999999995  1.0000
  C   C163      1.0  0.7525000000000001  0.7852400000000002  0.4225699999999999  1.0000
  C   C164      1.0  0.8341300000000001  0.7299899999999999  0.43161  1.0000
  C   C165      1.0  0.23997000000000002  0.49383  0.34687  1.0000
  C   C166      1.0  0.19916000000000003  0.44253  0.34575  1.0000
  C   C167      1.0  0.2377  0.4238  0.30055  1.0000
  C   C168      1.0  0.3178499999999999  0.45679  0.25597  1.0000
  C   C169      1.0  0.35348999999999997  0.50997  0.25511  1.0000
  C   C170      1.0  0.31368999999999997  0.52852  0.30073999999999995  1.0000
  C   C171      1.0  0.5585499999999999  0.34580000000000005  0.57216  1.0000
  C   C172      1.0  0.68396  0.34713999999999995  0.58575  1.0000
  C   C173      1.0  0.7840600000000001  0.297  0.59381  1.0000
  C   C174      1.0  0.75759  0.24439999999999998  0.5896  1.0000
  C   C175      1.0  0.63014  0.24097999999999994  0.57964  1.0000
  C   C176      1.0  0.53217  0.29194  0.57004  1.0000
  S   S1        1.0  0.45014999999999994  0.07966999999999999  0.36446999999999996  1.0000
  S   S2        1.0  0.12179000000000006  0.3684200000000001  0.9534599999999999  1.0000
  S   S3        1.0  0.99557  0.9296  0.70032  1.0000
  S   S4        1.0  0.3338999999999999  0.68103  0.09562999999999999  1.0000
  S   S5        1.0  0.89074  0.42078  0.13512  1.0000
  S   S6        1.0  0.4396199999999999  0.1307  0.54662  1.0000
  S   S7        1.0  0.6235300000000001  0.5721  0.7989999999999999  1.0000
  S   S8        1.0  0.11277000000000008  0.81944  0.40364999999999995  1.0000
  S   S9        1.0  0.55043  0.92124  0.63532  1.0000
  S   S10       1.0  0.8804599999999999  0.63147  0.04493  1.0000
  S   S11       1.0  0.00488  0.07005  0.29987  1.0000
  S   S12       1.0  0.6664299999999997  0.31886  0.9043399999999998  1.0000
  S   S13       1.0  0.10921000000000004  0.5791099999999998  0.86493  1.0000
  S   S14       1.0  0.5613700000000001  0.86964  0.45333  1.0000
  S   S15       1.0  0.3763  0.42799  0.20108999999999996  1.0000
  S   S16       1.0  0.8864399999999999  0.18057000000000004  0.59537  1.0000
  N   N1        1.0  0.60474  0.9826799999999999  0.09063  1.0000
  N   N2        1.0  0.75953  0.08066999999999998  0.05974  1.0000
  N   N3        1.0  0.8953699999999999  0.05959000000000004  0.95958  1.0000
  N   N4        1.0  0.7278400000000002  0.96689  0.9868899999999999  1.0000
  N   N5        1.0  0.67838  0.51727  0.4094599999999999  1.0000
  N   N6        1.0  0.9002999999999999  0.41953  0.43963999999999986  1.0000
  N   N7        1.0  0.9128499999999999  0.44068999999999997  0.5399499999999999  1.0000
  N   N8        1.0  0.6805900000000004  0.5330999999999998  0.51354  1.0000
  N   N9        1.0  0.39528999999999986  0.01736000000000002  0.90936  1.0000
  N   N10       1.0  0.24047999999999986  0.91934  0.94027  1.0000
  N   N11       1.0  0.10477999999999997  0.94041  0.040409999999999995  1.0000
  N   N12       1.0  0.27213999999999994  0.03309  0.01309  1.0000
  N   N13       1.0  0.3214700000000001  0.48288999999999993  0.59044  1.0000
  N   N14       1.0  0.10004000000000006  0.58052  0.56035  1.0000
  N   N15       1.0  0.08712000000000009  0.5592699999999999  0.4599999999999999  1.0000
  N   N16       1.0  0.3194100000000002  0.46698999999999996  0.4864999999999999  1.0000
  O   O1        1.0  0.9657400000000002  0.039610000000000034  0.5812199999999998  1.0000
  O   O2        1.0  0.7602900000000001  0.06234000000000002  0.50381  1.0000
  O   O3        1.0  0.96356  0.10186999999999999  0.40987  1.0000
  O   O4        1.0  0.17763999999999994  0.07313000000000003  0.4880699999999999  1.0000
  O   O5        1.0  0.42366000000000004  0.01732  0.39644  1.0000
  O   O6        1.0  0.32218  0.12184000000000005  0.36695999999999995  1.0000
  O   O7        1.0  0.5699900000000001  0.09315000000000004  0.37884999999999996  1.0000
  O   O8        1.0  0.20428000000000007  0.3561300000000001  0.9979599999999997  1.0000
  O   O9        1.0  0.9914599999999996  0.40809  0.96013  1.0000
  O   O10       1.0  0.1976699999999999  0.38439000000000006  0.89892  1.0000
  O   O11       1.0  0.018200000000000115  0.86418  0.7217799999999999  1.0000
  O   O12       1.0  0.11572000000000017  0.9558799999999997  0.66535  1.0000
  O   O13       1.0  0.8693800000000003  0.9551899999999999  0.67433  1.0000
  O   O14       1.0  0.4421900000000001  0.6293  0.11273  1.0000
  O   O15       1.0  0.31049999999999994  0.69077  0.0386  1.0000
  O   O16       1.0  0.20961000000000002  0.6802899999999998  0.13407  1.0000
  O   O17       1.0  0.58631  0.46037999999999996  0.91818  1.0000
  O   O18       1.0  0.3229800000000002  0.43955999999999995  0.9966999999999998  1.0000
  O   O19       1.0  0.47302999999999995  0.3982399999999999  0.09014  1.0000
  O   O20       1.0  0.73619  0.42639  0.01097  1.0000
  O   O21       1.0  0.83287  0.48312999999999995  0.10391999999999998  1.0000
  O   O22       1.0  0.80791  0.37851  0.13217  1.0000
  O   O23       1.0  0.038410000000000034  0.40790999999999994  0.12021999999999997  1.0000
  O   O24       1.0  0.55263  0.14319999999999997  0.50137  1.0000
  O   O25       1.0  0.35425  0.09086999999999999  0.54084  1.0000
  O   O26       1.0  0.47771999999999987  0.11491  0.60068  1.0000
  O   O27       1.0  0.6017000000000001  0.6373299999999998  0.7769299999999999  1.0000
  O   O28       1.0  0.7349900000000003  0.54816  0.8335799999999998  1.0000
  O   O29       1.0  0.49702999999999997  0.5460700000000002  0.82542  1.0000
  O   O30       1.0  0.18715999999999997  0.8709  0.38807  1.0000
  O   O31       1.0  0.03439000000000013  0.80998  0.4595499999999999  1.0000
  O   O32       1.0  0.03334000000000009  0.8199499999999998  0.36301  1.0000
  O   O33       1.0  0.03386000000000003  0.95959  0.4191899999999999  1.0000
  O   O34       1.0  0.24185  0.93816  0.49584  1.0000
  O   O35       1.0  0.037919999999999954  0.8981599999999998  0.59011  1.0000
  O   O36       1.0  0.8240999999999994  0.92719  0.51271  1.0000
  O   O37       1.0  0.57866  0.98331  0.60367  1.0000
  O   O38       1.0  0.6764599999999998  0.87815  0.63289  1.0000
  O   O39       1.0  0.42900000000000005  0.9090599999999998  0.62055  1.0000
  O   O40       1.0  0.80272  0.6435199999999999  0.9990099999999998  1.0000
  O   O41       1.0  0.012770000000000085  0.5917199999999999  0.0412  1.0000
  O   O42       1.0  0.79818  0.61581  0.09803999999999999  1.0000
  O   O43       1.0  0.98257  0.13545  0.27873  1.0000
  O   O44       1.0  0.8846599999999999  0.043640000000000005  0.33475  1.0000
  O   O45       1.0  0.13133999999999998  0.04441000000000004  0.3256599999999999  1.0000
  O   O46       1.0  0.5581399999999997  0.37066999999999994  0.88708  1.0000
  O   O47       1.0  0.6895900000000001  0.3091400000000001  0.9613999999999999  1.0000
  O   O48       1.0  0.7906199999999999  0.31938  0.8660999999999999  1.0000
  O   O49       1.0  0.41349  0.53938  0.08202999999999999  1.0000
  O   O50       1.0  0.6765  0.5607  0.00331  1.0000
  O   O51       1.0  0.5259799999999999  0.6016800000000001  0.9102199999999999  1.0000
  O   O52       1.0  0.26297999999999994  0.57409  0.98904  1.0000
  O   O53       1.0  0.16702000000000003  0.5167199999999998  0.89608  1.0000
  O   O54       1.0  0.19191999999999992  0.6212699999999999  0.8681  1.0000
  O   O55       1.0  0.9614500000000004  0.5919800000000001  0.8798099999999998  1.0000
  O   O56       1.0  0.4440900000000001  0.8564199999999998  0.49674999999999997  1.0000
  O   O57       1.0  0.64518  0.90838  0.4617999999999999  1.0000
  O   O58       1.0  0.52932  0.8879299999999999  0.39808  1.0000
  O   O59       1.0  0.3974499999999999  0.3628  0.22356  1.0000
  O   O60       1.0  0.26507000000000003  0.45194  0.16639  1.0000
  O   O61       1.0  0.5030799999999999  0.45379  0.17464999999999997  1.0000
  O   O62       1.0  0.81188  0.12936  0.61199  1.0000
  O   O63       1.0  0.96147  0.19022999999999993  0.53879  1.0000
  O   O64       1.0  0.97046  0.17963000000000004  0.63472  1.0000
  O   O65       1.0  0.00027000000000001486  0.0003099999999999963  0.49988  1.0000
  O   O66       1.0  0.5006  0.49991  7.999999999999999e-05  1.0000
