data_image0
_chemical_formula_structural       Mn9H204C180N12O36
_chemical_formula_sum              "Mn9 H204 C180 N12 O36"
_cell_length_a       13.70043
_cell_length_b       18.38499
_cell_length_c       22.0951
_cell_angle_alpha    66.6628
_cell_angle_beta     88.81303000000001
_cell_angle_gamma    86.82694

_symmetry_space_group_name_H-M    'P 1'
_symmetry_Int_Tables_number       1

loop_
  _symmetry_equiv_pos_as_xyz
  'x,y,z'

loop_
  _atom_site_type_symbol
  _atom_site_label
  _atom_site_symmetry_multiplicity
  _atom_site_fract_x
  _atom_site_fract_y
  _atom_site_fract_z
  _atom_site_occupancy
  Mn  Mn1       1.0  0.4323699999999999  0.21883  0.1331  1.0000
  Mn  Mn2       1.0  0.21668  0.2934  0.19493  1.0000
  Mn  Mn3       1.0  0.99703  0.36604999999999993  0.25862  1.0000
  Mn  Mn4       1.0  0.58262  0.73867  0.0744  1.0000
  Mn  Mn5       1.0  0.58765  0.006140000000000036  0.58884  1.0000
  Mn  Mn6       1.0  0.8732399999999999  0.25345  0.8482700000000001  1.0000
  Mn  Mn7       1.0  0.8520599999999999  0.84139  0.31931  1.0000
  Mn  Mn8       1.0  0.85199  0.5768  0.80261  1.0000
  Mn  Mn9       1.0  0.56049  0.3295  0.53922  1.0000
  H   H1        1.0  0.29133  0.4807  0.08425  1.0000
  H   H2        1.0  0.59695  0.42987000000000003  0.12535  1.0000
  H   H3        1.0  0.31939999999999996  0.70369  0.11522999999999999  1.0000
  H   H4        1.0  0.19606000000000007  0.72003  0.08834  1.0000
  H   H5        1.0  0.23558  0.62765  0.15122  1.0000
  H   H6        1.0  0.37158  0.7415999999999999  0.98948  1.0000
  H   H7        1.0  0.31982  0.68886  0.9466999999999999  1.0000
  H   H8        1.0  0.2447  0.75498  0.9703099999999999  1.0000
  H   H9        1.0  0.16679  0.55688  0.08491  1.0000
  H   H10       1.0  0.13132999999999995  0.65049  0.02273  1.0000
  H   H11       1.0  0.20326  0.58098  0.0018399999999999998  1.0000
  H   H12       1.0  0.69662  0.52138  0.12979  1.0000
  H   H13       1.0  0.7694  0.6405  0.17453  1.0000
  H   H14       1.0  0.84068  0.5366900000000001  0.13709  1.0000
  H   H15       1.0  0.8497599999999997  0.61071  0.05553  1.0000
  H   H16       1.0  0.008740000000000006  0.58365  0.11578  1.0000
  H   H17       1.0  0.95258  0.60273  0.18081  1.0000
  H   H18       1.0  0.03853000000000001  0.72063  0.11015  1.0000
  H   H19       1.0  0.97843  0.72377  0.03919  1.0000
  H   H20       1.0  0.9001599999999998  0.82349  0.07442  1.0000
  H   H21       1.0  0.88223  0.7518  0.15573  1.0000
  H   H22       1.0  0.79333  0.74827  0.02988  1.0000
  H   H23       1.0  0.77547  0.87646  0.09567  1.0000
  H   H24       1.0  0.41327  0.06258999999999999  0.08031  1.0000
  H   H25       1.0  0.71744  0.9968200000000002  0.09462999999999999  1.0000
  H   H26       1.0  0.35726  0.80358  0.14235  1.0000
  H   H27       1.0  0.31296999999999997  0.8671900000000001  0.18119999999999997  1.0000
  H   H28       1.0  0.23408  0.84169  0.13093  1.0000
  H   H29       1.0  0.37101  0.86453  0.01126  1.0000
  H   H30       1.0  0.24833  0.90316  0.006629999999999999  1.0000
  H   H31       1.0  0.34299  0.9679199999999999  0.9681599999999999  1.0000
  H   H32       1.0  0.19243  0.98356  0.06674  1.0000
  H   H33       1.0  0.27023  0.012350000000000007  0.11555  1.0000
  H   H34       1.0  0.2813  0.05363  0.028319999999999998  1.0000
  H   H35       1.0  0.25624  0.15874000000000002  0.37316  1.0000
  H   H36       1.0  0.55439  0.12372000000000004  0.32686999999999994  1.0000
  H   H37       1.0  0.29605  0.19578000000000004  0.52715  1.0000
  H   H38       1.0  0.22656999999999997  0.12549  0.58987  1.0000
  H   H39       1.0  0.35424  0.10669  0.58359  1.0000
  H   H40       1.0  0.17002  0.19268000000000002  0.44444999999999996  1.0000
  H   H41       1.0  0.14225  0.10062999999999998  0.44142  1.0000
  H   H42       1.0  0.11033999999999998  0.12042000000000003  0.5117  1.0000
  H   H43       1.0  0.1934  0.9927  0.58359  1.0000
  H   H44       1.0  0.23375999999999994  0.9730599999999999  0.51424  1.0000
  H   H45       1.0  0.31964  0.97226  0.57389  1.0000
  H   H46       1.0  0.66411  0.04664000000000004  0.40726999999999997  1.0000
  H   H47       1.0  0.7317299999999999  0.90276  0.52936  1.0000
  H   H48       1.0  0.8334299999999999  0.05445999999999999  0.44707  1.0000
  H   H49       1.0  0.79529  0.9809  0.42109  1.0000
  H   H50       1.0  0.91352  0.88225  0.49001999999999996  1.0000
  H   H51       1.0  0.9747499999999999  0.9686799999999999  0.44437  1.0000
  H   H52       1.0  0.97974  0.0032999999999999987  0.54199  1.0000
  H   H53       1.0  0.028289999999999985  0.9055800000000002  0.56366  1.0000
  H   H54       1.0  0.86945  0.8516099999999998  0.61539  1.0000
  H   H55       1.0  0.9137599999999998  0.9160099999999999  0.6495299999999999  1.0000
  H   H56       1.0  0.80766  0.027920000000000007  0.57215  1.0000
  H   H57       1.0  0.7943499999999998  0.87603  0.70988  1.0000
  H   H58       1.0  0.47335  0.85667  0.89042  1.0000
  H   H59       1.0  0.75341  0.8159999999999998  0.81988  1.0000
  H   H60       1.0  0.35714  0.9486199999999999  0.8726899999999999  1.0000
  H   H61       1.0  0.24949999999999994  0.9540100000000002  0.82779  1.0000
  H   H62       1.0  0.31882  0.8627  0.86348  1.0000
  H   H63       1.0  0.25179  0.94539  0.72005  1.0000
  H   H64       1.0  0.36283  0.93509  0.6804899999999999  1.0000
  H   H65       1.0  0.32352  0.8546999999999998  0.75203  1.0000
  H   H66       1.0  0.41782  0.06423999999999996  0.77465  1.0000
  H   H67       1.0  0.42050000000000004  0.06384999999999998  0.6942  1.0000
  H   H68       1.0  0.30674  0.06768  0.73321  1.0000
  H   H69       1.0  0.028319999999999998  0.26615  0.06356  1.0000
  H   H70       1.0  0.28922000000000003  0.2069499999999999  0.97983  1.0000
  H   H71       1.0  0.3535  0.24727000000000002  0.8767  1.0000
  H   H72       1.0  0.34862000000000004  0.14314999999999994  0.92296  1.0000
  H   H73       1.0  0.35912  0.18093999999999996  0.83598  1.0000
  H   H74       1.0  0.19766  0.07144000000000002  0.91714  1.0000
  H   H75       1.0  0.101  0.12263999999999994  0.86124  1.0000
  H   H76       1.0  0.21741999999999997  0.10595  0.83073  1.0000
  H   H77       1.0  0.21645  0.32316999999999996  0.7961  1.0000
  H   H78       1.0  0.22964999999999997  0.25129  0.7611  1.0000
  H   H79       1.0  0.11296  0.27415999999999996  0.78768  1.0000
  H   H80       1.0  0.87919  0.27495  0.01755  1.0000
  H   H81       1.0  0.71532  0.21339000000000005  0.97503  1.0000
  H   H82       1.0  0.73915  0.30711  0.02816  1.0000
  H   H83       1.0  0.73143  0.38816  0.9499999999999998  1.0000
  H   H84       1.0  0.5715699999999998  0.37045  0.011109999999999998  1.0000
  H   H85       1.0  0.57528  0.27078  0.022219999999999997  1.0000
  H   H86       1.0  0.4596  0.346  0.93282  1.0000
  H   H87       1.0  0.5485  0.41357  0.89031  1.0000
  H   H88       1.0  0.55432  0.23666999999999996  0.91476  1.0000
  H   H89       1.0  0.5362999999999999  0.31942000000000004  0.8386499999999999  1.0000
  H   H90       1.0  0.69991  0.36546000000000006  0.85054  1.0000
  H   H91       1.0  0.60091  0.2501  0.79867  1.0000
  H   H92       1.0  0.80269  0.10600000000000001  0.6381  1.0000
  H   H93       1.0  0.57569  0.21402000000000004  0.71365  1.0000
  H   H94       1.0  0.004639999999999996  0.23238000000000003  0.63775  1.0000
  H   H95       1.0  0.01973  0.21903999999999996  0.72148  1.0000
  H   H96       1.0  0.1018  0.16917000000000001  0.6855399999999999  1.0000
  H   H97       1.0  0.9803999999999998  0.08033  0.81551  1.0000
  H   H98       1.0  0.9463799999999999  0.0031700000000000183  0.79205  1.0000
  H   H99       1.0  0.06752  0.036390000000000026  0.7778  1.0000
  H   H100      1.0  0.9583999999999998  0.11803000000000004  0.60883  1.0000
  H   H101      1.0  0.053309999999999996  0.05792  0.66099  1.0000
  H   H102      1.0  0.93271  0.02484000000000003  0.67245  1.0000
  H   H103      1.0  0.84035  0.15191  0.26724  1.0000
  H   H104      1.0  0.14746  0.1029  0.30135  1.0000
  H   H105      1.0  0.30727  0.9349700000000001  0.36588  1.0000
  H   H106      1.0  0.27047  0.02597000000000001  0.30106  1.0000
  H   H107      1.0  0.23594999999999997  0.007180000000000002  0.38366  1.0000
  H   H108      1.0  0.19809  0.83129  0.42286999999999997  1.0000
  H   H109      1.0  0.12318000000000001  0.89869  0.44505  1.0000
  H   H110      1.0  0.07028999999999999  0.84153  0.40658999999999995  1.0000
  H   H111      1.0  0.24040000000000003  0.8602399999999999  0.30477  1.0000
  H   H112      1.0  0.11559  0.87305  0.28132  1.0000
  H   H113      1.0  0.19675  0.9497799999999998  0.24028  1.0000
  H   H114      1.0  0.7366  0.056100000000000004  0.27617  1.0000
  H   H115      1.0  0.65152  0.88239  0.35813999999999996  1.0000
  H   H116      1.0  0.5992  0.024350000000000004  0.22813  1.0000
  H   H117      1.0  0.59428  0.02466  0.30829  1.0000
  H   H118      1.0  0.43056  0.005310000000000007  0.27189  1.0000
  H   H119      1.0  0.4714400000000001  0.92668  0.34488  1.0000
  H   H120      1.0  0.39917  0.87138  0.27161  1.0000
  H   H121      1.0  0.47388  0.9275900000000001  0.2059  1.0000
  H   H122      1.0  0.54102  0.79175  0.25253  1.0000
  H   H123      1.0  0.5442700000000001  0.79005  0.33353  1.0000
  H   H124      1.0  0.6606199999999999  0.8979199999999999  0.2153  1.0000
  H   H125      1.0  0.66188  0.71715  0.27667  1.0000
  H   H126      1.0  0.016109999999999996  0.51806  0.31188  1.0000
  H   H127      1.0  0.71379  0.59039  0.29219  1.0000
  H   H128      1.0  0.15901  0.56693  0.27492  1.0000
  H   H129      1.0  0.23959999999999995  0.59562  0.32228  1.0000
  H   H130      1.0  0.15040999999999996  0.52661  0.36227  1.0000
  H   H131      1.0  0.06629  0.7170500000000001  0.37901  1.0000
  H   H132      1.0  0.09478  0.6137300000000001  0.42244999999999994  1.0000
  H   H133      1.0  0.18844  0.67821  0.38128  1.0000
  H   H134      1.0  0.11507999999999999  0.71218  0.20869999999999997  1.0000
  H   H135      1.0  0.07715000000000001  0.7769799999999999  0.24801999999999996  1.0000
  H   H136      1.0  0.19944000000000003  0.73662  0.25673  1.0000
  H   H137      1.0  0.18053  0.42815  0.02052  1.0000
  H   H138      1.0  0.88107  0.46320999999999996  0.06457999999999998  1.0000
  H   H139      1.0  0.20061  0.61086  0.8728999999999999  1.0000
  H   H140      1.0  0.24329999999999996  0.58544  0.8067799999999999  1.0000
  H   H141      1.0  0.11640999999999993  0.6058199999999999  0.81447  1.0000
  H   H142      1.0  0.08209  0.4666100000000001  0.81369  1.0000
  H   H143      1.0  0.21013  0.45035000000000014  0.8063199999999999  1.0000
  H   H144      1.0  0.14417999999999995  0.3809100000000001  0.8719799999999999  1.0000
  H   H145      1.0  0.2943  0.48576000000000014  0.9502799999999999  1.0000
  H   H146      1.0  0.26712999999999987  0.39128  0.95211  1.0000
  H   H147      1.0  0.32672  0.46032  0.8828799999999999  1.0000
  H   H148      1.0  0.76433  0.51267  0.9851800000000001  1.0000
  H   H149      1.0  0.64907  0.5247500000000002  0.85198  1.0000
  H   H150      1.0  0.6121299999999997  0.5027899999999998  0.96857  1.0000
  H   H151      1.0  0.6297699999999999  0.60426  0.95067  1.0000
  H   H152      1.0  0.45272  0.58092  0.94736  1.0000
  H   H153      1.0  0.47548  0.5382900000000002  0.88937  1.0000
  H   H154      1.0  0.41278999999999993  0.6780299999999999  0.8314200000000002  1.0000
  H   H155      1.0  0.50416  0.71105  0.86781  1.0000
  H   H156      1.0  0.55231  0.73578  0.75525  1.0000
  H   H157      1.0  0.5352499999999999  0.6362199999999999  0.76644  1.0000
  H   H158      1.0  0.68824  0.69254  0.8351599999999999  1.0000
  H   H159      1.0  0.65153  0.7233300000000003  0.68663  1.0000
  H   H160      1.0  0.9564399999999998  0.7203600000000001  0.50138  1.0000
  H   H161      1.0  0.6797099999999999  0.76264  0.576  1.0000
  H   H162      1.0  0.023399999999999994  0.52655  0.70167  1.0000
  H   H163      1.0  0.023010000000000003  0.52017  0.62341  1.0000
  H   H164      1.0  0.13554999999999998  0.52257  0.66097  1.0000
  H   H165      1.0  0.11120999999999999  0.73948  0.63182  1.0000
  H   H166      1.0  0.07765  0.66125  0.70668  1.0000
  H   H167      1.0  0.18754  0.65141  0.66572  1.0000
  H   H168      1.0  0.11337  0.72231  0.52374  1.0000
  H   H169      1.0  0.18662999999999996  0.6336599999999999  0.56209  1.0000
  H   H170      1.0  0.07822  0.6322099999999999  0.52055  1.0000
  H   H171      1.0  0.14377  0.38074  0.4079999999999999  1.0000
  H   H172      1.0  0.40255999999999986  0.31731000000000004  0.32518  1.0000
  H   H173      1.0  0.07531000000000003  0.4080899999999999  0.55161  1.0000
  H   H174      1.0  0.08827  0.44771999999999995  0.46479  1.0000
  H   H175      1.0  0.07756999999999999  0.34382000000000007  0.50905  1.0000
  H   H176      1.0  0.33676  0.45671000000000006  0.53135  1.0000
  H   H177      1.0  0.2427099999999999  0.51279  0.47512  1.0000
  H   H178      1.0  0.22113999999999998  0.47585999999999995  0.56147  1.0000
  H   H179      1.0  0.31692  0.30393  0.60076  1.0000
  H   H180      1.0  0.20248999999999998  0.33063000000000003  0.62776  1.0000
  H   H181      1.0  0.20901999999999998  0.26128  0.5900499999999999  1.0000
  H   H182      1.0  0.54806  0.28801000000000004  0.37884  1.0000
  H   H183      1.0  0.6896499999999999  0.21092999999999995  0.50574  1.0000
  H   H184      1.0  0.6775899999999998  0.21687  0.39253  1.0000
  H   H185      1.0  0.72592  0.3130400000000001  0.3599  1.0000
  H   H186      1.0  0.82454  0.15926000000000004  0.4605099999999999  1.0000
  H   H187      1.0  0.85821  0.20702000000000004  0.37644  1.0000
  H   H188      1.0  0.97049  0.23878  0.44988  1.0000
  H   H189      1.0  0.90569  0.3241899999999999  0.39485  1.0000
  H   H190      1.0  0.90576  0.32887000000000005  0.50345  1.0000
  H   H191      1.0  0.85813  0.2334900000000001  0.5415899999999999  1.0000
  H   H192      1.0  0.75253  0.38082  0.43915  1.0000
  H   H193      1.0  0.8342  0.3472  0.57715  1.0000
  H   H194      1.0  0.63658  0.4782800000000001  0.7468  1.0000
  H   H195      1.0  0.86099  0.36785999999999996  0.67103  1.0000
  H   H196      1.0  0.33356  0.41698  0.70077  1.0000
  H   H197      1.0  0.41444  0.36481  0.66616  1.0000
  H   H198      1.0  0.42841  0.3522  0.7497799999999999  1.0000
  H   H199      1.0  0.37111999999999995  0.54862  0.60948  1.0000
  H   H200      1.0  0.49329  0.57949  0.5949599999999999  1.0000
  H   H201      1.0  0.4559199999999999  0.50312  0.57163  1.0000
  H   H202      1.0  0.38621  0.52644  0.72645  1.0000
  H   H203      1.0  0.48145  0.46591  0.7781  1.0000
  H   H204      1.0  0.50729  0.5584899999999999  0.7137699999999999  1.0000
  C   C1        1.0  0.43300999999999995  0.36295  0.12112  1.0000
  C   C2        1.0  0.44254999999999994  0.44715  0.10732000000000001  1.0000
  C   C3        1.0  0.36182  0.50268  0.08844999999999999  1.0000
  C   C4        1.0  0.36987999999999993  0.58264  0.07506999999999998  1.0000
  C   C5        1.0  0.46362  0.60722  0.08536  1.0000
  C   C6        1.0  0.54642  0.55159  0.10199  1.0000
  C   C7        1.0  0.53447  0.47239  0.11213  1.0000
  C   C8        1.0  0.2824  0.64278  0.05177  1.0000
  C   C9        1.0  0.25718  0.67548  0.10506  1.0000
  C   C10       1.0  0.3069  0.71124  0.9856599999999999  1.0000
  C   C11       1.0  0.19129  0.60491  0.0399  1.0000
  C   C12       1.0  0.6424599999999999  0.57129  0.11251  1.0000
  C   C13       1.0  0.77013  0.65231  0.12152  1.0000
  C   C14       1.0  0.85128  0.59992  0.10822999999999999  1.0000
  C   C15       1.0  0.9506399999999998  0.61978  0.12724  1.0000
  C   C16       1.0  0.96966  0.70808  0.09241  1.0000
  C   C17       1.0  0.88594  0.76086  0.10335  1.0000
  C   C18       1.0  0.78967  0.73995  0.08223999999999998  1.0000
  C   C19       1.0  0.70385  0.8554500000000002  0.09124  1.0000
  C   C20       1.0  0.5895999999999999  0.11306  0.09324  1.0000
  C   C21       1.0  0.62224  0.90842  0.08914  1.0000
  C   C22       1.0  0.52295  0.8893400000000001  0.08502  1.0000
  C   C23       1.0  0.4450599999999999  0.9465499999999999  0.08106  1.0000
  C   C24       1.0  0.47025999999999996  0.018  0.08265  1.0000
  C   C25       1.0  0.56746  0.036509999999999994  0.08842  1.0000
  C   C26       1.0  0.64251  0.9818799999999999  0.09109  1.0000
  C   C27       1.0  0.3381999999999999  0.9292099999999999  0.07525  1.0000
  C   C28       1.0  0.30946  0.85571  0.13620999999999997  1.0000
  C   C29       1.0  0.32487  0.9149500000000002  0.01153  1.0000
  C   C30       1.0  0.26739  0.999  0.07135999999999999  1.0000
  C   C31       1.0  0.37776  0.1726  0.27267  1.0000
  C   C32       1.0  0.40267  0.14359000000000002  0.34326  1.0000
  C   C33       1.0  0.32971999999999996  0.13657  0.39113  1.0000
  C   C34       1.0  0.34809  0.10229999999999996  0.4584  1.0000
  C   C35       1.0  0.44683  0.07444  0.47982  1.0000
  C   C36       1.0  0.52183  0.08228000000000002  0.43124  1.0000
  C   C37       1.0  0.4980499999999999  0.11756000000000001  0.36377999999999994  1.0000
  C   C38       1.0  0.26481  0.09154  0.50817  1.0000
  C   C39       1.0  0.2873800000000001  0.13216000000000006  0.5551599999999999  1.0000
  C   C40       1.0  0.16668  0.1286400000000001  0.47376999999999997  1.0000
  C   C41       1.0  0.25252  0.0017499999999999994  0.54735  1.0000
  C   C42       1.0  0.61839  0.04655000000000001  0.4484  1.0000
  C   C43       1.0  0.7494  0.96419  0.51969  1.0000
  C   C44       1.0  0.82323  0.99069  0.4632899999999999  1.0000
  C   C45       1.0  0.92173  0.9436599999999999  0.48427  1.0000
  C   C46       1.0  0.96055  0.94322  0.54891  1.0000
  C   C47       1.0  0.88467  0.9137100000000001  0.6044  1.0000
  C   C48       1.0  0.7907899999999998  0.9659199999999999  0.58294  1.0000
  C   C49       1.0  0.7223299999999999  0.90516  0.69348  1.0000
  C   C50       1.0  0.65087  0.8921899999999998  0.74429  1.0000
  C   C51       1.0  0.55317  0.92747  0.7311599999999999  1.0000
  C   C52       1.0  0.48666  0.91419  0.78501  1.0000
  C   C53       1.0  0.5208000000000002  0.8673699999999999  0.84811  1.0000
  C   C54       1.0  0.61574  0.8307300000000001  0.8615499999999999  1.0000
  C   C55       1.0  0.67982  0.84358  0.80953  1.0000
  C   C56       1.0  0.64657  0.77795  0.9305399999999999  1.0000
  C   C57       1.0  0.38158  0.95049  0.7733  1.0000
  C   C58       1.0  0.32416  0.92723  0.83834  1.0000
  C   C59       1.0  0.32705  0.9195  0.72841  1.0000
  C   C60       1.0  0.3822499999999999  0.042170000000000006  0.74158  1.0000
  C   C61       1.0  0.22163  0.22997000000000004  0.08589  1.0000
  C   C62       1.0  0.1642  0.23434  0.02824  1.0000
  C   C63       1.0  0.06454  0.25278  0.024589999999999997  1.0000
  C   C64       1.0  0.009730000000000004  0.253  0.97137  1.0000
  C   C65       1.0  0.05656  0.23407999999999998  0.9203  1.0000
  C   C66       1.0  0.16049  0.21840999999999997  0.92237  1.0000
  C   C67       1.0  0.21049999999999994  0.21873999999999996  0.97639  1.0000
  C   C68       1.0  0.21326  0.19983  0.8677199999999999  1.0000
  C   C69       1.0  0.32506000000000007  0.19238000000000005  0.8769999999999999  1.0000
  C   C70       1.0  0.17986  0.11998999999999999  0.86951  1.0000
  C   C71       1.0  0.19114  0.2662900000000001  0.79905  1.0000
  C   C72       1.0  0.90635  0.2669799999999999  0.9736000000000001  1.0000
  C   C73       1.0  0.73626  0.2740700000000001  0.94406  1.0000
  C   C74       1.0  0.7057199999999999  0.32866  0.97904  1.0000
  C   C75       1.0  0.5942800000000001  0.32994  0.98743  1.0000
  C   C76       1.0  0.53845  0.35122999999999993  0.92299  1.0000
  C   C77       1.0  0.5730799999999998  0.29851000000000005  0.88671  1.0000
  C   C78       1.0  0.68348  0.3027  0.87774  1.0000
  C   C79       1.0  0.68011  0.23864  0.8007799999999999  1.0000
  C   C80       1.0  0.71864  0.20336999999999994  0.75769  1.0000
  C   C81       1.0  0.82094  0.18331000000000003  0.75454  1.0000
  C   C82       1.0  0.8522199999999998  0.14476  0.71157  1.0000
  C   C83       1.0  0.7819300000000001  0.13410999999999995  0.67173  1.0000
  C   C84       1.0  0.68313  0.16079  0.67015  1.0000
  C   C85       1.0  0.65193  0.19371000000000002  0.71418  1.0000
  C   C86       1.0  0.61557  0.15955000000000003  0.61907  1.0000
  C   C87       1.0  0.95946  0.11742000000000002  0.70904  1.0000
  C   C88       1.0  0.025120000000000007  0.18915999999999994  0.68733  1.0000
  C   C89       1.0  0.99019  0.055630000000000054  0.7779799999999999  1.0000
  C   C90       1.0  0.97588  0.07746999999999998  0.65982  1.0000
  C   C91       1.0  0.005  0.21962000000000004  0.26923  1.0000
  C   C92       1.0  0.9951799999999997  0.13558  0.28204  1.0000
  C   C93       1.0  0.90304  0.10966999999999998  0.27925  1.0000
  C   C94       1.0  0.8906699999999999  0.02979999999999999  0.29174  1.0000
  C   C95       1.0  0.97289  0.9735800000000001  0.3097  1.0000
  C   C96       1.0  0.06765000000000002  0.9996700000000001  0.31596  1.0000
  C   C97       1.0  0.07626999999999999  0.08030000000000001  0.29978  1.0000
  C   C98       1.0  0.15558  0.94006  0.33943999999999996  1.0000
  C   C99       1.0  0.24704000000000004  0.9800199999999999  0.34766  1.0000
  C   C100      1.0  0.13465  0.87377  0.40756999999999993  1.0000
  C   C101      1.0  0.17803  0.90365  0.28817  1.0000
  C   C102      1.0  0.79296  0.007899999999999997  0.28864  1.0000
  C   C103      1.0  0.66232  0.91758  0.30483  1.0000
  C   C104      1.0  0.5874899999999998  0.98717  0.28054  1.0000
  C   C105      1.0  0.48467  0.9553400000000001  0.29158  1.0000
  C   C106      1.0  0.47165000000000007  0.89625  0.25969  1.0000
  C   C107      1.0  0.5508500000000004  0.82833  0.28084  1.0000
  C   C108      1.0  0.65206  0.86269  0.26856  1.0000
  C   C109      1.0  0.73214  0.73409  0.2883  1.0000
  C   C110      1.0  0.81122  0.67632  0.29945  1.0000
  C   C111      1.0  0.9107399999999998  0.69307  0.3061  1.0000
  C   C112      1.0  0.98723  0.63477  0.31022999999999995  1.0000
  C   C113      1.0  0.96007  0.56363  0.30874  1.0000
  C   C114      1.0  0.8623  0.54661  0.30227  1.0000
  C   C115      1.0  0.7889699999999998  0.60312  0.29789  1.0000
  C   C116      1.0  0.83752  0.47155  0.29556999999999994  1.0000
  C   C117      1.0  0.09475  0.65124  0.3151999999999999  1.0000
  C   C118      1.0  0.16399999999999998  0.58077  0.31875  1.0000
  C   C119      1.0  0.11136  0.66633  0.37826  1.0000
  C   C120      1.0  0.12278999999999998  0.72402  0.25332  1.0000
  C   C121      1.0  0.058460000000000005  0.41484  0.11953999999999998  1.0000
  C   C122      1.0  0.034000000000000016  0.44473  0.04914  1.0000
  C   C123      1.0  0.10724  0.44983  0.00191  1.0000
  C   C124      1.0  0.08923999999999997  0.48134000000000005  0.93467  1.0000
  C   C125      1.0  0.9904399999999998  0.5072700000000002  0.9128199999999999  1.0000
  C   C126      1.0  0.9147499999999997  0.4990999999999999  0.96102  1.0000
  C   C127      1.0  0.93829  0.4685  0.02839  1.0000
  C   C128      1.0  0.17214  0.4894999999999999  0.88516  1.0000
  C   C129      1.0  0.18345  0.57854  0.8422299999999999  1.0000
  C   C130      1.0  0.15012  0.44427000000000005  0.8415199999999999  1.0000
  C   C131      1.0  0.27027  0.45460999999999996  0.92026  1.0000
  C   C132      1.0  0.81418  0.52153  0.94387  1.0000
  C   C133      1.0  0.6719299999999998  0.5678499999999999  0.8716  1.0000
  C   C134      1.0  0.60644  0.56289  0.92961  1.0000
  C   C135      1.0  0.49992000000000003  0.5835200000000001  0.9057600000000001  1.0000
  C   C136      1.0  0.48871  0.66557  0.84936  1.0000
  C   C137      1.0  0.5576399999999998  0.67395  0.7913599999999998  1.0000
  C   C138      1.0  0.66309  0.65041  0.81532  1.0000
  C   C139      1.0  0.72074  0.6887799999999998  0.70229  1.0000
  C   C140      1.0  0.7874199999999999  0.69363  0.6502999999999999  1.0000
  C   C141      1.0  0.88603  0.66022  0.66221  1.0000
  C   C142      1.0  0.94978  0.6707699999999999  0.60739  1.0000
  C   C143      1.0  0.91136  0.7118999999999998  0.54444  1.0000
  C   C144      1.0  0.81482  0.7453099999999999  0.53218  1.0000
  C   C145      1.0  0.7540099999999998  0.7363400000000001  0.5851599999999999  1.0000
  C   C146      1.0  0.77905  0.7921600000000001  0.4632899999999999  1.0000
  C   C147      1.0  0.05630000000000002  0.63771  0.61783  1.0000
  C   C148      1.0  0.05924  0.54619  0.65348  1.0000
  C   C149      1.0  0.11114999999999993  0.67472  0.65831  1.0000
  C   C150      1.0  0.11088999999999999  0.6580299999999999  0.55197  1.0000
  C   C151      1.0  0.21056999999999995  0.35767999999999994  0.30197  1.0000
  C   C152      1.0  0.26789  0.35247  0.35974  1.0000
  C   C153      1.0  0.22225999999999999  0.3677  0.41185  1.0000
  C   C154      1.0  0.2726699999999999  0.36703  0.4660599999999999  1.0000
  C   C155      1.0  0.37631  0.34982  0.46824  1.0000
  C   C156      1.0  0.4219  0.32944999999999997  0.41753  1.0000
  C   C157      1.0  0.36703  0.33172000000000007  0.36382  1.0000
  C   C158      1.0  0.22051999999999994  0.38510000000000005  0.52116  1.0000
  C   C159      1.0  0.10902999999999997  0.3968499999999999  0.51041  1.0000
  C   C160      1.0  0.25798000000000004  0.46243  0.52216  1.0000
  C   C161      1.0  0.23893999999999996  0.3159100000000001  0.58899  1.0000
  C   C162      1.0  0.52327  0.30551000000000006  0.41870999999999997  1.0000
  C   C163      1.0  0.68776  0.2692300000000001  0.46408  1.0000
  C   C164      1.0  0.7251499999999996  0.25645  0.4033999999999999  1.0000
  C   C165      1.0  0.8288599999999998  0.21732999999999994  0.4191500000000001  1.0000
  C   C166      1.0  0.8972299999999997  0.26832  0.43773  1.0000
  C   C167      1.0  0.85786  0.28728999999999993  0.49569  1.0000
  C   C168      1.0  0.75314  0.32302  0.4816099999999999  1.0000
  C   C169      1.0  0.75453  0.3524  0.57942  1.0000
  C   C170      1.0  0.8240199999999998  0.42641999999999997  0.7647699999999998  1.0000
  C   C171      1.0  0.71657  0.37828  0.62862  1.0000
  C   C172      1.0  0.6144  0.3979100000000001  0.6329399999999998  1.0000
  C   C173      1.0  0.58445  0.4366200000000001  0.67595  1.0000
  C   C174      1.0  0.65616  0.44813999999999987  0.71445  1.0000
  C   C175      1.0  0.7549199999999998  0.4211599999999999  0.71558  1.0000
  C   C176      1.0  0.78463  0.3873999999999999  0.67183  1.0000
  C   C177      1.0  0.4777399999999999  0.46568  0.67821  1.0000
  C   C178      1.0  0.40977  0.39539  0.6998199999999999  1.0000
  C   C179      1.0  0.44787  0.52792  0.60917  1.0000
  C   C180      1.0  0.4632799999999999  0.5061900000000001  0.72716  1.0000
  N   N1        1.0  0.66954  0.64131  0.10426  1.0000
  N   N2        1.0  0.7006899999999998  0.78675  0.08709  1.0000
  N   N3        1.0  0.6544099999999998  0.010799999999999995  0.50804  1.0000
  N   N4        1.0  0.7092300000000001  0.9486499999999999  0.6306  1.0000
  N   N5        1.0  0.84235  0.26887  0.92987  1.0000
  N   N6        1.0  0.7307  0.25963  0.84023  1.0000
  N   N7        1.0  0.76598  0.93677  0.3005399999999999  1.0000
  N   N8        1.0  0.73668  0.8044699999999999  0.28902  1.0000
  N   N9        1.0  0.77787  0.55051  0.8843999999999999  1.0000
  N   N10       1.0  0.73553  0.6478200000000001  0.76535  1.0000
  N   N11       1.0  0.58661  0.30178999999999995  0.46314  1.0000
  N   N12       1.0  0.70359  0.33728  0.53665  1.0000
  O   O1        1.0  0.34864  0.33197  0.12968  1.0000
  O   O2        1.0  0.50993  0.31942  0.1226  1.0000
  O   O3        1.0  0.47164  0.67973  0.08149  1.0000
  O   O4        1.0  0.50255  0.8201  0.08539  1.0000
  O   O5        1.0  0.28826  0.19512  0.25505  1.0000
  O   O6        1.0  0.4457899999999999  0.16997  0.23309  1.0000
  O   O7        1.0  0.46701999999999994  0.039909999999999994  0.54302  1.0000
  O   O8        1.0  0.5235299999999999  0.9718199999999997  0.67063  1.0000
  O   O9        1.0  0.5854100000000001  0.78131  0.97562  1.0000
  O   O10       1.0  0.72408  0.73567  0.94059  1.0000
  O   O11       1.0  0.17658  0.24818000000000004  0.13  1.0000
  O   O12       1.0  0.31172  0.20733000000000001  0.08700999999999999  1.0000
  O   O13       1.0  0.005239999999999999  0.22936000000000006  0.8724199999999999  1.0000
  O   O14       1.0  0.88566  0.20031  0.78966  1.0000
  O   O15       1.0  0.54253  0.21018  0.6026  1.0000
  O   O16       1.0  0.63682  0.11148999999999999  0.59108  1.0000
  O   O17       1.0  0.08917  0.25021000000000004  0.25856  1.0000
  O   O18       1.0  0.92829  0.26194  0.27145  1.0000
  O   O19       1.0  0.9624099999999998  0.89872  0.32093  1.0000
  O   O20       1.0  0.93291  0.76194  0.30607  1.0000
  O   O21       1.0  0.91384  0.42395000000000005  0.29963  1.0000
  O   O22       1.0  0.75149  0.45880000000000004  0.28733  1.0000
  O   O23       1.0  0.98988  0.4148000000000001  0.15949  1.0000
  O   O24       1.0  0.14812  0.3929599999999999  0.13682  1.0000
  O   O25       1.0  0.97083  0.53811  0.84952  1.0000
  O   O26       1.0  0.91938  0.6214899999999999  0.72279  1.0000
  O   O27       1.0  0.8356999999999998  0.7852  0.41752  1.0000
  O   O28       1.0  0.7011399999999998  0.83409  0.45428999999999997  1.0000
  O   O29       1.0  0.12014999999999999  0.3792400000000001  0.30098  1.0000
  O   O30       1.0  0.25677  0.34092999999999996  0.25748  1.0000
  O   O31       1.0  0.42764  0.35257999999999995  0.5169  1.0000
  O   O32       1.0  0.5487  0.38242  0.59753  1.0000
  O   O33       1.0  0.89571  0.37501  0.78476  1.0000
  O   O34       1.0  0.8039499999999999  0.4803800000000001  0.7867199999999999  1.0000
  O   O35       1.0  0.51091  0.15576  0.09524  1.0000
  O   O36       1.0  0.67556  0.13129  0.09432999999999998  1.0000
