data_image0
_chemical_formula_structural       Zn24H72C192N24O96
_chemical_formula_sum              "Zn24 H72 C192 N24 O96"
_cell_length_a       24.34143
_cell_length_b       24.344280000000005
_cell_length_c       24.34461
_cell_angle_alpha    104.1801
_cell_angle_beta     104.17272
_cell_angle_gamma    104.16413

_space_group_name_H-M_alt    "P 1"
_space_group_IT_number       1

loop_
  _space_group_symop_operation_xyz
  'x, y, z'

loop_
  _atom_site_type_symbol
  _atom_site_label
  _atom_site_symmetry_multiplicity
  _atom_site_fract_x
  _atom_site_fract_y
  _atom_site_fract_z
  _atom_site_occupancy
  Zn  Zn1       1.0  0.18074  0.9830200000000002  0.22024999999999995  1.0000
  Zn  Zn2       1.0  0.272  0.013650000000000004  0.31496  1.0000
  Zn  Zn3       1.0  0.50797  0.80104  0.30446  1.0000
  Zn  Zn4       1.0  0.48191000000000006  0.7102300000000001  0.21092  1.0000
  Zn  Zn5       1.0  0.22020999999999996  0.18074  0.98297  1.0000
  Zn  Zn6       1.0  0.31515  0.27193  0.01364  1.0000
  Zn  Zn7       1.0  0.3045  0.50801  0.80108  1.0000
  Zn  Zn8       1.0  0.21088000000000004  0.48192  0.71026  1.0000
  Zn  Zn9       1.0  0.98297  0.22013000000000002  0.18066  1.0000
  Zn  Zn10      1.0  0.013569999999999999  0.31503000000000003  0.2719  1.0000
  Zn  Zn11      1.0  0.80108  0.30438  0.50794  1.0000
  Zn  Zn12      1.0  0.71026  0.21087  0.48189  1.0000
  Zn  Zn13      1.0  0.8192700000000002  0.01697999999999998  0.77975  1.0000
  Zn  Zn14      1.0  0.728  0.9863500000000002  0.68504  1.0000
  Zn  Zn15      1.0  0.4920300000000001  0.19896  0.69554  1.0000
  Zn  Zn16      1.0  0.5181  0.2897700000000001  0.78908  1.0000
  Zn  Zn17      1.0  0.7798  0.8192600000000002  0.01703  1.0000
  Zn  Zn18      1.0  0.6848599999999999  0.72806  0.9863499999999998  1.0000
  Zn  Zn19      1.0  0.6955  0.49198  0.19891999999999999  1.0000
  Zn  Zn20      1.0  0.7891200000000002  0.5180800000000001  0.28974  1.0000
  Zn  Zn21      1.0  0.017030000000000007  0.77987  0.8193399999999998  1.0000
  Zn  Zn22      1.0  0.98644  0.68497  0.7280999999999997  1.0000
  Zn  Zn23      1.0  0.19892000000000004  0.6956200000000001  0.49205999999999994  1.0000
  Zn  Zn24      1.0  0.28974000000000005  0.7891300000000001  0.5181  1.0000
  H   H1        1.0  0.21773999999999996  0.8460400000000001  0.10374  1.0000
  H   H2        1.0  0.34097  0.7458300000000001  0.10075  1.0000
  H   H3        1.0  0.36741  0.8861300000000001  0.26182  1.0000
  H   H4        1.0  0.15448999999999996  0.7434900000000001  0.94438  1.0000
  H   H5        1.0  0.12056999999999997  0.60536  0.7788499999999999  1.0000
  H   H6        1.0  0.27136  0.63701  0.9328  1.0000
  H   H7        1.0  0.34093000000000007  0.57566  0.2362  1.0000
  H   H8        1.0  0.22974000000000006  0.5773100000000001  0.34907  1.0000
  H   H9        1.0  0.3742500000000001  0.73674  0.37998  1.0000
  H   H10       1.0  0.28287  0.4067300000000001  0.14008  1.0000
  H   H11       1.0  0.12874  0.25378  0.10229  1.0000
  H   H12       1.0  0.15521999999999997  0.42167  0.23316  1.0000
  H   H13       1.0  0.10382999999999995  0.21777999999999995  0.8460199999999999  1.0000
  H   H14       1.0  0.10084999999999994  0.341  0.7458899999999999  1.0000
  H   H15       1.0  0.26194999999999996  0.36733999999999994  0.8861799999999999  1.0000
  H   H16       1.0  0.9443400000000001  0.15446999999999997  0.7435299999999999  1.0000
  H   H17       1.0  0.77884  0.12052000000000004  0.60538  1.0000
  H   H18       1.0  0.9328  0.27129  0.63704  1.0000
  H   H19       1.0  0.23617  0.34085  0.57557  1.0000
  H   H20       1.0  0.34912  0.22977  0.5773  1.0000
  H   H21       1.0  0.3799400000000001  0.37432  0.73672  1.0000
  H   H22       1.0  0.14008999999999996  0.28289000000000003  0.40672  1.0000
  H   H23       1.0  0.10229  0.12873  0.25379  1.0000
  H   H24       1.0  0.23315999999999998  0.15523999999999996  0.42171999999999993  1.0000
  H   H25       1.0  0.84598  0.10370000000000003  0.21764  1.0000
  H   H26       1.0  0.74591  0.10071  0.34095  1.0000
  H   H27       1.0  0.88616  0.26181000000000004  0.36727  1.0000
  H   H28       1.0  0.7433400000000001  0.9443900000000002  0.15439999999999998  1.0000
  H   H29       1.0  0.60534  0.77883  0.12060999999999998  1.0000
  H   H30       1.0  0.6370900000000002  0.93276  0.27145  1.0000
  H   H31       1.0  0.57566  0.23623000000000005  0.34091999999999995  1.0000
  H   H32       1.0  0.57732  0.34907000000000005  0.22977  1.0000
  H   H33       1.0  0.7367599999999997  0.37998  0.37427  1.0000
  H   H34       1.0  0.40677  0.14017  0.2828899999999999  1.0000
  H   H35       1.0  0.2538  0.10223  0.12874999999999998  1.0000
  H   H36       1.0  0.42167  0.23317  0.15523  1.0000
  H   H37       1.0  0.78226  0.15396  0.89625  1.0000
  H   H38       1.0  0.6590299999999997  0.25417  0.89925  1.0000
  H   H39       1.0  0.6325999999999999  0.11385999999999999  0.7381799999999998  1.0000
  H   H40       1.0  0.84552  0.25651  0.05562  1.0000
  H   H41       1.0  0.87944  0.39464000000000005  0.22115  1.0000
  H   H42       1.0  0.72864  0.3629800000000001  0.06718999999999999  1.0000
  H   H43       1.0  0.65908  0.42434  0.76379  1.0000
  H   H44       1.0  0.77026  0.42269  0.65092  1.0000
  H   H45       1.0  0.62576  0.26326  0.6200199999999999  1.0000
  H   H46       1.0  0.7171300000000002  0.59327  0.8599099999999998  1.0000
  H   H47       1.0  0.87126  0.74622  0.8977  1.0000
  H   H48       1.0  0.84478  0.57833  0.7668399999999999  1.0000
  H   H49       1.0  0.8961700000000002  0.7822200000000002  0.15397  1.0000
  H   H50       1.0  0.89915  0.65899  0.2541  1.0000
  H   H51       1.0  0.73805  0.63266  0.11381999999999999  1.0000
  H   H52       1.0  0.05565999999999998  0.8455199999999999  0.25647  1.0000
  H   H53       1.0  0.22116  0.87948  0.39461  1.0000
  H   H54       1.0  0.06720000000000001  0.72871  0.36296  1.0000
  H   H55       1.0  0.76384  0.65915  0.42443  1.0000
  H   H56       1.0  0.65089  0.77023  0.4226899999999999  1.0000
  H   H57       1.0  0.62006  0.62567  0.26328  1.0000
  H   H58       1.0  0.85991  0.7171100000000001  0.59328  1.0000
  H   H59       1.0  0.89771  0.8712700000000001  0.74621  1.0000
  H   H60       1.0  0.7668399999999999  0.84475  0.57827  1.0000
  H   H61       1.0  0.15403000000000006  0.8962900000000001  0.78236  1.0000
  H   H62       1.0  0.2541  0.8992800000000001  0.65905  1.0000
  H   H63       1.0  0.11384999999999997  0.73819  0.6327199999999998  1.0000
  H   H64       1.0  0.25665999999999994  0.055609999999999965  0.8455999999999999  1.0000
  H   H65       1.0  0.39466  0.22116999999999998  0.8793899999999999  1.0000
  H   H66       1.0  0.36291  0.06723999999999994  0.7285499999999998  1.0000
  H   H67       1.0  0.42434  0.7637700000000001  0.65907  1.0000
  H   H68       1.0  0.42269  0.65093  0.77023  1.0000
  H   H69       1.0  0.26324  0.6200200000000001  0.62573  1.0000
  H   H70       1.0  0.59323  0.85983  0.7171099999999999  1.0000
  H   H71       1.0  0.74621  0.89777  0.8712499999999997  1.0000
  H   H72       1.0  0.5783300000000001  0.7668300000000001  0.84477  1.0000
  C   C1        1.0  0.29020999999999997  0.87132  0.18642999999999998  1.0000
  C   C2        1.0  0.25765  0.83771  0.12653  1.0000
  C   C3        1.0  0.27599  0.79298  0.09523999999999998  1.0000
  C   C4        1.0  0.3270900000000001  0.7811600000000002  0.12445999999999997  1.0000
  C   C5        1.0  0.35967999999999994  0.8148699999999999  0.18440999999999994  1.0000
  C   C6        1.0  0.34167  0.86032  0.2153  1.0000
  C   C7        1.0  0.26908000000000004  0.9180600000000001  0.21894  1.0000
  C   C8        1.0  0.41274  0.8009100000000002  0.21658  1.0000
  C   C9        1.0  0.21615999999999994  0.6927500000000001  0.9455099999999999  1.0000
  C   C10       1.0  0.16596000000000008  0.7073300000000001  0.91864  1.0000
  C   C11       1.0  0.13158000000000006  0.67547  0.85885  1.0000
  C   C12       1.0  0.14714000000000005  0.6294400000000001  0.82547  1.0000
  C   C13       1.0  0.19767999999999997  0.61576  0.85178  1.0000
  C   C14       1.0  0.23196999999999995  0.64728  0.9118899999999998  1.0000
  C   C15       1.0  0.07953999999999994  0.69195  0.8288099999999998  1.0000
  C   C16       1.0  0.21649  0.56933  0.81541  1.0000
  C   C17       1.0  0.36333  0.65929  0.30671  1.0000
  C   C18       1.0  0.33005  0.5994400000000001  0.27389  1.0000
  C   C19       1.0  0.28192  0.57007  0.28971  1.0000
  C   C20       1.0  0.26718  0.60077  0.33764  1.0000
  C   C21       1.0  0.30024  0.6608  0.37045999999999996  1.0000
  C   C22       1.0  0.34852  0.69002  0.35507  1.0000
  C   C23       1.0  0.41421  0.6913  0.2896  1.0000
  C   C24       1.0  0.28278  0.69274  0.42093  1.0000
  C   C25       1.0  0.24155  0.38655  0.14767  1.0000
  C   C26       1.0  0.20798999999999998  0.32631  0.11649  1.0000
  C   C27       1.0  0.15486  0.30054  0.12653  1.0000
  C   C28       1.0  0.13602  0.33498  0.16885  1.0000
  C   C29       1.0  0.16961999999999997  0.39505000000000007  0.20024  1.0000
  C   C30       1.0  0.22244  0.42101000000000005  0.18937999999999997  1.0000
  C   C31       1.0  0.22993  0.28976  0.07346  1.0000
  C   C32       1.0  0.08121  0.30724  0.1826  1.0000
  C   C33       1.0  0.18650999999999998  0.29022  0.87134  1.0000
  C   C34       1.0  0.12661  0.25769  0.83772  1.0000
  C   C35       1.0  0.09530000000000001  0.27601  0.7929899999999999  1.0000
  C   C36       1.0  0.12456999999999999  0.32708  0.7811799999999999  1.0000
  C   C37       1.0  0.18454999999999996  0.35964999999999997  0.8148699999999999  1.0000
  C   C38       1.0  0.21542999999999995  0.34165  0.8603399999999999  1.0000
  C   C39       1.0  0.21894999999999995  0.26905  0.9181  1.0000
  C   C40       1.0  0.2167  0.41275  0.80098  1.0000
  C   C41       1.0  0.9455099999999999  0.21611  0.6927899999999999  1.0000
  C   C42       1.0  0.91861  0.16593000000000002  0.70735  1.0000
  C   C43       1.0  0.8588100000000001  0.13154  0.67548  1.0000
  C   C44       1.0  0.82546  0.14711  0.62945  1.0000
  C   C45       1.0  0.8517699999999999  0.19764  0.61578  1.0000
  C   C46       1.0  0.9118899999999998  0.23192000000000002  0.6473199999999999  1.0000
  C   C47       1.0  0.82877  0.07951000000000001  0.69194  1.0000
  C   C48       1.0  0.81538  0.21638  0.56931  1.0000
  C   C49       1.0  0.30671  0.36339  0.65928  1.0000
  C   C50       1.0  0.27388  0.33006  0.59942  1.0000
  C   C51       1.0  0.28971  0.28192  0.57007  1.0000
  C   C52       1.0  0.33765  0.2671899999999999  0.6007499999999999  1.0000
  C   C53       1.0  0.37044  0.30028  0.66079  1.0000
  C   C54       1.0  0.35505  0.34857000000000005  0.69  1.0000
  C   C55       1.0  0.28965  0.41434  0.69128  1.0000
  C   C56       1.0  0.42095000000000005  0.28286  0.69271  1.0000
  C   C57       1.0  0.14768  0.24156  0.38654  1.0000
  C   C58       1.0  0.1165  0.20798  0.32631  1.0000
  C   C59       1.0  0.12654  0.15484  0.30055  1.0000
  C   C60       1.0  0.16886000000000004  0.136  0.33501  1.0000
  C   C61       1.0  0.20025  0.16963000000000003  0.39506999999999987  1.0000
  C   C62       1.0  0.18939999999999999  0.22245  0.42101  1.0000
  C   C63       1.0  0.07347  0.22991  0.28972  1.0000
  C   C64       1.0  0.18265000000000003  0.08121  0.30729  1.0000
  C   C65       1.0  0.87128  0.18637  0.29014  1.0000
  C   C66       1.0  0.83767  0.12648  0.25756  1.0000
  C   C67       1.0  0.79296  0.09520000000000002  0.27591  1.0000
  C   C68       1.0  0.7811700000000001  0.12445000000000002  0.32701  1.0000
  C   C69       1.0  0.81485  0.18440999999999996  0.3595999999999999  1.0000
  C   C70       1.0  0.8603  0.21527999999999997  0.34158999999999995  1.0000
  C   C71       1.0  0.9180400000000002  0.21891000000000005  0.26906  1.0000
  C   C72       1.0  0.8009800000000001  0.21658000000000002  0.41271  1.0000
  C   C73       1.0  0.6927500000000001  0.9455100000000002  0.21616999999999997  1.0000
  C   C74       1.0  0.70727  0.91863  0.16594  1.0000
  C   C75       1.0  0.67545  0.85883  0.13157  1.0000
  C   C76       1.0  0.62943  0.82546  0.14715  1.0000
  C   C77       1.0  0.61579  0.85179  0.19770999999999997  1.0000
  C   C78       1.0  0.64733  0.9118900000000001  0.23202  1.0000
  C   C79       1.0  0.69192  0.8288  0.07954999999999998  1.0000
  C   C80       1.0  0.5694  0.81543  0.21656  1.0000
  C   C81       1.0  0.6593299999999997  0.30673000000000006  0.36340999999999996  1.0000
  C   C82       1.0  0.59947  0.27392000000000005  0.33009  1.0000
  C   C83       1.0  0.57009  0.28973  0.28196  1.0000
  C   C84       1.0  0.60077  0.33765  0.26721  1.0000
  C   C85       1.0  0.6608099999999999  0.3704400000000001  0.3002699999999999  1.0000
  C   C86       1.0  0.6900400000000001  0.35506  0.3485599999999999  1.0000
  C   C87       1.0  0.6913  0.2896  0.41432  1.0000
  C   C88       1.0  0.69273  0.4209  0.28279  1.0000
  C   C89       1.0  0.3865700000000001  0.14776  0.24157  1.0000
  C   C90       1.0  0.32634  0.11656000000000001  0.208  1.0000
  C   C91       1.0  0.30055  0.12654  0.15484  1.0000
  C   C92       1.0  0.33497  0.16882000000000003  0.13596  1.0000
  C   C93       1.0  0.39504  0.20023  0.16959  1.0000
  C   C94       1.0  0.42101  0.18943  0.22243  1.0000
  C   C95       1.0  0.28989  0.07347000000000001  0.22992999999999997  1.0000
  C   C96       1.0  0.30724  0.18257  0.08114  1.0000
  C   C97       1.0  0.7097900000000001  0.12867999999999996  0.81357  1.0000
  C   C98       1.0  0.74235  0.16229  0.87346  1.0000
  C   C99       1.0  0.7240099999999999  0.20702  0.90476  1.0000
  C   C100      1.0  0.6729100000000001  0.21884000000000003  0.87554  1.0000
  C   C101      1.0  0.6403199999999999  0.18512999999999996  0.81558  1.0000
  C   C102      1.0  0.65833  0.13968000000000005  0.7847  1.0000
  C   C103      1.0  0.73092  0.08192999999999999  0.7810499999999999  1.0000
  C   C104      1.0  0.58726  0.19908999999999996  0.7834199999999999  1.0000
  C   C105      1.0  0.7838499999999999  0.30725  0.054479999999999994  1.0000
  C   C106      1.0  0.83404  0.29267  0.08135999999999999  1.0000
  C   C107      1.0  0.86843  0.32452  0.14115  1.0000
  C   C108      1.0  0.85286  0.37056  0.17452  1.0000
  C   C109      1.0  0.80232  0.3842400000000001  0.14822  1.0000
  C   C110      1.0  0.76804  0.35272  0.0881  1.0000
  C   C111      1.0  0.9204599999999998  0.30805  0.17119  1.0000
  C   C112      1.0  0.78351  0.43067000000000005  0.18457999999999997  1.0000
  C   C113      1.0  0.63667  0.34071  0.69328  1.0000
  C   C114      1.0  0.66995  0.4005599999999999  0.7260999999999999  1.0000
  C   C115      1.0  0.71808  0.42993  0.7102899999999999  1.0000
  C   C116      1.0  0.73283  0.39923  0.66235  1.0000
  C   C117      1.0  0.6997599999999999  0.3392  0.62954  1.0000
  C   C118      1.0  0.65148  0.30998  0.64492  1.0000
  C   C119      1.0  0.58579  0.3087  0.7104  1.0000
  C   C120      1.0  0.71722  0.30726  0.5790699999999999  1.0000
  C   C121      1.0  0.75845  0.6134500000000002  0.85233  1.0000
  C   C122      1.0  0.7920199999999998  0.6736900000000001  0.8835099999999998  1.0000
  C   C123      1.0  0.84514  0.69946  0.87346  1.0000
  C   C124      1.0  0.86398  0.66502  0.83115  1.0000
  C   C125      1.0  0.83038  0.60495  0.7997499999999998  1.0000
  C   C126      1.0  0.7775599999999997  0.5789800000000002  0.81062  1.0000
  C   C127      1.0  0.7700799999999999  0.71024  0.9265399999999998  1.0000
  C   C128      1.0  0.9187900000000001  0.69276  0.81739  1.0000
  C   C129      1.0  0.8135  0.70978  0.12866  1.0000
  C   C130      1.0  0.8733900000000001  0.7423100000000001  0.16227  1.0000
  C   C131      1.0  0.9046999999999998  0.72399  0.207  1.0000
  C   C132      1.0  0.87543  0.67292  0.21882  1.0000
  C   C133      1.0  0.81545  0.64035  0.18512999999999996  1.0000
  C   C134      1.0  0.7845799999999999  0.65835  0.13966  1.0000
  C   C135      1.0  0.78105  0.7309500000000002  0.0819  1.0000
  C   C136      1.0  0.7833000000000001  0.58724  0.19902  1.0000
  C   C137      1.0  0.05450000000000005  0.78389  0.3072  1.0000
  C   C138      1.0  0.08138999999999993  0.83407  0.29264  1.0000
  C   C139      1.0  0.14119000000000004  0.86846  0.32452  1.0000
  C   C140      1.0  0.17453999999999997  0.85289  0.37054  1.0000
  C   C141      1.0  0.14822999999999997  0.80235  0.38421  1.0000
  C   C142      1.0  0.08811000000000001  0.76808  0.35268  1.0000
  C   C143      1.0  0.17123  0.92049  0.30806  1.0000
  C   C144      1.0  0.18461999999999998  0.78361  0.43069  1.0000
  C   C145      1.0  0.6933  0.6366  0.34072  1.0000
  C   C146      1.0  0.72612  0.66994  0.40057  1.0000
  C   C147      1.0  0.7103  0.7180800000000002  0.4299299999999999  1.0000
  C   C148      1.0  0.6623500000000001  0.7328100000000001  0.39925  1.0000
  C   C149      1.0  0.62956  0.69972  0.33920999999999996  1.0000
  C   C150      1.0  0.64495  0.6514300000000001  0.30999  1.0000
  C   C151      1.0  0.71035  0.58566  0.30871  1.0000
  C   C152      1.0  0.57905  0.7171400000000001  0.30728  1.0000
  C   C153      1.0  0.85232  0.75844  0.61345  1.0000
  C   C154      1.0  0.88351  0.7920200000000001  0.6736899999999999  1.0000
  C   C155      1.0  0.87346  0.84516  0.69945  1.0000
  C   C156      1.0  0.83114  0.8639900000000001  0.6649899999999999  1.0000
  C   C157      1.0  0.7997500000000001  0.83037  0.60492  1.0000
  C   C158      1.0  0.81061  0.7775400000000001  0.57898  1.0000
  C   C159      1.0  0.92653  0.77009  0.71028  1.0000
  C   C160      1.0  0.8173500000000001  0.9187900000000002  0.69271  1.0000
  C   C161      1.0  0.12872  0.81363  0.70985  1.0000
  C   C162      1.0  0.16233000000000003  0.8735200000000002  0.74243  1.0000
  C   C163      1.0  0.20705000000000007  0.9048000000000003  0.7240899999999999  1.0000
  C   C164      1.0  0.21884000000000006  0.8755500000000003  0.67298  1.0000
  C   C165      1.0  0.18514999999999995  0.81559  0.64039  1.0000
  C   C166      1.0  0.1397  0.78472  0.6584  1.0000
  C   C167      1.0  0.08196000000000003  0.7810900000000001  0.7309399999999998  1.0000
  C   C168      1.0  0.19902000000000009  0.7834100000000003  0.58729  1.0000
  C   C169      1.0  0.3072599999999999  0.05448999999999998  0.7838299999999999  1.0000
  C   C170      1.0  0.29274  0.08136999999999994  0.8340599999999999  1.0000
  C   C171      1.0  0.3245600000000001  0.14117  0.86842  1.0000
  C   C172      1.0  0.37056999999999995  0.17454000000000003  0.8528499999999999  1.0000
  C   C173      1.0  0.38421  0.14820999999999998  0.8022899999999998  1.0000
  C   C174      1.0  0.35268  0.08811  0.76798  1.0000
  C   C175      1.0  0.30807999999999996  0.17120000000000002  0.92045  1.0000
  C   C176      1.0  0.4306  0.18456999999999993  0.7834399999999998  1.0000
  C   C177      1.0  0.34068  0.69327  0.63659  1.0000
  C   C178      1.0  0.40054000000000006  0.7260800000000001  0.6699  1.0000
  C   C179      1.0  0.42991  0.71027  0.71804  1.0000
  C   C180      1.0  0.3992300000000001  0.6623500000000001  0.73279  1.0000
  C   C181      1.0  0.33919  0.62956  0.69973  1.0000
  C   C182      1.0  0.30996  0.64494  0.65143  1.0000
  C   C183      1.0  0.3087  0.7104  0.58568  1.0000
  C   C184      1.0  0.30728  0.57909  0.7172  1.0000
  C   C185      1.0  0.61343  0.8522400000000001  0.75842  1.0000
  C   C186      1.0  0.67366  0.88344  0.792  1.0000
  C   C187      1.0  0.69946  0.8734500000000001  0.84516  1.0000
  C   C188      1.0  0.6650299999999999  0.83117  0.8640299999999997  1.0000
  C   C189      1.0  0.6049600000000002  0.7997600000000002  0.83041  1.0000
  C   C190      1.0  0.57899  0.8105700000000002  0.77756  1.0000
  C   C191      1.0  0.71012  0.9265300000000001  0.77007  1.0000
  C   C192      1.0  0.6927600000000002  0.8174200000000001  0.91886  1.0000
  N   N1        1.0  0.23862000000000003  0.7627500000000002  0.03499  1.0000
  N   N2        1.0  0.25457  0.7219400000000001  0.005799999999999999  1.0000
  N   N3        1.0  0.24468999999999996  0.5097700000000001  0.2602  1.0000
  N   N4        1.0  0.26019  0.48125  0.21860999999999997  1.0000
  N   N5        1.0  0.03503  0.23862000000000003  0.7628  1.0000
  N   N6        1.0  0.005800000000000008  0.25453  0.72198  1.0000
  N   N7        1.0  0.26021  0.2447  0.50976  1.0000
  N   N8        1.0  0.21861999999999995  0.2602  0.48124999999999996  1.0000
  N   N9        1.0  0.7627400000000002  0.034940000000000006  0.23858  1.0000
  N   N10       1.0  0.72192  0.005799999999999999  0.25455  1.0000
  N   N11       1.0  0.5097899999999999  0.26022  0.24471  1.0000
  N   N12       1.0  0.48125  0.21864  0.2602  1.0000
  N   N13       1.0  0.76138  0.23723999999999995  0.9650099999999999  1.0000
  N   N14       1.0  0.7454299999999999  0.2780599999999999  0.99419  1.0000
  N   N15       1.0  0.7553100000000001  0.49023000000000005  0.73979  1.0000
  N   N16       1.0  0.73981  0.5187500000000002  0.7813899999999999  1.0000
  N   N17       1.0  0.96497  0.76138  0.2372  1.0000
  N   N18       1.0  0.9942  0.7454600000000001  0.27801  1.0000
  N   N19       1.0  0.73979  0.7553000000000001  0.49024  1.0000
  N   N20       1.0  0.7813899999999999  0.7398  0.5187499999999999  1.0000
  N   N21       1.0  0.23726000000000008  0.96506  0.76141  1.0000
  N   N22       1.0  0.27807999999999994  0.99419  0.7454499999999998  1.0000
  N   N23       1.0  0.49021  0.73978  0.75528  1.0000
  N   N24       1.0  0.5187500000000002  0.78135  0.7398  1.0000
  O   O1        1.0  0.2188  0.92163  0.19078  1.0000
  O   O2        1.0  0.30227  0.95057  0.27214  1.0000
  O   O3        1.0  0.42246  0.7545  0.18814999999999998  1.0000
  O   O4        1.0  0.44412  0.8351800000000003  0.27  1.0000
  O   O5        1.0  0.07162000000000003  0.73897  0.85817  1.0000
  O   O6        1.0  0.04757999999999999  0.65806  0.77527  1.0000
  O   O7        1.0  0.18242999999999998  0.54005  0.76139  1.0000
  O   O8        1.0  0.26607  0.56318  0.84137  1.0000
  O   O9        1.0  0.42203  0.66376  0.24152  1.0000
  O   O10       1.0  0.44588  0.74439  0.32442  1.0000
  O   O11       1.0  0.31604  0.74648  0.45218  1.0000
  O   O12       1.0  0.23542  0.6636299999999999  0.42877999999999994  1.0000
  O   O13       1.0  0.28236999999999995  0.31463  0.07224  1.0000
  O   O14       1.0  0.19522000000000006  0.23680000000000007  0.04171999999999999  1.0000
  O   O15       1.0  0.04864  0.25353  0.14982999999999996  1.0000
  O   O16       1.0  0.07142  0.33912  0.22698999999999997  1.0000
  O   O17       1.0  0.19072999999999993  0.21875999999999993  0.9215699999999998  1.0000
  O   O18       1.0  0.27213  0.30223  0.9506999999999999  1.0000
  O   O19       1.0  0.18819999999999998  0.42259000000000013  0.7547  1.0000
  O   O20       1.0  0.27019  0.4440500000000001  0.83515  1.0000
  O   O21       1.0  0.85818  0.0716  0.73894  1.0000
  O   O22       1.0  0.77522  0.04751999999999999  0.65809  1.0000
  O   O23       1.0  0.76138  0.18229  0.53997  1.0000
  O   O24       1.0  0.84134  0.26596000000000003  0.56316  1.0000
  O   O25       1.0  0.24149  0.4220400000000001  0.6637499999999998  1.0000
  O   O26       1.0  0.32454  0.4461700000000001  0.74431  1.0000
  O   O27       1.0  0.45216  0.3161100000000001  0.74647  1.0000
  O   O28       1.0  0.42893  0.23557  0.66359  1.0000
  O   O29       1.0  0.07217  0.28231  0.31462  1.0000
  O   O30       1.0  0.0418  0.19523  0.23674  1.0000
  O   O31       1.0  0.1498  0.04854000000000001  0.25363  1.0000
  O   O32       1.0  0.22716  0.07154000000000003  0.33911  1.0000
  O   O33       1.0  0.92165  0.19074000000000002  0.21881  1.0000
  O   O34       1.0  0.9505  0.27212  0.30223999999999995  1.0000
  O   O35       1.0  0.75466  0.18814000000000003  0.42251  1.0000
  O   O36       1.0  0.83522  0.27003  0.4440399999999999  1.0000
  O   O37       1.0  0.73895  0.85817  0.07165  1.0000
  O   O38       1.0  0.65803  0.7752600000000001  0.04757  1.0000
  O   O39       1.0  0.5401100000000001  0.7614000000000001  0.18254  1.0000
  O   O40       1.0  0.5632599999999998  0.84139  0.26614  1.0000
  O   O41       1.0  0.66375  0.24147000000000005  0.42202  1.0000
  O   O42       1.0  0.7443499999999998  0.32444000000000006  0.44614  1.0000
  O   O43       1.0  0.74646  0.45217  0.31606  1.0000
  O   O44       1.0  0.6636  0.4287400000000001  0.23542  1.0000
  O   O45       1.0  0.31489  0.07219  0.28232  1.0000
  O   O46       1.0  0.23691000000000004  0.04172  0.19528999999999996  1.0000
  O   O47       1.0  0.25355  0.14981000000000003  0.048489999999999985  1.0000
  O   O48       1.0  0.33915  0.22699  0.07142  1.0000
  O   O49       1.0  0.7812  0.07837000000000002  0.80921  1.0000
  O   O50       1.0  0.69774  0.04941999999999999  0.72786  1.0000
  O   O51       1.0  0.57755  0.24549999999999997  0.8118499999999998  1.0000
  O   O52       1.0  0.55589  0.16482000000000002  0.73  1.0000
  O   O53       1.0  0.92839  0.26103  0.14182  1.0000
  O   O54       1.0  0.95243  0.34194000000000013  0.22473  1.0000
  O   O55       1.0  0.8175800000000002  0.4599500000000001  0.23861  1.0000
  O   O56       1.0  0.73394  0.43682000000000004  0.15861999999999998  1.0000
  O   O57       1.0  0.57797  0.33624  0.75847  1.0000
  O   O58       1.0  0.55413  0.25561  0.67557  1.0000
  O   O59       1.0  0.68396  0.25352  0.54782  1.0000
  O   O60       1.0  0.76459  0.33637000000000006  0.57121  1.0000
  O   O61       1.0  0.71763  0.6853700000000001  0.92776  1.0000
  O   O62       1.0  0.80478  0.7632  0.95827  1.0000
  O   O63       1.0  0.9513599999999998  0.74647  0.8501699999999999  1.0000
  O   O64       1.0  0.9285800000000001  0.6608800000000002  0.77301  1.0000
  O   O65       1.0  0.80928  0.78124  0.07843  1.0000
  O   O66       1.0  0.72788  0.6977700000000002  0.0493  1.0000
  O   O67       1.0  0.8118  0.57741  0.24529999999999996  1.0000
  O   O68       1.0  0.7298199999999999  0.5559400000000001  0.16484  1.0000
  O   O69       1.0  0.14183  0.9284  0.26106  1.0000
  O   O70       1.0  0.22478000000000004  0.9524800000000001  0.34191  1.0000
  O   O71       1.0  0.23863000000000006  0.8177000000000002  0.46002  1.0000
  O   O72       1.0  0.15866  0.73404  0.43684  1.0000
  O   O73       1.0  0.7585099999999999  0.57796  0.33624  1.0000
  O   O74       1.0  0.67546  0.55383  0.25569  1.0000
  O   O75       1.0  0.54784  0.6838800000000003  0.25352  1.0000
  O   O76       1.0  0.5710800000000003  0.7644300000000002  0.33641  1.0000
  O   O77       1.0  0.92784  0.71768  0.6853799999999999  1.0000
  O   O78       1.0  0.9582000000000002  0.8047700000000001  0.76325  1.0000
  O   O79       1.0  0.8502  0.9514600000000002  0.74637  1.0000
  O   O80       1.0  0.77284  0.9284600000000002  0.66088  1.0000
  O   O81       1.0  0.07835000000000003  0.8092600000000001  0.7811899999999998  1.0000
  O   O82       1.0  0.04949999999999995  0.7278799999999997  0.6977599999999999  1.0000
  O   O83       1.0  0.24535  0.81186  0.57748  1.0000
  O   O84       1.0  0.16478  0.72996  0.55596  1.0000
  O   O85       1.0  0.26106  0.14182000000000003  0.92835  1.0000
  O   O86       1.0  0.34197  0.22473  0.95242  1.0000
  O   O87       1.0  0.45989  0.2386  0.81746  1.0000
  O   O88       1.0  0.4367399999999999  0.15860999999999997  0.7338499999999999  1.0000
  O   O89       1.0  0.33625  0.75853  0.57798  1.0000
  O   O90       1.0  0.25565999999999994  0.67555  0.5538499999999998  1.0000
  O   O91       1.0  0.25354  0.54783  0.68394  1.0000
  O   O92       1.0  0.33639999999999987  0.57125  0.7645699999999999  1.0000
  O   O93       1.0  0.68511  0.9278100000000001  0.71768  1.0000
  O   O94       1.0  0.76309  0.9582800000000001  0.8046999999999999  1.0000
  O   O95       1.0  0.74645  0.8501900000000002  0.9515  1.0000
  O   O96       1.0  0.66085  0.7730000000000002  0.92857  1.0000
