data_image0
_chemical_formula_structural       Cu24H144C264N48O120
_chemical_formula_sum              "Cu24 H144 C264 N48 O120"
_cell_length_a       30.83038
_cell_length_b       30.831110000000002
_cell_length_c       31.4588
_cell_angle_alpha    119.34088
_cell_angle_beta     119.35065
_cell_angle_gamma    89.98999999999998

_space_group_name_H-M_alt    "P 1"
_space_group_IT_number       1

loop_
  _space_group_symop_operation_xyz
  'x, y, z'

loop_
  _atom_site_type_symbol
  _atom_site_label
  _atom_site_symmetry_multiplicity
  _atom_site_fract_x
  _atom_site_fract_y
  _atom_site_fract_z
  _atom_site_occupancy
  Cu  Cu1       1.0  0.7281  0.47287  0.25863  1.0000
  Cu  Cu2       1.0  0.7965000000000001  0.46255999999999997  0.33357  1.0000
  Cu  Cu3       1.0  0.53063  0.7858599999999998  0.25898  1.0000
  Cu  Cu4       1.0  0.53719  0.87123  0.33366  1.0000
  Cu  Cu5       1.0  0.78583  0.72827  0.25884  1.0000
  Cu  Cu6       1.0  0.87108  0.79651  0.33355  1.0000
  Cu  Cu7       1.0  0.47291  0.53054  0.25875  1.0000
  Cu  Cu8       1.0  0.4625600000000001  0.53726  0.33375  1.0000
  Cu  Cu9       1.0  0.2718900000000001  0.52712  0.7413700000000001  1.0000
  Cu  Cu10      1.0  0.20349000000000003  0.5374300000000001  0.6664300000000001  1.0000
  Cu  Cu11      1.0  0.46936  0.21413000000000004  0.74101  1.0000
  Cu  Cu12      1.0  0.46281  0.12876  0.66634  1.0000
  Cu  Cu13      1.0  0.21417  0.27173  0.74115  1.0000
  Cu  Cu14      1.0  0.12890999999999994  0.20349000000000006  0.66645  1.0000
  Cu  Cu15      1.0  0.5270800000000001  0.46946000000000004  0.7412400000000001  1.0000
  Cu  Cu16      1.0  0.53744  0.46273  0.66624  1.0000
  Cu  Cu17      1.0  0.57135  0.83395  0.00011  1.0000
  Cu  Cu18      1.0  0.55535  0.75646  4e-05  1.0000
  Cu  Cu19      1.0  0.42865  0.16604999999999998  0.99989  1.0000
  Cu  Cu20      1.0  0.44465  0.24353999999999998  0.99996  1.0000
  Cu  Cu21      1.0  0.16613  0.57135  5e-05  1.0000
  Cu  Cu22      1.0  0.24362  0.5553699999999998  8e-05  1.0000
  Cu  Cu23      1.0  0.83387  0.42865  0.9999500000000001  1.0000
  Cu  Cu24      1.0  0.75638  0.44464  0.99992  1.0000
  H   H1        1.0  0.86934  0.9683499999999999  0.26712  1.0000
  H   H2        1.0  0.89285  0.04696  0.29117  1.0000
  H   H3        1.0  0.009339999999999998  0.31791  0.46752  1.0000
  H   H4        1.0  0.9299  0.26921  0.39792000000000005  1.0000
  H   H5        1.0  0.7239300000000002  0.12501000000000004  0.20014000000000004  1.0000
  H   H6        1.0  0.66435  0.15944  0.17289  1.0000
  H   H7        1.0  0.7063400000000002  0.77589  0.14115  1.0000
  H   H8        1.0  0.85506  0.89791  0.27353  1.0000
  H   H9        1.0  0.73316  0.90964  0.13559  1.0000
  H   H10       1.0  0.19888000000000006  0.37489  0.68616  1.0000
  H   H11       1.0  0.08674999999999994  0.38437  0.54239  1.0000
  H   H12       1.0  0.05548000000000002  0.24654999999999988  0.54053  1.0000
  H   H13       1.0  0.60162  0.32694  0.14736  1.0000
  H   H14       1.0  0.58929  0.17448  0.11796  1.0000
  H   H15       1.0  0.73734  0.29908  0.25386  1.0000
  H   H16       1.0  0.93371  0.13395  0.35172  1.0000
  H   H17       1.0  0.8456200000000003  0.23739999999999997  0.32506  1.0000
  H   H18       1.0  0.76867  0.07032000000000001  0.21299  1.0000
  H   H19       1.0  0.39779  0.29888  0.2672  1.0000
  H   H20       1.0  0.39828  0.24414  0.29115  1.0000
  H   H21       1.0  0.45802000000000004  0.14947  0.46741000000000005  1.0000
  H   H22       1.0  0.4680300000000001  0.12871999999999997  0.39799000000000007  1.0000
  H   H23       1.0  0.47552  0.07468  0.19968  1.0000
  H   H24       1.0  0.50778  0.013099999999999992  0.17222  1.0000
  H   H25       1.0  0.4347900000000001  0.36505  0.14105  1.0000
  H   H26       1.0  0.41863  0.37563  0.27368  1.0000
  H   H27       1.0  0.40249000000000007  0.22595  0.13561  1.0000
  H   H28       1.0  0.48743  0.31095  0.6861  1.0000
  H   H29       1.0  0.45544  0.15779  0.54221  1.0000
  H   H30       1.0  0.48515  0.29353  0.54024  1.0000
  H   H31       1.0  0.54572  0.82054  0.14759  1.0000
  H   H32       1.0  0.52896  0.94363  0.11824000000000001  1.0000
  H   H33       1.0  0.51669  0.95502  0.25411  1.0000
  H   H34       1.0  0.41794  0.21774  0.35176  1.0000
  H   H35       1.0  0.47979  0.08793  0.32542  1.0000
  H   H36       1.0  0.44432  0.14298000000000002  0.21318000000000004  1.0000
  H   H37       1.0  0.29884  0.86934  0.26717  1.0000
  H   H38       1.0  0.24413000000000004  0.89277  0.29109  1.0000
  H   H39       1.0  0.14953  0.00926999999999998  0.46751  1.0000
  H   H40       1.0  0.12866000000000005  0.92989  0.39803  1.0000
  H   H41       1.0  0.07525000000000001  0.72397  0.20019  1.0000
  H   H42       1.0  0.013470000000000001  0.66435  0.1729  1.0000
  H   H43       1.0  0.36521  0.7063899999999997  0.14117  1.0000
  H   H44       1.0  0.37555  0.85509  0.27366  1.0000
  H   H45       1.0  0.226  0.73306  0.13568  1.0000
  H   H46       1.0  0.3110100000000001  0.19884  0.68605  1.0000
  H   H47       1.0  0.15786999999999998  0.08667  0.5423  1.0000
  H   H48       1.0  0.29367  0.05530000000000005  0.5403  1.0000
  H   H49       1.0  0.82046  0.60174  0.14756  1.0000
  H   H50       1.0  0.94341  0.58922  0.11798  1.0000
  H   H51       1.0  0.95484  0.73732  0.25394  1.0000
  H   H52       1.0  0.21771000000000007  0.93369  0.35176  1.0000
  H   H53       1.0  0.08763  0.8455799999999999  0.32509  1.0000
  H   H54       1.0  0.14267  0.76872  0.21300000000000002  1.0000
  H   H55       1.0  0.96834  0.39769  0.2671  1.0000
  H   H56       1.0  0.04704000000000002  0.39816  0.29113  1.0000
  H   H57       1.0  0.3178900000000001  0.45812  0.46747000000000005  1.0000
  H   H58       1.0  0.26922  0.4680199999999999  0.39798  1.0000
  H   H59       1.0  0.12508000000000002  0.47584  0.19989000000000004  1.0000
  H   H60       1.0  0.15927  0.50812  0.17245  1.0000
  H   H61       1.0  0.77592  0.43483  0.14101  1.0000
  H   H62       1.0  0.89785  0.41856  0.27351  1.0000
  H   H63       1.0  0.9096000000000002  0.40229  0.13546  1.0000
  H   H64       1.0  0.37486  0.48741  0.68612  1.0000
  H   H65       1.0  0.38436  0.45553999999999994  0.54231  1.0000
  H   H66       1.0  0.24659  0.48523  0.54048  1.0000
  H   H67       1.0  0.32679  0.54569  0.14728  1.0000
  H   H68       1.0  0.17445  0.52884  0.11813  1.0000
  H   H69       1.0  0.29906  0.51663  0.25398  1.0000
  H   H70       1.0  0.13409  0.41798  0.35178  1.0000
  H   H71       1.0  0.2375  0.47965999999999986  0.3253  1.0000
  H   H72       1.0  0.07036  0.44438000000000005  0.21306  1.0000
  H   H73       1.0  0.13066  0.031639999999999995  0.73288  1.0000
  H   H74       1.0  0.10714000000000004  0.9530399999999996  0.70883  1.0000
  H   H75       1.0  0.99066  0.68208  0.53248  1.0000
  H   H76       1.0  0.07010000000000005  0.7307799999999998  0.60208  1.0000
  H   H77       1.0  0.27606  0.87498  0.79985  1.0000
  H   H78       1.0  0.33564  0.84055  0.82711  1.0000
  H   H79       1.0  0.2936500000000001  0.22410000000000005  0.8588500000000001  1.0000
  H   H80       1.0  0.14493  0.10209000000000001  0.72647  1.0000
  H   H81       1.0  0.26683000000000007  0.09036000000000002  0.8644100000000001  1.0000
  H   H82       1.0  0.80111  0.62511  0.31384  1.0000
  H   H83       1.0  0.91324  0.61562  0.4576  1.0000
  H   H84       1.0  0.94452  0.75345  0.45947  1.0000
  H   H85       1.0  0.39837  0.67306  0.85264  1.0000
  H   H86       1.0  0.4107000000000001  0.82552  0.88203  1.0000
  H   H87       1.0  0.26265  0.70092  0.74614  1.0000
  H   H88       1.0  0.06628  0.86605  0.64828  1.0000
  H   H89       1.0  0.15436999999999995  0.7626  0.67494  1.0000
  H   H90       1.0  0.23132000000000005  0.9296800000000001  0.7870000000000001  1.0000
  H   H91       1.0  0.6022  0.70111  0.7328  1.0000
  H   H92       1.0  0.6017100000000002  0.75585  0.70885  1.0000
  H   H93       1.0  0.54197  0.85053  0.53259  1.0000
  H   H94       1.0  0.53196  0.87127  0.60201  1.0000
  H   H95       1.0  0.5244700000000002  0.9253199999999999  0.80032  1.0000
  H   H96       1.0  0.4922100000000002  0.9869  0.82778  1.0000
  H   H97       1.0  0.56521  0.63495  0.85895  1.0000
  H   H98       1.0  0.58137  0.62436  0.72632  1.0000
  H   H99       1.0  0.5975000000000003  0.77404  0.86438  1.0000
  H   H100      1.0  0.51257  0.6890399999999999  0.3139  1.0000
  H   H101      1.0  0.54455  0.84221  0.45779  1.0000
  H   H102      1.0  0.51485  0.70647  0.45975  1.0000
  H   H103      1.0  0.4542700000000002  0.17946000000000006  0.8524100000000001  1.0000
  H   H104      1.0  0.4710300000000001  0.056369999999999996  0.88176  1.0000
  H   H105      1.0  0.4833000000000001  0.04497999999999998  0.74588  1.0000
  H   H106      1.0  0.58206  0.78225  0.64824  1.0000
  H   H107      1.0  0.5202100000000001  0.9120599999999999  0.67458  1.0000
  H   H108      1.0  0.5556700000000002  0.85702  0.78681  1.0000
  H   H109      1.0  0.7011500000000003  0.1306600000000001  0.7328300000000001  1.0000
  H   H110      1.0  0.7558700000000002  0.10723000000000005  0.7089100000000002  1.0000
  H   H111      1.0  0.85047  0.99072  0.53249  1.0000
  H   H112      1.0  0.87133  0.07010000000000005  0.60197  1.0000
  H   H113      1.0  0.92474  0.27602000000000004  0.79981  1.0000
  H   H114      1.0  0.98652  0.3356499999999999  0.8271  1.0000
  H   H115      1.0  0.63478  0.29361000000000004  0.8588300000000001  1.0000
  H   H116      1.0  0.6244400000000002  0.14491  0.72634  1.0000
  H   H117      1.0  0.77399  0.26693  0.86432  1.0000
  H   H118      1.0  0.68898  0.80115  0.31395  1.0000
  H   H119      1.0  0.84212  0.91332  0.4577  1.0000
  H   H120      1.0  0.70633  0.9447  0.45970000000000005  1.0000
  H   H121      1.0  0.17954000000000012  0.39825000000000005  0.8524400000000001  1.0000
  H   H122      1.0  0.05657999999999996  0.41077  0.88202  1.0000
  H   H123      1.0  0.04515000000000002  0.2626800000000001  0.7460600000000001  1.0000
  H   H124      1.0  0.78228  0.06630000000000001  0.64823  1.0000
  H   H125      1.0  0.9123700000000002  0.15442000000000006  0.6749  1.0000
  H   H126      1.0  0.8573200000000001  0.23128000000000012  0.7870000000000001  1.0000
  H   H127      1.0  0.031650000000000005  0.60231  0.73289  1.0000
  H   H128      1.0  0.9529499999999999  0.60184  0.70887  1.0000
  H   H129      1.0  0.6821  0.54187  0.53253  1.0000
  H   H130      1.0  0.73077  0.53197  0.60201  1.0000
  H   H131      1.0  0.8749200000000001  0.52415  0.8001100000000001  1.0000
  H   H132      1.0  0.84072  0.49188  0.82755  1.0000
  H   H133      1.0  0.2240700000000001  0.5651600000000001  0.8589800000000001  1.0000
  H   H134      1.0  0.10213999999999998  0.58144  0.72649  1.0000
  H   H135      1.0  0.09039  0.59771  0.86453  1.0000
  H   H136      1.0  0.62513  0.51259  0.31388  1.0000
  H   H137      1.0  0.61564  0.54446  0.45769  1.0000
  H   H138      1.0  0.7534  0.5147599999999998  0.45952  1.0000
  H   H139      1.0  0.6732000000000002  0.45430999999999994  0.8527100000000001  1.0000
  H   H140      1.0  0.82555  0.47115  0.88187  1.0000
  H   H141      1.0  0.70094  0.4833599999999999  0.74601  1.0000
  H   H142      1.0  0.86591  0.58201  0.64821  1.0000
  H   H143      1.0  0.76249  0.52033  0.67469  1.0000
  H   H144      1.0  0.9296300000000001  0.55562  0.78694  1.0000
  C   C1        1.0  0.65928  0.8213  0.08154  1.0000
  C   C2        1.0  0.80189  0.8061299999999998  0.23989  1.0000
  C   C3        1.0  0.71467  0.84069  0.13295  1.0000
  C   C4        1.0  0.7321700000000004  0.81278  0.15899  1.0000
  C   C5        1.0  0.78331  0.83367  0.20930000000000004  1.0000
  C   C6        1.0  0.8161100000000002  0.88209  0.23343  1.0000
  C   C7        1.0  0.79833  0.90992  0.20728  1.0000
  C   C8        1.0  0.74758  0.88856  0.1562  1.0000
  C   C9        1.0  0.14467  0.2802200000000001  0.64654  1.0000
  C   C10       1.0  0.17997  0.43869999999999987  0.64746  1.0000
  C   C11       1.0  0.12870000000000006  0.30792  0.61599  1.0000
  C   C12       1.0  0.16176  0.3575  0.64381  1.0000
  C   C13       1.0  0.1459800000000001  0.3848500000000001  0.61699  1.0000
  C   C14       1.0  0.09813999999999995  0.36222  0.56229  1.0000
  C   C15       1.0  0.06549000000000006  0.31203  0.53385  1.0000
  C   C16       1.0  0.08060999999999996  0.28493999999999997  0.56129  1.0000
  C   C17       1.0  0.70504  0.37379  0.23795  1.0000
  C   C18       1.0  0.53323  0.23027  0.08039  1.0000
  C   C19       1.0  0.67255  0.31837  0.20419  1.0000
  C   C20       1.0  0.61968  0.30073  0.15872  1.0000
  C   C21       1.0  0.59003  0.24877000000000002  0.12836  1.0000
  C   C22       1.0  0.61339  0.21471  0.14256  1.0000
  C   C23       1.0  0.66698  0.2322999999999999  0.18721  1.0000
  C   C24       1.0  0.69627  0.28476  0.21873  1.0000
  C   C25       1.0  0.81492  0.00020000000000000361  0.23045  1.0000
  C   C26       1.0  0.9849000000000002  0.24007  0.43729  1.0000
  C   C27       1.0  0.7426500000000003  0.20513000000000003  0.23737000000000003  1.0000
  C   C28       1.0  0.85112  0.09657999999999997  0.27988  1.0000
  C   C29       1.0  0.89709  0.13943  0.32703  1.0000
  C   C30       1.0  0.89464  0.18999  0.34348  1.0000
  C   C31       1.0  0.8475600000000002  0.19825  0.31274  1.0000
  C   C32       1.0  0.80241  0.15505  0.26561  1.0000
  C   C33       1.0  0.8037600000000003  0.10391999999999994  0.24886  1.0000
  C   C34       1.0  0.42209000000000013  0.26014  0.08139  1.0000
  C   C35       1.0  0.43825  0.4337599999999999  0.23983000000000002  1.0000
  C   C36       1.0  0.41822  0.29217  0.13291  1.0000
  C   C37       1.0  0.4269  0.34611  0.15903  1.0000
  C   C38       1.0  0.42621999999999993  0.37562  0.20943  1.0000
  C   C39       1.0  0.41751000000000005  0.35138  0.23359000000000002  1.0000
  C   C40       1.0  0.40902  0.29737  0.20737000000000003  1.0000
  C   C41       1.0  0.40859  0.26761  0.15622  1.0000
  C   C42       1.0  0.50211  0.36616  0.64636  1.0000
  C   C43       1.0  0.46772  0.20867000000000002  0.64748  1.0000
  C   C44       1.0  0.48749  0.3079  0.61594  1.0000
  C   C45       1.0  0.48219999999999996  0.28613  0.64373  1.0000
  C   C46       1.0  0.47108000000000017  0.23194999999999996  0.61688  1.0000
  C   C47       1.0  0.46404  0.19984  0.56213  1.0000
  C   C48       1.0  0.46834999999999993  0.2216099999999999  0.53378  1.0000
  C   C49       1.0  0.48079  0.27612  0.5612  1.0000
  C   C50       1.0  0.5332400000000003  0.8644000000000001  0.23834000000000005  1.0000
  C   C51       1.0  0.5471000000000003  0.85012  0.08051  1.0000
  C   C52       1.0  0.53177  0.886  0.20445000000000002  1.0000
  C   C53       1.0  0.53909  0.85812  0.15895  1.0000
  C   C54       1.0  0.53841  0.87968  0.12856  1.0000
  C   C55       1.0  0.52939  0.928  0.14281  1.0000
  C   C56       1.0  0.52045  0.95511  0.18745000000000003  1.0000
  C   C57       1.0  0.5225800000000002  0.93416  0.21895000000000003  1.0000
  C   C58       1.0  0.41545000000000004  0.23026  0.23046000000000003  1.0000
  C   C59       1.0  0.45232  0.19716  0.43727  1.0000
  C   C60       1.0  0.49583  0.032920000000000005  0.2382  1.0000
  C   C61       1.0  0.42874  0.18329  0.27995  1.0000
  C   C62       1.0  0.42991  0.18759  0.3271  1.0000
  C   C63       1.0  0.44885  0.1535  0.34356  1.0000
  C   C64       1.0  0.46535  0.11461999999999997  0.31293  1.0000
  C   C65       1.0  0.46341  0.11069999999999998  0.26581  1.0000
  C   C66       1.0  0.44519000000000003  0.14504  0.24901  1.0000
  C   C67       1.0  0.26033  0.65932  0.08163  1.0000
  C   C68       1.0  0.43378  0.80179  0.23981  1.0000
  C   C69       1.0  0.29231  0.7147  0.13307  1.0000
  C   C70       1.0  0.34623  0.73221  0.15911  1.0000
  C   C71       1.0  0.3756600000000001  0.78333  0.20942  1.0000
  C   C72       1.0  0.35136  0.81613  0.23356000000000002  1.0000
  C   C73       1.0  0.29737  0.79833  0.20737000000000003  1.0000
  C   C74       1.0  0.26766  0.74758  0.15629  1.0000
  C   C75       1.0  0.36617  0.14448000000000005  0.64625  1.0000
  C   C76       1.0  0.20872000000000004  0.17986  0.64755  1.0000
  C   C77       1.0  0.30792  0.12862999999999994  0.61587  1.0000
  C   C78       1.0  0.28617  0.16168  0.64372  1.0000
  C   C79       1.0  0.23200000000000007  0.14589  0.61694  1.0000
  C   C80       1.0  0.19992000000000004  0.09811000000000006  0.56223  1.0000
  C   C81       1.0  0.22167  0.06546  0.5338  1.0000
  C   C82       1.0  0.27618  0.08053999999999996  0.5612  1.0000
  C   C83       1.0  0.86432  0.7050800000000002  0.23827000000000004  1.0000
  C   C84       1.0  0.85007  0.53328  0.08048  1.0000
  C   C85       1.0  0.8859  0.67258  0.20438000000000003  1.0000
  C   C86       1.0  0.85802  0.61974  0.15888  1.0000
  C   C87       1.0  0.87957  0.5900599999999999  0.12847  1.0000
  C   C88       1.0  0.92784  0.61337  0.14262  1.0000
  C   C89       1.0  0.9549100000000003  0.66696  0.18723  1.0000
  C   C90       1.0  0.934  0.69627  0.21881000000000003  1.0000
  C   C91       1.0  0.23026000000000005  0.8148799999999999  0.23049  1.0000
  C   C92       1.0  0.1971  0.98488  0.43725  1.0000
  C   C93       1.0  0.03223  0.74261  0.23732  1.0000
  C   C94       1.0  0.18322999999999998  0.85113  0.27989  1.0000
  C   C95       1.0  0.18751  0.89709  0.32706  1.0000
  C   C96       1.0  0.15338000000000002  0.8946299999999999  0.3434900000000001  1.0000
  C   C97       1.0  0.11441  0.84754  0.31274  1.0000
  C   C98       1.0  0.11050000000000003  0.8024  0.26561  1.0000
  C   C99       1.0  0.14489000000000005  0.80377  0.24887  1.0000
  C   C100      1.0  0.82123  0.4221099999999999  0.08135  1.0000
  C   C101      1.0  0.8060900000000001  0.43822  0.23980000000000004  1.0000
  C   C102      1.0  0.84067  0.41816  0.13279  1.0000
  C   C103      1.0  0.81279  0.42681  0.15886  1.0000
  C   C104      1.0  0.83368  0.42607999999999985  0.20924  1.0000
  C   C105      1.0  0.88209  0.41739  0.23341  1.0000
  C   C106      1.0  0.90994  0.40893  0.20726000000000003  1.0000
  C   C107      1.0  0.88857  0.40852  0.15612  1.0000
  C   C108      1.0  0.28026  0.50215  0.64658  1.0000
  C   C109      1.0  0.43872  0.46751  0.64738  1.0000
  C   C110      1.0  0.3079600000000001  0.48749  0.616  1.0000
  C   C111      1.0  0.3574900000000001  0.4821399999999998  0.64376  1.0000
  C   C112      1.0  0.38484  0.4709999999999999  0.61692  1.0000
  C   C113      1.0  0.36221  0.46411  0.56222  1.0000
  C   C114      1.0  0.31207  0.46844  0.53385  1.0000
  C   C115      1.0  0.28497  0.48084  0.56128  1.0000
  C   C116      1.0  0.37383000000000005  0.53301  0.23802000000000004  1.0000
  C   C117      1.0  0.23021000000000005  0.54708  0.08038  1.0000
  C   C118      1.0  0.31837  0.5317  0.20427000000000003  1.0000
  C   C119      1.0  0.30068  0.53905  0.15876  1.0000
  C   C120      1.0  0.24872000000000005  0.5383699999999999  0.12842  1.0000
  C   C121      1.0  0.21468000000000007  0.52929  0.14266  1.0000
  C   C122      1.0  0.23231  0.52037  0.18733  1.0000
  C   C123      1.0  0.28478  0.52256  0.21885  1.0000
  C   C124      1.0  0.00023000000000000006  0.41539  0.23045  1.0000
  C   C125      1.0  0.24009  0.45246  0.43735  1.0000
  C   C126      1.0  0.20523000000000008  0.49522  0.23772000000000001  1.0000
  C   C127      1.0  0.09662  0.42875  0.27991  1.0000
  C   C128      1.0  0.13949000000000003  0.42994  0.32707  1.0000
  C   C129      1.0  0.19004  0.44891000000000003  0.34355  1.0000
  C   C130      1.0  0.19833  0.46535  0.31291  1.0000
  C   C131      1.0  0.15513  0.46332999999999996  0.26575  1.0000
  C   C132      1.0  0.10397000000000002  0.44516  0.24894  1.0000
  C   C133      1.0  0.34071000000000007  0.17870000000000003  0.9184600000000002  1.0000
  C   C134      1.0  0.1981  0.19385999999999995  0.76011  1.0000
  C   C135      1.0  0.28532000000000013  0.15931000000000003  0.86705  1.0000
  C   C136      1.0  0.26783000000000007  0.1872099999999999  0.84101  1.0000
  C   C137      1.0  0.21668000000000007  0.16632000000000002  0.7907000000000001  1.0000
  C   C138      1.0  0.18388  0.11790999999999999  0.76656  1.0000
  C   C139      1.0  0.20167000000000004  0.09007000000000005  0.7927100000000001  1.0000
  C   C140      1.0  0.25241  0.11142999999999999  0.84379  1.0000
  C   C141      1.0  0.8553200000000003  0.71978  0.35345000000000004  1.0000
  C   C142      1.0  0.82002  0.5613  0.35254  1.0000
  C   C143      1.0  0.87129  0.69207  0.38401  1.0000
  C   C144      1.0  0.83824  0.6425  0.35618  1.0000
  C   C145      1.0  0.8540200000000001  0.61515  0.38301  1.0000
  C   C146      1.0  0.9018500000000002  0.63778  0.4377  1.0000
  C   C147      1.0  0.9345000000000002  0.68796  0.46615  1.0000
  C   C148      1.0  0.91939  0.71506  0.43871  1.0000
  C   C149      1.0  0.29496  0.6262  0.76204  1.0000
  C   C150      1.0  0.46676  0.76972  0.91961  1.0000
  C   C151      1.0  0.32745  0.68163  0.7958  1.0000
  C   C152      1.0  0.38032000000000005  0.6992599999999998  0.84128  1.0000
  C   C153      1.0  0.40997000000000017  0.7512200000000001  0.8716400000000001  1.0000
  C   C154      1.0  0.3866100000000001  0.7852899999999998  0.85744  1.0000
  C   C155      1.0  0.33302000000000004  0.7677000000000002  0.8127900000000001  1.0000
  C   C156      1.0  0.30372  0.71523  0.78127  1.0000
  C   C157      1.0  0.1850700000000001  0.9997899999999998  0.76954  1.0000
  C   C158      1.0  0.015099999999999968  0.75992  0.5627  1.0000
  C   C159      1.0  0.2573500000000002  0.7948600000000001  0.7626300000000001  1.0000
  C   C160      1.0  0.14887  0.9034199999999999  0.72011  1.0000
  C   C161      1.0  0.1029  0.86056  0.67296  1.0000
  C   C162      1.0  0.10534999999999996  0.81  0.65652  1.0000
  C   C163      1.0  0.15243000000000004  0.8017499999999997  0.68725  1.0000
  C   C164      1.0  0.19758000000000006  0.8449400000000001  0.7343900000000001  1.0000
  C   C165      1.0  0.19623000000000004  0.89608  0.75114  1.0000
  C   C166      1.0  0.57791  0.73985  0.9186  1.0000
  C   C167      1.0  0.5617400000000001  0.56624  0.76017  1.0000
  C   C168      1.0  0.58178  0.70783  0.86709  1.0000
  C   C169      1.0  0.57309  0.65388  0.84097  1.0000
  C   C170      1.0  0.57378  0.6243700000000001  0.7905700000000001  1.0000
  C   C171      1.0  0.58249  0.64861  0.7664  1.0000
  C   C172      1.0  0.59097  0.70262  0.79263  1.0000
  C   C173      1.0  0.5914000000000001  0.73239  0.84377  1.0000
  C   C174      1.0  0.4978800000000001  0.63383  0.35363  1.0000
  C   C175      1.0  0.53228  0.7913299999999999  0.35252  1.0000
  C   C176      1.0  0.51251  0.69209  0.38406  1.0000
  C   C177      1.0  0.5178  0.71387  0.35626  1.0000
  C   C178      1.0  0.52891  0.7680500000000001  0.38311000000000006  1.0000
  C   C179      1.0  0.53595  0.80016  0.43787  1.0000
  C   C180      1.0  0.53164  0.77838  0.46622  1.0000
  C   C181      1.0  0.5192  0.72387  0.43879  1.0000
  C   C182      1.0  0.46676000000000006  0.13559000000000004  0.7616500000000002  1.0000
  C   C183      1.0  0.45289  0.14988  0.91949  1.0000
  C   C184      1.0  0.4682300000000001  0.11399000000000004  0.7955500000000001  1.0000
  C   C185      1.0  0.4609000000000001  0.14187000000000002  0.84105  1.0000
  C   C186      1.0  0.4615800000000001  0.12030999999999997  0.87143  1.0000
  C   C187      1.0  0.47060000000000013  0.07199999999999998  0.85718  1.0000
  C   C188      1.0  0.47954  0.04488  0.81255  1.0000
  C   C189      1.0  0.47741000000000006  0.06583000000000003  0.78105  1.0000
  C   C190      1.0  0.58454  0.76974  0.76954  1.0000
  C   C191      1.0  0.5476800000000002  0.8028299999999999  0.56272  1.0000
  C   C192      1.0  0.50416  0.96708  0.76179  1.0000
  C   C193      1.0  0.57126  0.8167  0.7200400000000001  1.0000
  C   C194      1.0  0.57009  0.81241  0.6729  1.0000
  C   C195      1.0  0.55114  0.8465  0.65644  1.0000
  C   C196      1.0  0.53464  0.88538  0.68707  1.0000
  C   C197      1.0  0.53658  0.8893  0.73419  1.0000
  C   C198      1.0  0.5548  0.85496  0.75099  1.0000
  C   C199      1.0  0.73967  0.34067  0.91837  1.0000
  C   C200      1.0  0.56622  0.1982  0.7601800000000001  1.0000
  C   C201      1.0  0.70769  0.2853  0.86693  1.0000
  C   C202      1.0  0.6537700000000002  0.26778000000000013  0.8408800000000001  1.0000
  C   C203      1.0  0.62433  0.21666000000000005  0.79058  1.0000
  C   C204      1.0  0.6486300000000003  0.18386999999999995  0.76644  1.0000
  C   C205      1.0  0.70262  0.20166999999999993  0.79263  1.0000
  C   C206      1.0  0.7323300000000001  0.2524100000000001  0.8437100000000001  1.0000
  C   C207      1.0  0.63382  0.85552  0.35374000000000005  1.0000
  C   C208      1.0  0.79127  0.82014  0.35245  1.0000
  C   C209      1.0  0.69207  0.8713599999999998  0.38413  1.0000
  C   C210      1.0  0.7138200000000001  0.83832  0.35627  1.0000
  C   C211      1.0  0.76799  0.85411  0.38306  1.0000
  C   C212      1.0  0.80007  0.90189  0.43777  1.0000
  C   C213      1.0  0.77833  0.93453  0.46620000000000006  1.0000
  C   C214      1.0  0.72381  0.91946  0.4388  1.0000
  C   C215      1.0  0.13567000000000007  0.29492  0.76173  1.0000
  C   C216      1.0  0.14992  0.46671  0.91952  1.0000
  C   C217      1.0  0.11410000000000001  0.32741  0.79562  1.0000
  C   C218      1.0  0.14197999999999997  0.38025  0.84111  1.0000
  C   C219      1.0  0.12042000000000003  0.40993000000000007  0.8715300000000001  1.0000
  C   C220      1.0  0.07216000000000004  0.38662999999999986  0.85737  1.0000
  C   C221      1.0  0.04509000000000002  0.33303  0.81276  1.0000
  C   C222      1.0  0.06599000000000006  0.30373000000000006  0.7811900000000002  1.0000
  C   C223      1.0  0.76973  0.18511000000000005  0.7695  1.0000
  C   C224      1.0  0.80289  0.015119999999999986  0.56275  1.0000
  C   C225      1.0  0.96777  0.2573899999999999  0.76268  1.0000
  C   C226      1.0  0.81676  0.14887  0.7201  1.0000
  C   C227      1.0  0.8124800000000002  0.10291  0.67294  1.0000
  C   C228      1.0  0.84661  0.10536000000000001  0.65651  1.0000
  C   C229      1.0  0.88558  0.15244999999999995  0.68726  1.0000
  C   C230      1.0  0.8894900000000002  0.1976  0.7343900000000001  1.0000
  C   C231      1.0  0.85511  0.19623000000000004  0.75113  1.0000
  C   C232      1.0  0.17877  0.57788  0.91865  1.0000
  C   C233      1.0  0.1939100000000001  0.56177  0.7602000000000001  1.0000
  C   C234      1.0  0.15932  0.58184  0.8672  1.0000
  C   C235      1.0  0.18720000000000006  0.5731899999999998  0.84114  1.0000
  C   C236      1.0  0.16632000000000005  0.57391  0.79076  1.0000
  C   C237      1.0  0.11790000000000002  0.58261  0.76659  1.0000
  C   C238      1.0  0.09005999999999999  0.59106  0.79274  1.0000
  C   C239      1.0  0.11143000000000017  0.5914800000000001  0.8438800000000001  1.0000
  C   C240      1.0  0.71973  0.49785  0.35341  1.0000
  C   C241      1.0  0.56128  0.53249  0.35262  1.0000
  C   C242      1.0  0.69204  0.51251  0.384  1.0000
  C   C243      1.0  0.6425  0.51785  0.35624000000000006  1.0000
  C   C244      1.0  0.61516  0.52899  0.38308000000000003  1.0000
  C   C245      1.0  0.63779  0.53589  0.43778  1.0000
  C   C246      1.0  0.68792  0.53155  0.46614  1.0000
  C   C247      1.0  0.71502  0.51915  0.43871  1.0000
  C   C248      1.0  0.62616  0.46699  0.76197  1.0000
  C   C249      1.0  0.76978  0.45291  0.91962  1.0000
  C   C250      1.0  0.6816200000000003  0.46828999999999993  0.7957300000000002  1.0000
  C   C251      1.0  0.6993100000000002  0.46094  0.84123  1.0000
  C   C252      1.0  0.75128  0.46163  0.87158  1.0000
  C   C253      1.0  0.78532  0.47071  0.85733  1.0000
  C   C254      1.0  0.76768  0.47962  0.81266  1.0000
  C   C255      1.0  0.7152100000000003  0.47744  0.7811500000000001  1.0000
  C   C256      1.0  0.9997699999999999  0.58461  0.76954  1.0000
  C   C257      1.0  0.7599100000000001  0.54753  0.56264  1.0000
  C   C258      1.0  0.79476  0.50478  0.76227  1.0000
  C   C259      1.0  0.9033800000000004  0.5712499999999999  0.72009  1.0000
  C   C260      1.0  0.8605  0.57005  0.67293  1.0000
  C   C261      1.0  0.80995  0.55109  0.65644  1.0000
  C   C262      1.0  0.80166  0.53465  0.68708  1.0000
  C   C263      1.0  0.84487  0.5366600000000001  0.7342500000000001  1.0000
  C   C264      1.0  0.8960200000000003  0.5548299999999998  0.7510600000000001  1.0000
  N   N1        1.0  0.8321100000000002  0.95909  0.23353  1.0000
  N   N2        1.0  0.85579  0.04659000000000002  0.26645  1.0000
  N   N3        1.0  0.01740000000000001  0.29224000000000006  0.47952000000000006  1.0000
  N   N4        1.0  0.93842  0.23550999999999997  0.39112  1.0000
  N   N5        1.0  0.75322  0.15975  0.23283  1.0000
  N   N6        1.0  0.68951  0.19626000000000002  0.19861000000000004  1.0000
  N   N7        1.0  0.40137  0.27447  0.23358  1.0000
  N   N8        1.0  0.41048000000000007  0.21971  0.26631  1.0000
  N   N9        1.0  0.46214  0.18716  0.47949  1.0000
  N   N10       1.0  0.45254  0.15551000000000004  0.39107000000000003  1.0000
  N   N11       1.0  0.47972000000000004  0.07316000000000002  0.23295000000000002  1.0000
  N   N12       1.0  0.50921  0.0024800000000000017  0.19863  1.0000
  N   N13       1.0  0.27445  0.83212  0.23359000000000002  1.0000
  N   N14       1.0  0.21973  0.8557299999999998  0.26636  1.0000
  N   N15       1.0  0.18719000000000002  0.01735000000000004  0.47951000000000005  1.0000
  N   N16       1.0  0.15548000000000006  0.93841  0.39112  1.0000
  N   N17       1.0  0.07308  0.75319  0.2328  1.0000
  N   N18       1.0  0.0023000000000000056  0.6895  0.19854  1.0000
  N   N19       1.0  0.9590900000000002  0.40132  0.23351  1.0000
  N   N20       1.0  0.04663  0.41051  0.2664  1.0000
  N   N21       1.0  0.29228  0.46225  0.47957  1.0000
  N   N22       1.0  0.2355200000000001  0.45265999999999995  0.39113  1.0000
  N   N23       1.0  0.15983  0.47964000000000007  0.23289000000000004  1.0000
  N   N24       1.0  0.19621  0.50918  0.19862  1.0000
  N   N25       1.0  0.16789000000000004  0.040900000000000075  0.7664700000000001  1.0000
  N   N26       1.0  0.14421000000000017  0.95341  0.7335400000000001  1.0000
  N   N27       1.0  0.9826  0.7077499999999998  0.52048  1.0000
  N   N28       1.0  0.06157000000000006  0.7644799999999998  0.60888  1.0000
  N   N29       1.0  0.24676999999999993  0.84025  0.76717  1.0000
  N   N30       1.0  0.3104800000000001  0.80373  0.80139  1.0000
  N   N31       1.0  0.59862  0.72553  0.76642  1.0000
  N   N32       1.0  0.5895100000000001  0.7802900000000002  0.7336800000000001  1.0000
  N   N33       1.0  0.53785  0.81283  0.52051  1.0000
  N   N34       1.0  0.54745  0.8444899999999999  0.60893  1.0000
  N   N35       1.0  0.5202800000000001  0.92684  0.7670500000000001  1.0000
  N   N36       1.0  0.49078  0.99752  0.80137  1.0000
  N   N37       1.0  0.72555  0.16787  0.7664  1.0000
  N   N38       1.0  0.78026  0.14426999999999995  0.73364  1.0000
  N   N39       1.0  0.8127999999999999  0.9826399999999998  0.52048  1.0000
  N   N40       1.0  0.8445100000000003  0.06158000000000002  0.60888  1.0000
  N   N41       1.0  0.92692  0.24681000000000008  0.7671900000000001  1.0000
  N   N42       1.0  0.99769  0.3105  0.80145  1.0000
  N   N43       1.0  0.04090000000000004  0.5986799999999998  0.7664900000000001  1.0000
  N   N44       1.0  0.95336  0.58949  0.73359  1.0000
  N   N45       1.0  0.70771  0.53775  0.52043  1.0000
  N   N46       1.0  0.76448  0.54734  0.60887  1.0000
  N   N47       1.0  0.84017  0.52035  0.7671  1.0000
  N   N48       1.0  0.8037800000000002  0.4908100000000001  0.8013800000000001  1.0000
  O   O1        1.0  0.6450000000000001  0.85061  0.06241  1.0000
  O   O2        1.0  0.63002  0.77759  0.061500000000000006  1.0000
  O   O3        1.0  0.7700400000000001  0.76232  0.21601  1.0000
  O   O4        1.0  0.8477100000000003  0.8288899999999998  0.28817  1.0000
  O   O5        1.0  0.11040000000000001  0.239  0.62486  1.0000
  O   O6        1.0  0.19153000000000006  0.30051  0.69271  1.0000
  O   O7        1.0  0.22418  0.456  0.69606  1.0000
  O   O8        1.0  0.16215000000000004  0.46354999999999996  0.62298  1.0000
  O   O9        1.0  0.75057  0.3897799999999999  0.28472  1.0000
  O   O10       1.0  0.68483  0.4008300000000001  0.21731000000000003  1.0000
  O   O11       1.0  0.51803  0.26  0.06219  1.0000
  O   O12       1.0  0.50428  0.18674000000000002  0.0613  1.0000
  O   O13       1.0  0.76867  0.99541  0.19879  1.0000
  O   O14       1.0  0.9962000000000001  0.20318000000000003  0.44075000000000003  1.0000
  O   O15       1.0  0.77639  0.24842000000000003  0.27198  1.0000
  O   O16       1.0  0.41745  0.21176  0.06237  1.0000
  O   O17       1.0  0.4310500000000001  0.28375  0.061160000000000006  1.0000
  O   O18       1.0  0.44606  0.45354  0.21572  1.0000
  O   O19       1.0  0.44085  0.45944999999999997  0.28817  1.0000
  O   O20       1.0  0.5147599999999999  0.38556  0.6246  1.0000
  O   O21       1.0  0.5014  0.39219  0.69249  1.0000
  O   O22       1.0  0.4719  0.24006999999999995  0.69591  1.0000
  O   O23       1.0  0.46148  0.15942999999999993  0.62336  1.0000
  O   O24       1.0  0.53452  0.89529  0.2851  1.0000
  O   O25       1.0  0.53295  0.8167799999999998  0.21795  1.0000
  O   O26       1.0  0.54386  0.80213  0.06214000000000001  1.0000
  O   O27       1.0  0.5571300000000002  0.87458  0.06151000000000001  1.0000
  O   O28       1.0  0.43000999999999995  0.20344999999999994  0.19872  1.0000
  O   O29       1.0  0.4444800000000001  0.23749999999999996  0.44073  1.0000
  O   O30       1.0  0.49821  0.02507000000000002  0.27395  1.0000
  O   O31       1.0  0.21189000000000005  0.64503  0.06248000000000001  1.0000
  O   O32       1.0  0.284  0.63008  0.06157000000000001  1.0000
  O   O33       1.0  0.45366  0.76986  0.2159  1.0000
  O   O34       1.0  0.4593499999999999  0.84765  0.28799  1.0000
  O   O35       1.0  0.38563  0.11000999999999996  0.6247  1.0000
  O   O36       1.0  0.39213  0.19142999999999993  0.69216  1.0000
  O   O37       1.0  0.24013999999999996  0.22399999999999998  0.69615  1.0000
  O   O38       1.0  0.15944  0.16205  0.62323  1.0000
  O   O39       1.0  0.89518  0.75058  0.285  1.0000
  O   O40       1.0  0.81668  0.68497  0.2178  1.0000
  O   O41       1.0  0.8021200000000002  0.5181  0.06218  1.0000
  O   O42       1.0  0.87456  0.50431  0.061470000000000004  1.0000
  O   O43       1.0  0.20349000000000003  0.7685699999999999  0.19881000000000001  1.0000
  O   O44       1.0  0.23741000000000007  0.99616  0.44062000000000007  1.0000
  O   O45       1.0  0.023569999999999994  0.77638  0.27194  1.0000
  O   O46       1.0  0.8506  0.4174599999999999  0.06234  1.0000
  O   O47       1.0  0.77741  0.4311400000000001  0.061160000000000006  1.0000
  O   O48       1.0  0.7622  0.44606  0.21577  1.0000
  O   O49       1.0  0.82888  0.44093  0.28822  1.0000
  O   O50       1.0  0.2389  0.51452  0.62473  1.0000
  O   O51       1.0  0.3007  0.50175  0.69295  1.0000
  O   O52       1.0  0.45597000000000004  0.47179  0.6959  1.0000
  O   O53       1.0  0.46366  0.46108  0.62304  1.0000
  O   O54       1.0  0.38985  0.53435  0.28485  1.0000
  O   O55       1.0  0.40087  0.53252  0.21737  1.0000
  O   O56       1.0  0.2599  0.54394  0.06211  1.0000
  O   O57       1.0  0.18671  0.5570199999999997  0.0613  1.0000
  O   O58       1.0  0.99547  0.42997  0.1988  1.0000
  O   O59       1.0  0.20322000000000004  0.44467  0.44087  1.0000
  O   O60       1.0  0.24871  0.49677999999999994  0.27282  1.0000
  O   O61       1.0  0.35499  0.14939000000000002  0.93759  1.0000
  O   O62       1.0  0.3699700000000001  0.22240000000000004  0.9385000000000001  1.0000
  O   O63       1.0  0.22996000000000005  0.23768000000000006  0.7839900000000001  1.0000
  O   O64       1.0  0.15229000000000006  0.1711  0.71183  1.0000
  O   O65       1.0  0.8896  0.761  0.37514  1.0000
  O   O66       1.0  0.80846  0.69949  0.30728  1.0000
  O   O67       1.0  0.77582  0.54399  0.30393  1.0000
  O   O68       1.0  0.83785  0.5364499999999999  0.37702  1.0000
  O   O69       1.0  0.24943000000000004  0.61022  0.71528  1.0000
  O   O70       1.0  0.31517  0.59917  0.78268  1.0000
  O   O71       1.0  0.48196000000000006  0.74  0.9378100000000001  1.0000
  O   O72       1.0  0.49571000000000004  0.8132499999999998  0.9387  1.0000
  O   O73       1.0  0.23132  0.004579999999999996  0.8012  1.0000
  O   O74       1.0  0.0038000000000000173  0.7968099999999998  0.55924  1.0000
  O   O75       1.0  0.22361000000000006  0.7515799999999999  0.72802  1.0000
  O   O76       1.0  0.58255  0.78823  0.93762  1.0000
  O   O77       1.0  0.56894  0.7162499999999998  0.93884  1.0000
  O   O78       1.0  0.55394  0.54646  0.78427  1.0000
  O   O79       1.0  0.55914  0.54055  0.71183  1.0000
  O   O80       1.0  0.4852300000000002  0.61444  0.37540000000000007  1.0000
  O   O81       1.0  0.49859999999999993  0.60781  0.30751  1.0000
  O   O82       1.0  0.5281000000000002  0.75992  0.30408  1.0000
  O   O83       1.0  0.5385100000000003  0.84057  0.3766300000000001  1.0000
  O   O84       1.0  0.46547  0.10469999999999999  0.7149  1.0000
  O   O85       1.0  0.46704  0.18321999999999994  0.78204  1.0000
  O   O86       1.0  0.45614  0.19786000000000004  0.93786  1.0000
  O   O87       1.0  0.44287  0.12542  0.93849  1.0000
  O   O88       1.0  0.56999  0.7965399999999998  0.80128  1.0000
  O   O89       1.0  0.55551  0.76249  0.55927  1.0000
  O   O90       1.0  0.50178  0.97492  0.72604  1.0000
  O   O91       1.0  0.7881  0.35496999999999995  0.9375200000000001  1.0000
  O   O92       1.0  0.716  0.36992  0.93843  1.0000
  O   O93       1.0  0.54633  0.23013  0.7841  1.0000
  O   O94       1.0  0.54064  0.15235  0.712  1.0000
  O   O95       1.0  0.6143600000000002  0.8899799999999999  0.3753  1.0000
  O   O96       1.0  0.60787  0.80857  0.30784  1.0000
  O   O97       1.0  0.75986  0.7759899999999997  0.30385  1.0000
  O   O98       1.0  0.84056  0.83794  0.37676  1.0000
  O   O99       1.0  0.10481000000000007  0.24942  0.7150000000000001  1.0000
  O   O100      1.0  0.18331000000000006  0.31503000000000003  0.7821900000000002  1.0000
  O   O101      1.0  0.19788000000000006  0.48190000000000005  0.9378100000000001  1.0000
  O   O102      1.0  0.12544000000000002  0.49568  0.9385300000000001  1.0000
  O   O103      1.0  0.7965000000000001  0.23142999999999994  0.80118  1.0000
  O   O104      1.0  0.76259  0.003839999999999954  0.55938  1.0000
  O   O105      1.0  0.9764199999999998  0.22360999999999995  0.72805  1.0000
  O   O106      1.0  0.14939  0.58254  0.93766  1.0000
  O   O107      1.0  0.22258  0.56886  0.93884  1.0000
  O   O108      1.0  0.23779  0.55394  0.78423  1.0000
  O   O109      1.0  0.17111000000000012  0.5590700000000001  0.7117700000000001  1.0000
  O   O110      1.0  0.7610900000000002  0.48548  0.37527  1.0000
  O   O111      1.0  0.69929  0.49824  0.30705  1.0000
  O   O112      1.0  0.54403  0.52821  0.30409  1.0000
  O   O113      1.0  0.5363400000000003  0.5389199999999998  0.37696  1.0000
  O   O114      1.0  0.6101500000000002  0.46565  0.7151500000000001  1.0000
  O   O115      1.0  0.59912  0.4674699999999999  0.78262  1.0000
  O   O116      1.0  0.7401  0.45605  0.93788  1.0000
  O   O117      1.0  0.8132900000000003  0.44297000000000003  0.9386900000000001  1.0000
  O   O118      1.0  0.00451999999999999  0.57003  0.8012  1.0000
  O   O119      1.0  0.79677  0.55532  0.55913  1.0000
  O   O120      1.0  0.7512900000000001  0.50322  0.7271800000000002  1.0000
