data_image0
_chemical_formula_structural       Mg16H240C280O88
_chemical_formula_sum              "Mg16 H240 C280 O88"
_cell_length_a       16.73189
_cell_length_b       19.252820000000003
_cell_length_c       34.40434
_cell_angle_alpha    90.0
_cell_angle_beta     90.0
_cell_angle_gamma    103.19712

_symmetry_space_group_name_H-M    'P 1'
_symmetry_Int_Tables_number       1

loop_
  _symmetry_equiv_pos_as_xyz
  'x,y,z'

loop_
  _atom_site_type_symbol
  _atom_site_label
  _atom_site_symmetry_multiplicity
  _atom_site_fract_x
  _atom_site_fract_y
  _atom_site_fract_z
  _atom_site_occupancy
  Mg  Mg1       1.0  0.50772  0.4797  0.16839  1.0000
  Mg  Mg2       1.0  0.70717  0.52182  0.17413  1.0000
  Mg  Mg3       1.0  0.007370000000000021  0.51095  0.1301  1.0000
  Mg  Mg4       1.0  0.7938299999999998  0.96645  0.6517199999999999  1.0000
  Mg  Mg5       1.0  0.49228  0.0203  0.6683899999999998  1.0000
  Mg  Mg6       1.0  0.29283  0.97818  0.67413  1.0000
  Mg  Mg7       1.0  0.9926299999999999  0.98905  0.6301  1.0000
  Mg  Mg8       1.0  0.20616999999999996  0.53355  0.15172  1.0000
  Mg  Mg9       1.0  0.49228  0.5203  0.83161  1.0000
  Mg  Mg10      1.0  0.29283000000000003  0.47818000000000005  0.82587  1.0000
  Mg  Mg11      1.0  0.9926299999999999  0.48904999999999993  0.8699  1.0000
  Mg  Mg12      1.0  0.20617  0.03355  0.34828  1.0000
  Mg  Mg13      1.0  0.50773  0.9796899999999998  0.33161  1.0000
  Mg  Mg14      1.0  0.70717  0.02182  0.32587  1.0000
  Mg  Mg15      1.0  0.00737  0.01095  0.3699  1.0000
  Mg  Mg16      1.0  0.7938299999999998  0.46645  0.84828  1.0000
  H   H1        1.0  0.64171  0.95419  0.07118  1.0000
  H   H2        1.0  0.6686699999999999  0.04884  0.06927  1.0000
  H   H3        1.0  0.56495  0.0036199999999999995  0.07029  1.0000
  H   H4        1.0  0.5755399999999998  0.11964  0.9029099999999999  1.0000
  H   H5        1.0  0.50774  0.12128000000000001  0.9418999999999998  1.0000
  H   H6        1.0  0.61023  0.17104  0.9445199999999999  1.0000
  H   H7        1.0  0.66417  0.83912  0.9457600000000002  1.0000
  H   H8        1.0  0.61626  0.8693500000000001  0.90549  1.0000
  H   H9        1.0  0.7227499999999998  0.90208  0.91348  1.0000
  H   H10       1.0  0.7185700000000002  0.8641  0.99608  1.0000
  H   H11       1.0  0.71028  0.90708  0.04059  1.0000
  H   H12       1.0  0.47917999999999994  0.73964  0.04578999999999999  1.0000
  H   H13       1.0  0.47945  0.63784  0.09084  1.0000
  H   H14       1.0  0.7423599999999999  0.69728  0.09554  1.0000
  H   H15       1.0  0.74377  0.79878  0.050709999999999984  1.0000
  H   H16       1.0  0.5310999999999999  0.13905  0.0011599999999999996  1.0000
  H   H17       1.0  0.53131  0.08649  0.04331  1.0000
  H   H18       1.0  0.49376000000000003  0.19334  0.05267  1.0000
  H   H19       1.0  0.48105000000000003  0.2921  0.09696999999999999  1.0000
  H   H20       1.0  0.7424799999999999  0.35138  0.11036  1.0000
  H   H21       1.0  0.75679  0.25137  0.06628999999999999  1.0000
  H   H22       1.0  0.61455  0.05283  0.8766799999999999  1.0000
  H   H23       1.0  0.6615  0.97927  0.8754  1.0000
  H   H24       1.0  0.59134  0.04379  0.81901  1.0000
  H   H25       1.0  0.51533  0.04817  0.75838  1.0000
  H   H26       1.0  0.31988  0.87762  0.79807  1.0000
  H   H27       1.0  0.39733999999999997  0.8712599999999999  0.86  1.0000
  H   H28       1.0  0.15143999999999994  0.95197  0.05458  1.0000
  H   H29       1.0  0.15904  0.04531  0.05848  1.0000
  H   H30       1.0  0.06201000000000005  0.98578  0.05536  1.0000
  H   H31       1.0  0.16177  0.85126  0.9253699999999999  1.0000
  H   H32       1.0  0.10967000000000005  0.8859800000000001  0.88832  1.0000
  H   H33       1.0  0.21764999999999998  0.9151099999999999  0.89254  1.0000
  H   H34       1.0  0.08003  0.17822  0.9464999999999999  1.0000
  H   H35       1.0  0.13482  0.16286  0.90496  1.0000
  H   H36       1.0  0.028470000000000006  0.12453  0.9080199999999999  1.0000
  H   H37       1.0  0.0278  0.13818  0.9948399999999998  1.0000
  H   H38       1.0  0.03823  0.0851  0.03544  1.0000
  H   H39       1.0  0.25593  0.26279  0.05188  1.0000
  H   H40       1.0  0.23823  0.36979  0.08964  1.0000
  H   H41       1.0  0.9772300000000002  0.30318  0.0759  1.0000
  H   H42       1.0  0.99265  0.19455  0.0408  1.0000
  H   H43       1.0  0.22467999999999994  0.87402  0.9740000000000001  1.0000
  H   H44       1.0  0.22361999999999996  0.91436  0.019879999999999995  1.0000
  H   H45       1.0  0.26491  0.81007  0.01894  1.0000
  H   H46       1.0  0.28632  0.71491  0.06424  1.0000
  H   H47       1.0  0.026490000000000007  0.65202  0.08508  1.0000
  H   H48       1.0  0.004090000000000015  0.7466  0.03956  1.0000
  H   H49       1.0  0.13613  0.08031  0.8661  1.0000
  H   H50       1.0  0.15511999999999995  0.99377  0.86087  1.0000
  H   H51       1.0  0.88401  0.9515000000000001  0.84516  1.0000
  H   H52       1.0  0.8334  0.9444  0.77604  1.0000
  H   H53       1.0  0.07948  0.02765  0.73635  1.0000
  H   H54       1.0  0.13044  0.0369  0.80417  1.0000
  H   H55       1.0  0.28653  0.58498  0.2296  1.0000
  H   H56       1.0  0.36067  0.55221  0.25824  1.0000
  H   H57       1.0  0.39396  0.62418  0.22584999999999994  1.0000
  H   H58       1.0  0.9243399999999998  0.6985  0.14769999999999997  1.0000
  H   H59       1.0  0.81438  0.66979  0.14544  1.0000
  H   H60       1.0  0.8650999999999999  0.66348  0.18986  1.0000
  H   H61       1.0  0.3583  0.54581  0.57118  1.0000
  H   H62       1.0  0.33133  0.45115  0.56927  1.0000
  H   H63       1.0  0.43505  0.49637000000000003  0.57029  1.0000
  H   H64       1.0  0.42446  0.38036  0.40291  1.0000
  H   H65       1.0  0.49226999999999993  0.37872  0.44189999999999996  1.0000
  H   H66       1.0  0.38978  0.32896  0.44452  1.0000
  H   H67       1.0  0.33583  0.66088  0.44576  1.0000
  H   H68       1.0  0.38374  0.63065  0.4055  1.0000
  H   H69       1.0  0.27726  0.59792  0.41348  1.0000
  H   H70       1.0  0.28143  0.6359  0.49609  1.0000
  H   H71       1.0  0.28972  0.59292  0.54059  1.0000
  H   H72       1.0  0.52083  0.76036  0.54578  1.0000
  H   H73       1.0  0.5205599999999999  0.8621599999999999  0.59084  1.0000
  H   H74       1.0  0.25765  0.80272  0.59554  1.0000
  H   H75       1.0  0.25624  0.70122  0.55071  1.0000
  H   H76       1.0  0.46891  0.36095  0.50116  1.0000
  H   H77       1.0  0.46869  0.41351  0.54331  1.0000
  H   H78       1.0  0.5062399999999999  0.30666  0.55267  1.0000
  H   H79       1.0  0.5189499999999998  0.2079  0.59697  1.0000
  H   H80       1.0  0.2575299999999999  0.14861  0.6103599999999999  1.0000
  H   H81       1.0  0.24320999999999998  0.24863  0.56629  1.0000
  H   H82       1.0  0.38545  0.44717  0.37668  1.0000
  H   H83       1.0  0.3385  0.52073  0.3754  1.0000
  H   H84       1.0  0.40867  0.45621  0.31901  1.0000
  H   H85       1.0  0.48468  0.45182999999999995  0.25838  1.0000
  H   H86       1.0  0.6801199999999997  0.62238  0.29806999999999995  1.0000
  H   H87       1.0  0.60267  0.62874  0.36  1.0000
  H   H88       1.0  0.84857  0.54803  0.5545799999999997  1.0000
  H   H89       1.0  0.84096  0.45469  0.55848  1.0000
  H   H90       1.0  0.9379899999999998  0.51422  0.55536  1.0000
  H   H91       1.0  0.83823  0.64874  0.42537  1.0000
  H   H92       1.0  0.89034  0.61402  0.3883299999999999  1.0000
  H   H93       1.0  0.78235  0.58489  0.39254  1.0000
  H   H94       1.0  0.91997  0.32178  0.4465  1.0000
  H   H95       1.0  0.86519  0.33714  0.40496  1.0000
  H   H96       1.0  0.9715299999999999  0.37547  0.40802  1.0000
  H   H97       1.0  0.9722000000000001  0.36182  0.49483999999999995  1.0000
  H   H98       1.0  0.96177  0.4149  0.5354399999999999  1.0000
  H   H99       1.0  0.74407  0.23721  0.5518799999999999  1.0000
  H   H100      1.0  0.76177  0.13021  0.58964  1.0000
  H   H101      1.0  0.02277  0.19682  0.5758999999999999  1.0000
  H   H102      1.0  0.0073500000000000084  0.30544  0.5407999999999997  1.0000
  H   H103      1.0  0.77533  0.62598  0.474  1.0000
  H   H104      1.0  0.77638  0.58564  0.5198799999999999  1.0000
  H   H105      1.0  0.73509  0.68993  0.51894  1.0000
  H   H106      1.0  0.71368  0.78509  0.56424  1.0000
  H   H107      1.0  0.9735099999999999  0.84798  0.58508  1.0000
  H   H108      1.0  0.99591  0.7534  0.53956  1.0000
  H   H109      1.0  0.86387  0.41969  0.36609999999999987  1.0000
  H   H110      1.0  0.84488  0.50623  0.3608699999999999  1.0000
  H   H111      1.0  0.116  0.54849  0.34516  1.0000
  H   H112      1.0  0.1666  0.5556  0.27604  1.0000
  H   H113      1.0  0.9205199999999999  0.47235  0.23634999999999998  1.0000
  H   H114      1.0  0.86956  0.4631  0.30417  1.0000
  H   H115      1.0  0.71348  0.91502  0.72959  1.0000
  H   H116      1.0  0.63934  0.94779  0.75824  1.0000
  H   H117      1.0  0.60604  0.87582  0.72585  1.0000
  H   H118      1.0  0.07566999999999999  0.8015  0.6476999999999999  1.0000
  H   H119      1.0  0.18561999999999998  0.83021  0.64544  1.0000
  H   H120      1.0  0.1349  0.83652  0.68985  1.0000
  H   H121      1.0  0.3583  0.04581  0.92881  1.0000
  H   H122      1.0  0.33133  0.95115  0.9307199999999999  1.0000
  H   H123      1.0  0.43505  0.99637  0.92971  1.0000
  H   H124      1.0  0.42446  0.88036  0.09709  1.0000
  H   H125      1.0  0.49226999999999993  0.87872  0.05809999999999999  1.0000
  H   H126      1.0  0.38978  0.82896  0.05548  1.0000
  H   H127      1.0  0.33583  0.16088  0.05424  1.0000
  H   H128      1.0  0.38374  0.13065  0.09449999999999997  1.0000
  H   H129      1.0  0.27726  0.09792  0.08652  1.0000
  H   H130      1.0  0.28143  0.1359  0.00391  1.0000
  H   H131      1.0  0.28972  0.09292  0.9594  1.0000
  H   H132      1.0  0.52083  0.26036  0.9542100000000001  1.0000
  H   H133      1.0  0.52056  0.36216  0.9091599999999997  1.0000
  H   H134      1.0  0.25765  0.30272  0.9044599999999999  1.0000
  H   H135      1.0  0.25624  0.20122  0.9492899999999999  1.0000
  H   H136      1.0  0.46891  0.86095  0.9988299999999999  1.0000
  H   H137      1.0  0.46869  0.91351  0.9566800000000001  1.0000
  H   H138      1.0  0.5062399999999999  0.80666  0.94733  1.0000
  H   H139      1.0  0.51896  0.7079  0.90303  1.0000
  H   H140      1.0  0.2575299999999999  0.64861  0.88964  1.0000
  H   H141      1.0  0.24320999999999998  0.74863  0.9337099999999999  1.0000
  H   H142      1.0  0.38545000000000007  0.9471699999999998  0.12331999999999999  1.0000
  H   H143      1.0  0.3385  0.02073  0.12459999999999999  1.0000
  H   H144      1.0  0.40867  0.95621  0.18098999999999998  1.0000
  H   H145      1.0  0.48468  0.9518299999999998  0.24162  1.0000
  H   H146      1.0  0.6801199999999997  0.12237999999999999  0.20193  1.0000
  H   H147      1.0  0.60267  0.12874  0.14  1.0000
  H   H148      1.0  0.84857  0.04803  0.9454099999999999  1.0000
  H   H149      1.0  0.84096  0.9546900000000001  0.94152  1.0000
  H   H150      1.0  0.9379899999999998  0.01422  0.94464  1.0000
  H   H151      1.0  0.83823  0.14874  0.07462999999999997  1.0000
  H   H152      1.0  0.8903299999999997  0.11401999999999998  0.11166999999999998  1.0000
  H   H153      1.0  0.78235  0.08489  0.10745  1.0000
  H   H154      1.0  0.91997  0.82178  0.0535  1.0000
  H   H155      1.0  0.8651900000000001  0.83714  0.09504  1.0000
  H   H156      1.0  0.9715299999999999  0.87547  0.09198  1.0000
  H   H157      1.0  0.97221  0.8618199999999999  0.00516  1.0000
  H   H158      1.0  0.96177  0.9149000000000002  0.96456  1.0000
  H   H159      1.0  0.7440700000000001  0.73721  0.94812  1.0000
  H   H160      1.0  0.76177  0.63021  0.91036  1.0000
  H   H161      1.0  0.02277  0.69682  0.9241  1.0000
  H   H162      1.0  0.007349999999999995  0.80544  0.95919  1.0000
  H   H163      1.0  0.77532  0.12598  0.025999999999999995  1.0000
  H   H164      1.0  0.77638  0.08564  0.98012  1.0000
  H   H165      1.0  0.73509  0.18993  0.9810599999999999  1.0000
  H   H166      1.0  0.71368  0.28509  0.93576  1.0000
  H   H167      1.0  0.9735099999999999  0.34798  0.9149199999999998  1.0000
  H   H168      1.0  0.99591  0.2534  0.96044  1.0000
  H   H169      1.0  0.86387  0.91969  0.1339  1.0000
  H   H170      1.0  0.84488  0.00623  0.13913  1.0000
  H   H171      1.0  0.116  0.04849  0.15483  1.0000
  H   H172      1.0  0.1666  0.055600000000000004  0.22395999999999994  1.0000
  H   H173      1.0  0.9205199999999999  0.9723499999999999  0.26365  1.0000
  H   H174      1.0  0.86956  0.9631  0.19582999999999998  1.0000
  H   H175      1.0  0.71348  0.41502  0.7704  1.0000
  H   H176      1.0  0.63934  0.44778999999999997  0.7417599999999998  1.0000
  H   H177      1.0  0.60604  0.37582  0.77415  1.0000
  H   H178      1.0  0.07566999999999997  0.3015  0.8523  1.0000
  H   H179      1.0  0.18561999999999998  0.33021  0.85456  1.0000
  H   H180      1.0  0.1349  0.33652  0.81014  1.0000
  H   H181      1.0  0.64171  0.45419000000000004  0.42882  1.0000
  H   H182      1.0  0.6686699999999999  0.54884  0.43072  1.0000
  H   H183      1.0  0.56495  0.50362  0.42971  1.0000
  H   H184      1.0  0.5755399999999998  0.61964  0.59709  1.0000
  H   H185      1.0  0.50774  0.62127  0.5581  1.0000
  H   H186      1.0  0.61023  0.67104  0.55548  1.0000
  H   H187      1.0  0.6641699999999999  0.33912  0.55424  1.0000
  H   H188      1.0  0.61626  0.36935  0.5945  1.0000
  H   H189      1.0  0.7227499999999998  0.40208  0.58652  1.0000
  H   H190      1.0  0.71857  0.3641  0.50391  1.0000
  H   H191      1.0  0.71028  0.40708  0.45941  1.0000
  H   H192      1.0  0.47917999999999994  0.23964  0.45421  1.0000
  H   H193      1.0  0.47945  0.13784  0.40916  1.0000
  H   H194      1.0  0.7423599999999999  0.19728  0.40446  1.0000
  H   H195      1.0  0.74377  0.29878  0.44929  1.0000
  H   H196      1.0  0.5311  0.63905  0.49883999999999995  1.0000
  H   H197      1.0  0.53131  0.58649  0.4566899999999999  1.0000
  H   H198      1.0  0.49376000000000003  0.69334  0.44733  1.0000
  H   H199      1.0  0.48105000000000003  0.7921  0.40303  1.0000
  H   H200      1.0  0.7424799999999999  0.85138  0.38964  1.0000
  H   H201      1.0  0.7567900000000001  0.75137  0.43371  1.0000
  H   H202      1.0  0.61455  0.55283  0.62332  1.0000
  H   H203      1.0  0.6615  0.4792699999999999  0.6245999999999998  1.0000
  H   H204      1.0  0.59134  0.54379  0.68099  1.0000
  H   H205      1.0  0.51533  0.54817  0.74162  1.0000
  H   H206      1.0  0.31988  0.37762  0.70193  1.0000
  H   H207      1.0  0.39734  0.37126  0.64  1.0000
  H   H208      1.0  0.15144000000000002  0.45197000000000004  0.44541  1.0000
  H   H209      1.0  0.15904  0.54531  0.44152  1.0000
  H   H210      1.0  0.062009999999999975  0.48578  0.44464  1.0000
  H   H211      1.0  0.16177  0.35126  0.57463  1.0000
  H   H212      1.0  0.10967  0.38598  0.61167  1.0000
  H   H213      1.0  0.21765  0.41511  0.60745  1.0000
  H   H214      1.0  0.08003  0.67822  0.55349  1.0000
  H   H215      1.0  0.13482  0.66286  0.5950399999999998  1.0000
  H   H216      1.0  0.028470000000000006  0.62453  0.59198  1.0000
  H   H217      1.0  0.027800000000000016  0.63818  0.50516  1.0000
  H   H218      1.0  0.03823  0.5851  0.46456  1.0000
  H   H219      1.0  0.25593  0.76279  0.44811999999999996  1.0000
  H   H220      1.0  0.23823  0.86979  0.41036  1.0000
  H   H221      1.0  0.9772300000000002  0.80318  0.4241  1.0000
  H   H222      1.0  0.99265  0.69455  0.45919  1.0000
  H   H223      1.0  0.22467999999999994  0.37402  0.52599  1.0000
  H   H224      1.0  0.22362  0.41436  0.48012000000000005  1.0000
  H   H225      1.0  0.26491  0.31007  0.48105999999999993  1.0000
  H   H226      1.0  0.28632  0.21491  0.43576  1.0000
  H   H227      1.0  0.02649  0.15202  0.41492  1.0000
  H   H228      1.0  0.004090000000000002  0.2466  0.46044  1.0000
  H   H229      1.0  0.13613  0.58031  0.6339  1.0000
  H   H230      1.0  0.15511999999999995  0.49376999999999993  0.63913  1.0000
  H   H231      1.0  0.88401  0.4515  0.6548299999999998  1.0000
  H   H232      1.0  0.8334  0.4444  0.72395  1.0000
  H   H233      1.0  0.07948  0.52765  0.76364  1.0000
  H   H234      1.0  0.13043999999999997  0.5369  0.69583  1.0000
  H   H235      1.0  0.28653  0.08498  0.27039999999999986  1.0000
  H   H236      1.0  0.36067  0.05221  0.24175999999999997  1.0000
  H   H237      1.0  0.39396  0.12418000000000001  0.27415  1.0000
  H   H238      1.0  0.9243399999999998  0.1985  0.3523  1.0000
  H   H239      1.0  0.81438  0.16979  0.35456  1.0000
  H   H240      1.0  0.8651  0.16348  0.31014  1.0000
  C   C1        1.0  0.64887  0.9464800000000001  0.99294  1.0000
  C   C2        1.0  0.62399  0.00022999999999999998  0.014639999999999999  1.0000
  C   C3        1.0  0.59761  0.05528999999999999  0.9949999999999999  1.0000
  C   C4        1.0  0.5969  0.05818  0.9539800000000002  1.0000
  C   C5        1.0  0.61917  0.0028  0.9326299999999998  1.0000
  C   C6        1.0  0.64405  0.94644  0.952  1.0000
  C   C7        1.0  0.62525  0.00105  0.05852  1.0000
  C   C8        1.0  0.5713399999999998  0.1202  0.9345999999999999  1.0000
  C   C9        1.0  0.66287  0.8861000000000001  0.92812  1.0000
  C   C10       1.0  0.67702  0.8875099999999999  0.013819999999999997  1.0000
  C   C11       1.0  0.61084  0.77713  0.0466  1.0000
  C   C12       1.0  0.53644  0.73043  0.05722  1.0000
  C   C13       1.0  0.5366899999999999  0.67387  0.08218  1.0000
  C   C14       1.0  0.61097  0.66235  0.09702  1.0000
  C   C15       1.0  0.68489  0.70766  0.08504999999999997  1.0000
  C   C16       1.0  0.6857  0.76484  0.05990999999999999  1.0000
  C   C17       1.0  0.60983  0.60343  0.12522  1.0000
  C   C18       1.0  0.56859  0.11091  0.01849  1.0000
  C   C19       1.0  0.6263599999999998  0.21541999999999997  0.05721  1.0000
  C   C20       1.0  0.54831  0.22679  0.06561  1.0000
  C   C21       1.0  0.54118  0.28251  0.09040999999999999  1.0000
  C   C22       1.0  0.6106499999999999  0.32769  0.10688  1.0000
  C   C23       1.0  0.68857  0.31584  0.09792  1.0000
  C   C24       1.0  0.69664  0.26036  0.07348  1.0000
  C   C25       1.0  0.60307  0.38853  0.13244  1.0000
  C   C26       1.0  0.61219  0.0  0.8889199999999998  1.0000
  C   C27       1.0  0.49804  0.9579500000000001  0.8440099999999998  1.0000
  C   C28       1.0  0.53187  0.00752  0.81518  1.0000
  C   C29       1.0  0.48872  0.01017  0.78074  1.0000
  C   C30       1.0  0.41211  0.9638900000000001  0.7742099999999998  1.0000
  C   C31       1.0  0.37903  0.91391  0.80326  1.0000
  C   C32       1.0  0.42149  0.9104600000000002  0.83765  1.0000
  C   C33       1.0  0.36735  0.9674100000000001  0.73749  1.0000
  C   C34       1.0  0.1014  0.061770000000000005  0.9840200000000001  1.0000
  C   C35       1.0  0.12734  0.00383  0.0008  1.0000
  C   C36       1.0  0.15339000000000003  0.9544599999999999  0.9764500000000002  1.0000
  C   C37       1.0  0.14717000000000008  0.9592300000000001  0.93573  1.0000
  C   C38       1.0  0.1254  0.01944  0.91957  1.0000
  C   C39       1.0  0.10479  0.07219  0.9434799999999999  1.0000
  C   C40       1.0  0.1255  0.99596  0.04451  1.0000
  C   C41       1.0  0.16028  0.89997  0.9093  1.0000
  C   C42       1.0  0.08556  0.13773  0.92504  1.0000
  C   C43       1.0  0.07086  0.11256  0.01008  1.0000
  C   C44       1.0  0.12595  0.22236  0.04404  1.0000
  C   C45       1.0  0.1953  0.27184  0.05786  1.0000
  C   C46       1.0  0.18532  0.33121  0.07847  1.0000
  C   C47       1.0  0.10641  0.34312  0.08481  1.0000
  C   C48       1.0  0.03789999999999999  0.29344  0.07089  1.0000
  C   C49       1.0  0.04681  0.23248  0.05106999999999999  1.0000
  C   C50       1.0  0.09678  0.40799  0.10582  1.0000
  C   C51       1.0  0.18588000000000002  0.8955600000000001  0.9942  1.0000
  C   C52       1.0  0.13311000000000003  0.78591  0.028069999999999998  1.0000
  C   C53       1.0  0.21306  0.77674  0.03395  1.0000
  C   C54       1.0  0.22507999999999997  0.72311  0.05885  1.0000
  C   C55       1.0  0.15849  0.67849  0.07769  1.0000
  C   C56       1.0  0.07832999999999997  0.68649  0.07039  1.0000
  C   C57       1.0  0.06556  0.73961  0.04552  1.0000
  C   C58       1.0  0.17346  0.62483  0.10545  1.0000
  C   C59       1.0  0.11774  0.02488  0.87632  1.0000
  C   C60       1.0  0.009630000000000003  0.99462  0.8288999999999999  1.0000
  C   C61       1.0  0.9256899999999999  0.9683199999999998  0.82095  1.0000
  C   C62       1.0  0.89808  0.9644599999999999  0.78277  1.0000
  C   C63       1.0  0.9535  0.9863299999999999  0.75205  1.0000
  C   C64       1.0  0.03706  0.0117  0.76038  1.0000
  C   C65       1.0  0.06554  0.01645  0.79852  1.0000
  C   C66       1.0  0.9260099999999999  0.98369  0.71098  1.0000
  C   C67       1.0  0.35883  0.52399  0.19753  1.0000
  C   C68       1.0  0.34785  0.57387  0.23003  1.0000
  C   C69       1.0  0.87638  0.5842  0.14784  1.0000
  C   C70       1.0  0.87073  0.65925  0.15816  1.0000
  C   C71       1.0  0.35113  0.55352  0.49294  1.0000
  C   C72       1.0  0.3760199999999999  0.49977  0.51464  1.0000
  C   C73       1.0  0.40239  0.44470999999999994  0.49500000000000005  1.0000
  C   C74       1.0  0.40310999999999986  0.44182  0.45398  1.0000
  C   C75       1.0  0.38083  0.4972  0.43263  1.0000
  C   C76       1.0  0.35595  0.55356  0.45200999999999997  1.0000
  C   C77       1.0  0.37475999999999987  0.49895000000000006  0.55852  1.0000
  C   C78       1.0  0.42867  0.3798  0.4346  1.0000
  C   C79       1.0  0.33713  0.6139  0.42811999999999995  1.0000
  C   C80       1.0  0.32298  0.61249  0.51382  1.0000
  C   C81       1.0  0.38917  0.72287  0.5466  1.0000
  C   C82       1.0  0.46357  0.76957  0.5572199999999999  1.0000
  C   C83       1.0  0.46330999999999994  0.82613  0.58218  1.0000
  C   C84       1.0  0.38903  0.83765  0.5970199999999999  1.0000
  C   C85       1.0  0.31511  0.79234  0.58505  1.0000
  C   C86       1.0  0.3143  0.73516  0.5599099999999998  1.0000
  C   C87       1.0  0.39017  0.8965699999999999  0.62522  1.0000
  C   C88       1.0  0.43141  0.38909  0.51849  1.0000
  C   C89       1.0  0.37364  0.28458  0.55721  1.0000
  C   C90       1.0  0.4517  0.27321  0.56561  1.0000
  C   C91       1.0  0.45882  0.21748999999999996  0.59041  1.0000
  C   C92       1.0  0.38935  0.17231  0.60688  1.0000
  C   C93       1.0  0.31143  0.18415  0.5979199999999998  1.0000
  C   C94       1.0  0.30335999999999996  0.23964  0.57348  1.0000
  C   C95       1.0  0.39693  0.11147  0.63244  1.0000
  C   C96       1.0  0.38782  0.5  0.38892  1.0000
  C   C97       1.0  0.50196  0.54205  0.34401  1.0000
  C   C98       1.0  0.46814  0.49248  0.31517999999999996  1.0000
  C   C99       1.0  0.5112799999999998  0.48983  0.28074  1.0000
  C   C100      1.0  0.5879  0.5361  0.27421  1.0000
  C   C101      1.0  0.62098  0.58608  0.30326  1.0000
  C   C102      1.0  0.57852  0.58954  0.33765  1.0000
  C   C103      1.0  0.6326499999999999  0.53259  0.23749  1.0000
  C   C104      1.0  0.8986099999999998  0.43822999999999995  0.48402  1.0000
  C   C105      1.0  0.8726599999999999  0.49615999999999993  0.5008  1.0000
  C   C106      1.0  0.84661  0.54553  0.47646  1.0000
  C   C107      1.0  0.8528299999999998  0.54077  0.43573  1.0000
  C   C108      1.0  0.8746  0.48056  0.4195699999999999  1.0000
  C   C109      1.0  0.89521  0.42781  0.44348  1.0000
  C   C110      1.0  0.87451  0.50404  0.54451  1.0000
  C   C111      1.0  0.83972  0.60003  0.4093  1.0000
  C   C112      1.0  0.91445  0.36227  0.42504  1.0000
  C   C113      1.0  0.92914  0.38744  0.51008  1.0000
  C   C114      1.0  0.8740499999999998  0.27764  0.54404  1.0000
  C   C115      1.0  0.80471  0.22816  0.55786  1.0000
  C   C116      1.0  0.81468  0.16879  0.57847  1.0000
  C   C117      1.0  0.89359  0.15688  0.58481  1.0000
  C   C118      1.0  0.9621100000000001  0.20656  0.57089  1.0000
  C   C119      1.0  0.95319  0.26752  0.55107  1.0000
  C   C120      1.0  0.90322  0.09201  0.60582  1.0000
  C   C121      1.0  0.81413  0.60444  0.4942  1.0000
  C   C122      1.0  0.8668899999999999  0.71409  0.52807  1.0000
  C   C123      1.0  0.78695  0.72326  0.53395  1.0000
  C   C124      1.0  0.7749299999999998  0.77689  0.55885  1.0000
  C   C125      1.0  0.84151  0.8215  0.5776899999999998  1.0000
  C   C126      1.0  0.92167  0.8135  0.57039  1.0000
  C   C127      1.0  0.93444  0.76039  0.54552  1.0000
  C   C128      1.0  0.82654  0.87517  0.60545  1.0000
  C   C129      1.0  0.8822599999999999  0.47511999999999993  0.37631999999999993  1.0000
  C   C130      1.0  0.9903799999999999  0.50538  0.3289  1.0000
  C   C131      1.0  0.07432  0.53167  0.32095  1.0000
  C   C132      1.0  0.10193000000000002  0.53554  0.28277  1.0000
  C   C133      1.0  0.046509999999999975  0.51367  0.25204999999999994  1.0000
  C   C134      1.0  0.9629500000000001  0.4883  0.26038  1.0000
  C   C135      1.0  0.93446  0.48355  0.2985199999999999  1.0000
  C   C136      1.0  0.07398999999999997  0.51631  0.21098  1.0000
  C   C137      1.0  0.64118  0.976  0.6975299999999998  1.0000
  C   C138      1.0  0.6521500000000001  0.9261300000000001  0.73003  1.0000
  C   C139      1.0  0.12362  0.9158  0.64784  1.0000
  C   C140      1.0  0.12927  0.84075  0.6581599999999999  1.0000
  C   C141      1.0  0.35113  0.05351999999999999  0.00706  1.0000
  C   C142      1.0  0.3760199999999999  0.99977  0.98536  1.0000
  C   C143      1.0  0.40238999999999997  0.9447099999999999  0.00499  1.0000
  C   C144      1.0  0.40310999999999997  0.9418200000000001  0.04602  1.0000
  C   C145      1.0  0.38083  0.9971999999999999  0.06737  1.0000
  C   C146      1.0  0.35595  0.05356  0.04799  1.0000
  C   C147      1.0  0.37475999999999987  0.99895  0.94147  1.0000
  C   C148      1.0  0.42867  0.87979  0.0654  1.0000
  C   C149      1.0  0.33712999999999993  0.1139  0.07188  1.0000
  C   C150      1.0  0.32298  0.11248999999999999  0.9861799999999998  1.0000
  C   C151      1.0  0.38916  0.22287000000000004  0.9533999999999999  1.0000
  C   C152      1.0  0.46357  0.26957  0.9427799999999998  1.0000
  C   C153      1.0  0.46331000000000006  0.32613  0.9178199999999999  1.0000
  C   C154      1.0  0.38903  0.33765  0.90297  1.0000
  C   C155      1.0  0.31511  0.29234  0.9149499999999998  1.0000
  C   C156      1.0  0.3143  0.23516  0.9400899999999999  1.0000
  C   C157      1.0  0.39017  0.39657  0.87478  1.0000
  C   C158      1.0  0.43141000000000007  0.8890900000000002  0.9815099999999999  1.0000
  C   C159      1.0  0.37364  0.78458  0.94279  1.0000
  C   C160      1.0  0.4517  0.77321  0.9343799999999999  1.0000
  C   C161      1.0  0.45883  0.71749  0.9095799999999999  1.0000
  C   C162      1.0  0.38936  0.67231  0.89312  1.0000
  C   C163      1.0  0.31143  0.68415  0.90208  1.0000
  C   C164      1.0  0.30335999999999996  0.73964  0.9265199999999998  1.0000
  C   C165      1.0  0.39694  0.61147  0.86756  1.0000
  C   C166      1.0  0.38782  0.0  0.11108  1.0000
  C   C167      1.0  0.50196  0.04205  0.15599  1.0000
  C   C168      1.0  0.46813999999999995  0.99248  0.18482  1.0000
  C   C169      1.0  0.5112799999999998  0.9898299999999999  0.21926  1.0000
  C   C170      1.0  0.5879  0.03611  0.22578999999999994  1.0000
  C   C171      1.0  0.62098  0.08608  0.19674  1.0000
  C   C172      1.0  0.57852  0.08954  0.16234  1.0000
  C   C173      1.0  0.6326499999999999  0.03259  0.26251  1.0000
  C   C174      1.0  0.8986099999999997  0.93823  0.01598  1.0000
  C   C175      1.0  0.87266  0.99616  0.9992  1.0000
  C   C176      1.0  0.84661  0.04553  0.02354  1.0000
  C   C177      1.0  0.8528299999999999  0.04077  0.06427  1.0000
  C   C178      1.0  0.8746  0.98056  0.08043  1.0000
  C   C179      1.0  0.89521  0.92781  0.05652  1.0000
  C   C180      1.0  0.87451  0.00404  0.9554899999999998  1.0000
  C   C181      1.0  0.83972  0.10003  0.0907  1.0000
  C   C182      1.0  0.9144499999999999  0.86227  0.07496  1.0000
  C   C183      1.0  0.92914  0.88744  0.98992  1.0000
  C   C184      1.0  0.8740499999999998  0.77764  0.9559599999999999  1.0000
  C   C185      1.0  0.80471  0.72816  0.94214  1.0000
  C   C186      1.0  0.81468  0.66879  0.92153  1.0000
  C   C187      1.0  0.89359  0.65688  0.9151899999999997  1.0000
  C   C188      1.0  0.9621100000000001  0.70656  0.92911  1.0000
  C   C189      1.0  0.9532  0.76752  0.94893  1.0000
  C   C190      1.0  0.90322  0.592  0.89418  1.0000
  C   C191      1.0  0.81413  0.10444  0.0058  1.0000
  C   C192      1.0  0.86689  0.21409  0.9719299999999998  1.0000
  C   C193      1.0  0.78695  0.22325999999999996  0.96605  1.0000
  C   C194      1.0  0.7749299999999998  0.27689  0.94115  1.0000
  C   C195      1.0  0.84151  0.3215  0.92231  1.0000
  C   C196      1.0  0.92167  0.31351  0.9295999999999999  1.0000
  C   C197      1.0  0.93444  0.26039  0.95448  1.0000
  C   C198      1.0  0.82654  0.37517  0.89455  1.0000
  C   C199      1.0  0.88226  0.9751200000000001  0.12368  1.0000
  C   C200      1.0  0.9903799999999999  0.00538  0.17109  1.0000
  C   C201      1.0  0.07432  0.03167  0.17904999999999993  1.0000
  C   C202      1.0  0.10193  0.03554  0.21722999999999995  1.0000
  C   C203      1.0  0.04650999999999999  0.01367  0.24795000000000003  1.0000
  C   C204      1.0  0.9629500000000001  0.9883000000000001  0.23962  1.0000
  C   C205      1.0  0.9344600000000001  0.98355  0.20148  1.0000
  C   C206      1.0  0.07398999999999997  0.01631  0.28902  1.0000
  C   C207      1.0  0.64118  0.47601  0.80247  1.0000
  C   C208      1.0  0.65215  0.42613  0.7699699999999999  1.0000
  C   C209      1.0  0.12362  0.4158  0.85215  1.0000
  C   C210      1.0  0.12927  0.34075  0.84184  1.0000
  C   C211      1.0  0.64887  0.44648  0.50706  1.0000
  C   C212      1.0  0.62398  0.50023  0.48535999999999996  1.0000
  C   C213      1.0  0.59761  0.55529  0.5049899999999998  1.0000
  C   C214      1.0  0.5969  0.55817  0.54602  1.0000
  C   C215      1.0  0.6191700000000001  0.5028  0.56736  1.0000
  C   C216      1.0  0.64405  0.44644  0.54799  1.0000
  C   C217      1.0  0.62525  0.50105  0.44148  1.0000
  C   C218      1.0  0.5713399999999998  0.6202  0.5654  1.0000
  C   C219      1.0  0.66287  0.3861  0.57188  1.0000
  C   C220      1.0  0.67702  0.38751  0.48617999999999995  1.0000
  C   C221      1.0  0.61084  0.27713  0.4534  1.0000
  C   C222      1.0  0.53644  0.23043  0.44278  1.0000
  C   C223      1.0  0.5366899999999999  0.17387  0.41782  1.0000
  C   C224      1.0  0.61097  0.16235  0.40297  1.0000
  C   C225      1.0  0.68489  0.20766  0.41495  1.0000
  C   C226      1.0  0.6857  0.26484  0.44009  1.0000
  C   C227      1.0  0.60983  0.10343  0.37478  1.0000
  C   C228      1.0  0.56859  0.61091  0.48151  1.0000
  C   C229      1.0  0.62637  0.71542  0.4427899999999999  1.0000
  C   C230      1.0  0.54831  0.72679  0.43439  1.0000
  C   C231      1.0  0.54118  0.78251  0.40958  1.0000
  C   C232      1.0  0.61065  0.82769  0.39312  1.0000
  C   C233      1.0  0.68857  0.81584  0.40208  1.0000
  C   C234      1.0  0.69664  0.76036  0.42652  1.0000
  C   C235      1.0  0.60307  0.8885299999999999  0.36756  1.0000
  C   C236      1.0  0.61219  0.5  0.61108  1.0000
  C   C237      1.0  0.49804  0.45795  0.65599  1.0000
  C   C238      1.0  0.53187  0.50752  0.68482  1.0000
  C   C239      1.0  0.48872  0.51017  0.71926  1.0000
  C   C240      1.0  0.41211  0.46388999999999997  0.72579  1.0000
  C   C241      1.0  0.37903  0.41391  0.69674  1.0000
  C   C242      1.0  0.42149  0.41046  0.66234  1.0000
  C   C243      1.0  0.36735  0.46741  0.76251  1.0000
  C   C244      1.0  0.1014  0.56177  0.51598  1.0000
  C   C245      1.0  0.12734  0.50383  0.4991999999999999  1.0000
  C   C246      1.0  0.15339  0.45446000000000003  0.52354  1.0000
  C   C247      1.0  0.14716999999999994  0.45922999999999997  0.56427  1.0000
  C   C248      1.0  0.1254  0.51944  0.58043  1.0000
  C   C249      1.0  0.10479  0.57219  0.55651  1.0000
  C   C250      1.0  0.1255  0.49596  0.45549  1.0000
  C   C251      1.0  0.16028  0.39997  0.5907  1.0000
  C   C252      1.0  0.08556000000000002  0.63773  0.57496  1.0000
  C   C253      1.0  0.07085999999999998  0.61256  0.48992  1.0000
  C   C254      1.0  0.12595  0.72236  0.45596  1.0000
  C   C255      1.0  0.1953  0.77184  0.44213999999999987  1.0000
  C   C256      1.0  0.18531999999999998  0.83121  0.42153  1.0000
  C   C257      1.0  0.10641  0.84312  0.41519  1.0000
  C   C258      1.0  0.03790000000000002  0.79344  0.42911  1.0000
  C   C259      1.0  0.046809999999999984  0.73248  0.44893  1.0000
  C   C260      1.0  0.09678  0.90799  0.39418  1.0000
  C   C261      1.0  0.18587  0.39556  0.5058  1.0000
  C   C262      1.0  0.13311  0.28591  0.47192999999999996  1.0000
  C   C263      1.0  0.21306  0.27674  0.46605  1.0000
  C   C264      1.0  0.22508  0.22311  0.44115  1.0000
  C   C265      1.0  0.15849  0.1785  0.42231  1.0000
  C   C266      1.0  0.07833  0.18649  0.42961  1.0000
  C   C267      1.0  0.06556  0.23961  0.4544799999999999  1.0000
  C   C268      1.0  0.17346  0.12483  0.3945499999999999  1.0000
  C   C269      1.0  0.11774  0.52488  0.62368  1.0000
  C   C270      1.0  0.009630000000000003  0.49462000000000006  0.67109  1.0000
  C   C271      1.0  0.92569  0.46831999999999996  0.6790499999999999  1.0000
  C   C272      1.0  0.89808  0.46446  0.71723  1.0000
  C   C273      1.0  0.9535  0.48633  0.74795  1.0000
  C   C274      1.0  0.037059999999999975  0.5117  0.73962  1.0000
  C   C275      1.0  0.06554  0.51645  0.70148  1.0000
  C   C276      1.0  0.9260099999999999  0.48369  0.78902  1.0000
  C   C277      1.0  0.35883  0.02399  0.30247  1.0000
  C   C278      1.0  0.34785  0.07387  0.26997  1.0000
  C   C279      1.0  0.87638  0.0842  0.35215  1.0000
  C   C280      1.0  0.87073  0.15925  0.34184  1.0000
  O   O1        1.0  0.60324  0.83326  0.0233  1.0000
  O   O2        1.0  0.53992  0.56256  0.13326  1.0000
  O   O3        1.0  0.6778900000000001  0.59714  0.14019999999999994  1.0000
  O   O4        1.0  0.64035  0.16224  0.033269999999999994  1.0000
  O   O5        1.0  0.66929  0.43005  0.14435  1.0000
  O   O6        1.0  0.53038  0.39601  0.14065  1.0000
  O   O7        1.0  0.53347  0.95187  0.87941  1.0000
  O   O8        1.0  0.4041599999999999  0.007279999999999999  0.7089  1.0000
  O   O9        1.0  0.29331000000000007  0.9345100000000001  0.73253  1.0000
  O   O10       1.0  0.14195  0.16607  0.02332  1.0000
  O   O11       1.0  0.026059999999999993  0.42387  0.10513  1.0000
  O   O12       1.0  0.15986999999999996  0.44422  0.12324  1.0000
  O   O13       1.0  0.03146999999999995  0.99657  0.8673499999999998  1.0000
  O   O14       1.0  0.84943  0.96206  0.70321  1.0000
  O   O15       1.0  0.9820700000000001  0.00428  0.6855199999999998  1.0000
  O   O16       1.0  0.11571999999999998  0.83965  0.00586  1.0000
  O   O17       1.0  0.24584  0.62141  0.11526  1.0000
  O   O18       1.0  0.11185  0.5803  0.121  1.0000
  O   O19       1.0  0.3133  0.5166  0.16774  1.0000
  O   O20       1.0  0.41767  0.49204  0.20116999999999993  1.0000
  O   O21       1.0  0.9336899999999998  0.57619  0.12483999999999999  1.0000
  O   O22       1.0  0.8251  0.53141  0.1623  1.0000
  O   O23       1.0  0.3967599999999999  0.66674  0.5233  1.0000
  O   O24       1.0  0.46009  0.9374399999999999  0.6332599999999998  1.0000
  O   O25       1.0  0.32212  0.90286  0.6402  1.0000
  O   O26       1.0  0.35965  0.33776  0.53327  1.0000
  O   O27       1.0  0.33070999999999995  0.06995  0.64435  1.0000
  O   O28       1.0  0.46963  0.10399  0.64065  1.0000
  O   O29       1.0  0.46654  0.54813  0.37941  1.0000
  O   O30       1.0  0.59585  0.49272  0.2089  1.0000
  O   O31       1.0  0.70669  0.56549  0.23252999999999996  1.0000
  O   O32       1.0  0.85806  0.33393  0.52332  1.0000
  O   O33       1.0  0.97394  0.07613  0.60513  1.0000
  O   O34       1.0  0.8401299999999998  0.05578  0.62324  1.0000
  O   O35       1.0  0.9685399999999998  0.50343  0.36735  1.0000
  O   O36       1.0  0.15057999999999994  0.53794  0.20321999999999998  1.0000
  O   O37       1.0  0.017929999999999988  0.49572  0.18552  1.0000
  O   O38       1.0  0.88428  0.66035  0.50586  1.0000
  O   O39       1.0  0.75417  0.87858  0.6152599999999998  1.0000
  O   O40       1.0  0.88816  0.91969  0.621  1.0000
  O   O41       1.0  0.68671  0.9834  0.6677399999999998  1.0000
  O   O42       1.0  0.58233  0.00796  0.70117  1.0000
  O   O43       1.0  0.06632000000000006  0.9238  0.6248299999999998  1.0000
  O   O44       1.0  0.17490000000000006  0.96859  0.6623  1.0000
  O   O45       1.0  0.3967599999999999  0.16674  0.9767  1.0000
  O   O46       1.0  0.46009  0.43744  0.86674  1.0000
  O   O47       1.0  0.32212  0.40286  0.8597999999999998  1.0000
  O   O48       1.0  0.35965  0.83776  0.9667299999999999  1.0000
  O   O49       1.0  0.33070999999999995  0.56995  0.85565  1.0000
  O   O50       1.0  0.46963  0.60399  0.8593499999999998  1.0000
  O   O51       1.0  0.46654  0.04813  0.12059  1.0000
  O   O52       1.0  0.59585  0.99272  0.2911  1.0000
  O   O53       1.0  0.70669  0.06549  0.26747  1.0000
  O   O54       1.0  0.85806  0.83393  0.9766800000000001  1.0000
  O   O55       1.0  0.97394  0.57613  0.89487  1.0000
  O   O56       1.0  0.8401299999999998  0.55578  0.87676  1.0000
  O   O57       1.0  0.9685399999999998  0.00343  0.13265  1.0000
  O   O58       1.0  0.15057  0.03794  0.29678  1.0000
  O   O59       1.0  0.017930000000000026  0.99572  0.31448  1.0000
  O   O60       1.0  0.88428  0.16035  0.99414  1.0000
  O   O61       1.0  0.75417  0.37858  0.88474  1.0000
  O   O62       1.0  0.88816  0.4197  0.87899  1.0000
  O   O63       1.0  0.68671  0.4834  0.83226  1.0000
  O   O64       1.0  0.58233  0.50796  0.79883  1.0000
  O   O65       1.0  0.06632  0.4238  0.87516  1.0000
  O   O66       1.0  0.1749  0.46859000000000006  0.8377  1.0000
  O   O67       1.0  0.60324  0.33326  0.47669999999999996  1.0000
  O   O68       1.0  0.53992  0.06256  0.36674  1.0000
  O   O69       1.0  0.67789  0.09714  0.3598  1.0000
  O   O70       1.0  0.64035  0.66224  0.4667299999999999  1.0000
  O   O71       1.0  0.66929  0.9300499999999999  0.3556499999999999  1.0000
  O   O72       1.0  0.53038  0.8960099999999999  0.35935  1.0000
  O   O73       1.0  0.53347  0.45186999999999994  0.6205899999999999  1.0000
  O   O74       1.0  0.4041599999999999  0.50728  0.7910999999999999  1.0000
  O   O75       1.0  0.29331  0.43451  0.76747  1.0000
  O   O76       1.0  0.14195  0.66607  0.47668  1.0000
  O   O77       1.0  0.02606999999999998  0.9238699999999999  0.39487  1.0000
  O   O78       1.0  0.15986999999999993  0.94422  0.37676  1.0000
  O   O79       1.0  0.031469999999999984  0.49656999999999996  0.63265  1.0000
  O   O80       1.0  0.84943  0.4620600000000001  0.79678  1.0000
  O   O81       1.0  0.9820799999999998  0.50428  0.81448  1.0000
  O   O82       1.0  0.11572  0.33965  0.49414  1.0000
  O   O83       1.0  0.24584  0.12141  0.38474  1.0000
  O   O84       1.0  0.11185  0.0803  0.3789999999999999  1.0000
  O   O85       1.0  0.31329  0.0166  0.33226  1.0000
  O   O86       1.0  0.41767  0.99204  0.29883  1.0000
  O   O87       1.0  0.9336899999999998  0.07619  0.37516  1.0000
  O   O88       1.0  0.8251  0.03141  0.3377  1.0000
