data_image0
_chemical_formula_structural       Cd32H128C192N160Cl24
_chemical_formula_sum              "Cd32 H128 C192 N160 Cl24"
_cell_length_a       21.28659
_cell_length_b       22.53073
_cell_length_c       35.71167
_cell_angle_alpha    89.98566
_cell_angle_beta     90.0
_cell_angle_gamma    90.0

_space_group_name_H-M_alt    "P 1"
_space_group_IT_number       1

loop_
  _space_group_symop_operation_xyz
  'x, y, z'

loop_
  _atom_site_type_symbol
  _atom_site_label
  _atom_site_symmetry_multiplicity
  _atom_site_fract_x
  _atom_site_fract_y
  _atom_site_fract_z
  _atom_site_occupancy
  Cd  Cd1       1.0  0.63724  0.35741000000000006  0.07794  1.0000
  Cd  Cd2       1.0  0.74817  0.38479  0.15591  1.0000
  Cd  Cd3       1.0  0.8713099999999999  0.23563  0.82901  1.0000
  Cd  Cd4       1.0  0.86289  0.3550200000000001  0.8971400000000002  1.0000
  Cd  Cd5       1.0  0.8627999999999999  0.85755  0.42200000000000004  1.0000
  Cd  Cd6       1.0  0.75171  0.8847100000000002  0.34408  1.0000
  Cd  Cd7       1.0  0.62849  0.7357300000000002  0.67083  1.0000
  Cd  Cd8       1.0  0.6375  0.8552200000000002  0.60271  1.0000
  Cd  Cd9       1.0  0.63724  0.14258  0.9220600000000001  1.0000
  Cd  Cd10      1.0  0.74817  0.1152  0.84409  1.0000
  Cd  Cd11      1.0  0.8713099999999999  0.26437  0.17099  1.0000
  Cd  Cd12      1.0  0.86289  0.14497  0.10286  1.0000
  Cd  Cd13      1.0  0.8627999999999999  0.64245  0.578  1.0000
  Cd  Cd14      1.0  0.75171  0.61528  0.65592  1.0000
  Cd  Cd15      1.0  0.62849  0.76426  0.32917  1.0000
  Cd  Cd16      1.0  0.6375  0.64478  0.39729  1.0000
  Cd  Cd17      1.0  0.36277  0.6425800000000002  0.92207  1.0000
  Cd  Cd18      1.0  0.25184  0.6152  0.84409  1.0000
  Cd  Cd19      1.0  0.1287  0.76437  0.17099  1.0000
  Cd  Cd20      1.0  0.13712  0.6449700000000002  0.10286  1.0000
  Cd  Cd21      1.0  0.1372  0.14244  0.578  1.0000
  Cd  Cd22      1.0  0.2483  0.11528  0.65592  1.0000
  Cd  Cd23      1.0  0.37151  0.26426  0.32917  1.0000
  Cd  Cd24      1.0  0.3625  0.14478000000000002  0.39729  1.0000
  Cd  Cd25      1.0  0.36277  0.8574200000000001  0.07794  1.0000
  Cd  Cd26      1.0  0.25183  0.8847900000000001  0.15591  1.0000
  Cd  Cd27      1.0  0.1287  0.7356200000000002  0.82902  1.0000
  Cd  Cd28      1.0  0.13712  0.85502  0.8971400000000002  1.0000
  Cd  Cd29      1.0  0.1372  0.3575500000000001  0.42200000000000004  1.0000
  Cd  Cd30      1.0  0.2483  0.38471  0.34408  1.0000
  Cd  Cd31      1.0  0.37151  0.23573000000000002  0.67083  1.0000
  Cd  Cd32      1.0  0.3625  0.35522000000000004  0.60271  1.0000
  H   H1        1.0  0.44043999999999994  0.27038  0.18408  1.0000
  H   H2        1.0  0.58253  0.3301700000000001  0.26158  1.0000
  H   H3        1.0  0.5105  0.30057000000000006  0.31403  1.0000
  H   H4        1.0  0.37424  0.24233000000000005  0.23968  1.0000
  H   H5        1.0  0.07106  0.4237700000000001  0.12565  1.0000
  H   H6        1.0  0.9226899999999999  0.5434900000000001  0.09244000000000001  1.0000
  H   H7        1.0  0.00504  0.6173700000000001  0.07588000000000002  1.0000
  H   H8        1.0  0.14806  0.50192  0.10778  1.0000
  H   H9        1.0  0.77914  0.3681  0.9689800000000001  1.0000
  H   H10       1.0  0.6108  0.26401  0.94779  1.0000
  H   H11       1.0  0.56124  0.3149  0.00116  1.0000
  H   H12       1.0  0.72332  0.4142200000000001  0.02182  1.0000
  H   H13       1.0  0.69637  0.4666600000000001  0.29287  1.0000
  H   H14       1.0  0.70964  0.60642  0.21067  1.0000
  H   H15       1.0  0.73232  0.5280100000000001  0.16251  1.0000
  H   H16       1.0  0.72097  0.3940600000000001  0.24154000000000003  1.0000
  H   H17       1.0  0.05941  0.77024  0.31601  1.0000
  H   H18       1.0  0.9175399999999999  0.8299900000000001  0.23833  1.0000
  H   H19       1.0  0.98986  0.8006600000000001  0.18597  1.0000
  H   H20       1.0  0.12599  0.74252  0.26047  1.0000
  H   H21       1.0  0.4284899999999999  0.92365  0.37451  1.0000
  H   H22       1.0  0.57709  0.04311000000000001  0.40768  1.0000
  H   H23       1.0  0.49487  0.11715  0.42422  1.0000
  H   H24       1.0  0.35167  0.00186  0.39235  1.0000
  H   H25       1.0  0.72127  0.86803  0.53103  1.0000
  H   H26       1.0  0.8896299999999999  0.7639500000000001  0.55213  1.0000
  H   H27       1.0  0.9391199999999998  0.8149000000000002  0.49875  1.0000
  H   H28       1.0  0.77701  0.9142200000000003  0.4781500000000001  1.0000
  H   H29       1.0  0.80336  0.96671  0.20717000000000005  1.0000
  H   H30       1.0  0.7902499999999999  0.10647  0.28934000000000004  1.0000
  H   H31       1.0  0.7677600000000001  0.02806  0.33755000000000007  1.0000
  H   H32       1.0  0.7789599999999999  0.8941200000000001  0.25854  1.0000
  H   H33       1.0  0.44043999999999994  0.22961  0.81592  1.0000
  H   H34       1.0  0.58253  0.16982  0.7384300000000001  1.0000
  H   H35       1.0  0.5105  0.19943  0.68597  1.0000
  H   H36       1.0  0.37424  0.25766  0.7603200000000001  1.0000
  H   H37       1.0  0.07106  0.07622  0.8743500000000001  1.0000
  H   H38       1.0  0.9226899999999999  0.9565000000000001  0.9075600000000001  1.0000
  H   H39       1.0  0.00504  0.88263  0.92413  1.0000
  H   H40       1.0  0.14806  0.9980700000000001  0.89223  1.0000
  H   H41       1.0  0.77914  0.13190000000000002  0.03102  1.0000
  H   H42       1.0  0.6108  0.23599000000000006  0.05221  1.0000
  H   H43       1.0  0.56124  0.1851  0.9988400000000001  1.0000
  H   H44       1.0  0.72333  0.08577000000000001  0.9781900000000001  1.0000
  H   H45       1.0  0.69638  0.03334000000000001  0.70713  1.0000
  H   H46       1.0  0.70965  0.89357  0.78932  1.0000
  H   H47       1.0  0.73233  0.9719800000000002  0.83749  1.0000
  H   H48       1.0  0.72097  0.10593  0.75847  1.0000
  H   H49       1.0  0.05941  0.72975  0.68399  1.0000
  H   H50       1.0  0.9175399999999999  0.67001  0.76167  1.0000
  H   H51       1.0  0.98986  0.69934  0.81404  1.0000
  H   H52       1.0  0.12599  0.7574800000000003  0.73954  1.0000
  H   H53       1.0  0.4284899999999999  0.57635  0.62549  1.0000
  H   H54       1.0  0.57709  0.45688000000000006  0.59232  1.0000
  H   H55       1.0  0.49487  0.38285000000000013  0.57579  1.0000
  H   H56       1.0  0.35167  0.4981400000000001  0.60765  1.0000
  H   H57       1.0  0.72127  0.63196  0.46897000000000005  1.0000
  H   H58       1.0  0.88964  0.73605  0.44787000000000005  1.0000
  H   H59       1.0  0.9391199999999998  0.6851  0.50125  1.0000
  H   H60       1.0  0.77701  0.58578  0.52186  1.0000
  H   H61       1.0  0.80336  0.53328  0.79283  1.0000
  H   H62       1.0  0.7902499999999999  0.39353000000000005  0.71066  1.0000
  H   H63       1.0  0.7677600000000001  0.47194  0.66245  1.0000
  H   H64       1.0  0.7789599999999999  0.6058700000000001  0.74146  1.0000
  H   H65       1.0  0.55957  0.72961  0.81592  1.0000
  H   H66       1.0  0.4174800000000001  0.66982  0.73842  1.0000
  H   H67       1.0  0.4895  0.6994300000000001  0.68597  1.0000
  H   H68       1.0  0.62576  0.7576600000000002  0.7603200000000001  1.0000
  H   H69       1.0  0.92894  0.57622  0.8743500000000001  1.0000
  H   H70       1.0  0.07731  0.4565  0.9075600000000001  1.0000
  H   H71       1.0  0.9949599999999998  0.38263  0.9241200000000002  1.0000
  H   H72       1.0  0.8519399999999999  0.49807  0.89223  1.0000
  H   H73       1.0  0.22086  0.6319  0.03102  1.0000
  H   H74       1.0  0.38921  0.73599  0.05221  1.0000
  H   H75       1.0  0.43876  0.6851  0.9988500000000001  1.0000
  H   H76       1.0  0.27668  0.58578  0.9781900000000001  1.0000
  H   H77       1.0  0.30363  0.53334  0.70713  1.0000
  H   H78       1.0  0.29036  0.39358  0.78933  1.0000
  H   H79       1.0  0.26768  0.4719800000000001  0.83749  1.0000
  H   H80       1.0  0.27903  0.6059300000000001  0.75846  1.0000
  H   H81       1.0  0.94059  0.22975000000000007  0.68399  1.0000
  H   H82       1.0  0.08246  0.17000000000000004  0.76167  1.0000
  H   H83       1.0  0.01014  0.19934000000000002  0.81404  1.0000
  H   H84       1.0  0.87401  0.25748  0.73953  1.0000
  H   H85       1.0  0.57151  0.07635000000000002  0.62549  1.0000
  H   H86       1.0  0.42292  0.95688  0.59232  1.0000
  H   H87       1.0  0.50513  0.88285  0.57578  1.0000
  H   H88       1.0  0.64834  0.99814  0.60765  1.0000
  H   H89       1.0  0.27874  0.13196  0.46897000000000005  1.0000
  H   H90       1.0  0.11037  0.23605000000000004  0.44787000000000005  1.0000
  H   H91       1.0  0.06088999999999999  0.1851  0.50125  1.0000
  H   H92       1.0  0.22300000000000003  0.08578  0.52185  1.0000
  H   H93       1.0  0.19663999999999998  0.033280000000000004  0.79283  1.0000
  H   H94       1.0  0.20974999999999996  0.8935300000000002  0.71066  1.0000
  H   H95       1.0  0.23224  0.9719300000000002  0.66245  1.0000
  H   H96       1.0  0.22105  0.10587  0.74146  1.0000
  H   H97       1.0  0.55957  0.7703900000000001  0.18408  1.0000
  H   H98       1.0  0.4174800000000001  0.8301700000000001  0.26157  1.0000
  H   H99       1.0  0.4895  0.80057  0.31403  1.0000
  H   H100      1.0  0.62576  0.74233  0.23968  1.0000
  H   H101      1.0  0.92894  0.92378  0.12565  1.0000
  H   H102      1.0  0.07731  0.04349  0.09244000000000001  1.0000
  H   H103      1.0  0.9949599999999998  0.11737  0.07587  1.0000
  H   H104      1.0  0.8519399999999999  0.00193  0.10777000000000002  1.0000
  H   H105      1.0  0.22086  0.8681000000000002  0.9689800000000001  1.0000
  H   H106      1.0  0.38921  0.7640100000000001  0.94779  1.0000
  H   H107      1.0  0.43876  0.8149000000000002  0.00116  1.0000
  H   H108      1.0  0.27668  0.9142200000000003  0.02182  1.0000
  H   H109      1.0  0.30363  0.9666600000000002  0.29287  1.0000
  H   H110      1.0  0.29036  0.10642  0.21068  1.0000
  H   H111      1.0  0.26768  0.02802  0.16251  1.0000
  H   H112      1.0  0.27903  0.8940600000000002  0.24154000000000003  1.0000
  H   H113      1.0  0.94059  0.27024  0.31601  1.0000
  H   H114      1.0  0.08246  0.32999  0.23833  1.0000
  H   H115      1.0  0.01014  0.30066000000000004  0.18596  1.0000
  H   H116      1.0  0.87401  0.24252000000000007  0.26047  1.0000
  H   H117      1.0  0.57151  0.4236500000000001  0.37451  1.0000
  H   H118      1.0  0.42292  0.54311  0.40768  1.0000
  H   H119      1.0  0.50513  0.61715  0.42421  1.0000
  H   H120      1.0  0.64834  0.50186  0.39235  1.0000
  H   H121      1.0  0.27874  0.36803  0.53103  1.0000
  H   H122      1.0  0.11037  0.26395  0.55213  1.0000
  H   H123      1.0  0.06087999999999999  0.3149  0.49875  1.0000
  H   H124      1.0  0.22300000000000003  0.4142200000000001  0.4781500000000001  1.0000
  H   H125      1.0  0.19663999999999998  0.4667200000000001  0.20717000000000005  1.0000
  H   H126      1.0  0.20974999999999996  0.6064700000000001  0.28934000000000004  1.0000
  H   H127      1.0  0.23224  0.52806  0.33755000000000007  1.0000
  H   H128      1.0  0.22105  0.39413  0.25854  1.0000
  C   C1        1.0  0.55822  0.3212  0.18822  1.0000
  C   C2        1.0  0.51677  0.30296  0.21864  1.0000
  C   C3        1.0  0.45749  0.27755  0.21244  1.0000
  C   C4        1.0  0.53672  0.31086  0.25584  1.0000
  C   C5        1.0  0.49721  0.29419  0.28485  1.0000
  C   C6        1.0  0.42064  0.26199  0.2431  1.0000
  C   C7        1.0  0.9424199999999999  0.43645000000000006  0.12489  1.0000
  C   C8        1.0  0.98986  0.4776600000000001  0.11141  1.0000
  C   C9        1.0  0.05475  0.46591  0.11438  1.0000
  C   C10       1.0  0.97215  0.53267  0.09584  1.0000
  C   C11       1.0  0.01778  0.57357  0.08621  1.0000
  C   C12       1.0  0.09787000000000001  0.50913  0.10422  1.0000
  C   C13       1.0  0.73409  0.27224000000000004  0.92751  1.0000
  C   C14       1.0  0.70242  0.30634  0.95539  1.0000
  C   C15       1.0  0.73167  0.35344  0.9757  1.0000
  C   C16       1.0  0.63844  0.29481  0.96454  1.0000
  C   C17       1.0  0.61019  0.3234000000000001  0.9941  1.0000
  C   C18       1.0  0.701  0.37970000000000004  0.00515  1.0000
  C   C19       1.0  0.68671  0.5856800000000001  0.2849  1.0000
  C   C20       1.0  0.70153  0.5425300000000001  0.2558  1.0000
  C   C21       1.0  0.70467  0.48180000000000006  0.26438  1.0000
  C   C22       1.0  0.71181  0.5598400000000001  0.21851  1.0000
  C   C23       1.0  0.72476  0.51663  0.19181000000000004  1.0000
  C   C24       1.0  0.71804  0.44152  0.23611  1.0000
  C   C25       1.0  0.9417799999999998  0.82113  0.31175  1.0000
  C   C26       1.0  0.98327  0.8028800000000003  0.28136  1.0000
  C   C27       1.0  0.04254  0.77749  0.28762  1.0000
  C   C28       1.0  0.9633799999999999  0.81079  0.24413  1.0000
  C   C29       1.0  0.0030499999999999998  0.7942600000000002  0.21518000000000004  1.0000
  C   C30       1.0  0.07955  0.7620900000000003  0.25701  1.0000
  C   C31       1.0  0.55732  0.93626  0.3752  1.0000
  C   C32       1.0  0.50983  0.9774300000000001  0.38868  1.0000
  C   C33       1.0  0.44492  0.9657700000000002  0.38573  1.0000
  C   C34       1.0  0.5276  0.03242  0.40425  1.0000
  C   C35       1.0  0.48203  0.07338000000000001  0.41388  1.0000
  C   C36       1.0  0.40187  0.009040000000000001  0.39589  1.0000
  C   C37       1.0  0.76624  0.7722800000000001  0.57245  1.0000
  C   C38       1.0  0.798  0.8063200000000003  0.54459  1.0000
  C   C39       1.0  0.76876  0.8534600000000001  0.52428  1.0000
  C   C40       1.0  0.86197  0.7948100000000001  0.5354  1.0000
  C   C41       1.0  0.89018  0.82338  0.50583  1.0000
  C   C42       1.0  0.79936  0.8797000000000001  0.49482000000000004  1.0000
  C   C43       1.0  0.8130499999999999  0.08577000000000001  0.21513  1.0000
  C   C44       1.0  0.79816  0.0426  0.24422  1.0000
  C   C45       1.0  0.79503  0.9818800000000001  0.23564000000000002  1.0000
  C   C46       1.0  0.78798  0.05990000000000001  0.28151  1.0000
  C   C47       1.0  0.7750999999999999  0.01669  0.30823  1.0000
  C   C48       1.0  0.78175  0.9415900000000003  0.26394  1.0000
  C   C49       1.0  0.55822  0.1788  0.81178  1.0000
  C   C50       1.0  0.51677  0.19704  0.78137  1.0000
  C   C51       1.0  0.45749  0.22244000000000003  0.78756  1.0000
  C   C52       1.0  0.53672  0.18913  0.74416  1.0000
  C   C53       1.0  0.49721  0.20581000000000002  0.71516  1.0000
  C   C54       1.0  0.42063  0.23800000000000004  0.7569  1.0000
  C   C55       1.0  0.9424199999999999  0.06355  0.87511  1.0000
  C   C56       1.0  0.9898699999999999  0.022340000000000002  0.88859  1.0000
  C   C57       1.0  0.05475  0.03408  0.88562  1.0000
  C   C58       1.0  0.97215  0.9673200000000002  0.9041600000000001  1.0000
  C   C59       1.0  0.01778  0.92643  0.9138  1.0000
  C   C60       1.0  0.09787000000000001  0.99087  0.89578  1.0000
  C   C61       1.0  0.73409  0.22775  0.07249  1.0000
  C   C62       1.0  0.70242  0.19366000000000003  0.04461  1.0000
  C   C63       1.0  0.73167  0.14655000000000004  0.0243  1.0000
  C   C64       1.0  0.63844  0.20518  0.03546  1.0000
  C   C65       1.0  0.61019  0.17660000000000003  0.0059  1.0000
  C   C66       1.0  0.701  0.12030000000000003  0.9948500000000001  1.0000
  C   C67       1.0  0.68671  0.91431  0.7151  1.0000
  C   C68       1.0  0.70153  0.95747  0.7442000000000001  1.0000
  C   C69       1.0  0.70467  0.0182  0.73562  1.0000
  C   C70       1.0  0.71181  0.94015  0.78149  1.0000
  C   C71       1.0  0.72476  0.98336  0.80819  1.0000
  C   C72       1.0  0.71804  0.05848000000000001  0.7639  1.0000
  C   C73       1.0  0.9417799999999998  0.67887  0.68825  1.0000
  C   C74       1.0  0.98327  0.69712  0.71864  1.0000
  C   C75       1.0  0.04254  0.7225100000000001  0.71238  1.0000
  C   C76       1.0  0.9633799999999999  0.6892000000000001  0.75587  1.0000
  C   C77       1.0  0.0030499999999999998  0.7057300000000001  0.78483  1.0000
  C   C78       1.0  0.07955  0.73791  0.743  1.0000
  C   C79       1.0  0.55732  0.5637400000000001  0.6248000000000001  1.0000
  C   C80       1.0  0.50983  0.5225600000000001  0.61133  1.0000
  C   C81       1.0  0.44492  0.53423  0.61427  1.0000
  C   C82       1.0  0.5276  0.46758000000000005  0.59575  1.0000
  C   C83       1.0  0.48203  0.42662  0.58612  1.0000
  C   C84       1.0  0.40187  0.49096000000000006  0.60411  1.0000
  C   C85       1.0  0.76624  0.72772  0.42755  1.0000
  C   C86       1.0  0.798  0.69368  0.45541  1.0000
  C   C87       1.0  0.76876  0.6465400000000001  0.47572000000000003  1.0000
  C   C88       1.0  0.86197  0.70519  0.46460000000000007  1.0000
  C   C89       1.0  0.89018  0.67662  0.49417  1.0000
  C   C90       1.0  0.79936  0.6203000000000001  0.50518  1.0000
  C   C91       1.0  0.8130499999999999  0.41423  0.78487  1.0000
  C   C92       1.0  0.79816  0.4574  0.75578  1.0000
  C   C93       1.0  0.79503  0.51812  0.76436  1.0000
  C   C94       1.0  0.78798  0.4401  0.7184800000000001  1.0000
  C   C95       1.0  0.7750999999999999  0.48331  0.69177  1.0000
  C   C96       1.0  0.78175  0.55841  0.73606  1.0000
  C   C97       1.0  0.44178000000000006  0.6788000000000001  0.81178  1.0000
  C   C98       1.0  0.48324  0.6970400000000001  0.78137  1.0000
  C   C99       1.0  0.54252  0.7224400000000001  0.78756  1.0000
  C   C100      1.0  0.46328  0.68913  0.74416  1.0000
  C   C101      1.0  0.50279  0.7058  0.71516  1.0000
  C   C102      1.0  0.57937  0.738  0.7569  1.0000
  C   C103      1.0  0.05757999999999999  0.56355  0.87511  1.0000
  C   C104      1.0  0.01014  0.52234  0.88859  1.0000
  C   C105      1.0  0.94526  0.53409  0.88562  1.0000
  C   C106      1.0  0.02786  0.46732  0.9041600000000001  1.0000
  C   C107      1.0  0.98222  0.4264300000000001  0.91379  1.0000
  C   C108      1.0  0.90213  0.4908700000000001  0.89578  1.0000
  C   C109      1.0  0.26591  0.7277500000000002  0.07249  1.0000
  C   C110      1.0  0.29759  0.6936600000000002  0.04462  1.0000
  C   C111      1.0  0.26834  0.6465500000000001  0.0243  1.0000
  C   C112      1.0  0.36156  0.70518  0.03546  1.0000
  C   C113      1.0  0.38982  0.6766  0.0059  1.0000
  C   C114      1.0  0.299  0.6203000000000001  0.9948500000000001  1.0000
  C   C115      1.0  0.3133  0.41431000000000007  0.7151  1.0000
  C   C116      1.0  0.29847  0.45747000000000004  0.7442000000000001  1.0000
  C   C117      1.0  0.29533  0.5182  0.73562  1.0000
  C   C118      1.0  0.2882  0.44015000000000004  0.78149  1.0000
  C   C119      1.0  0.27524  0.4833600000000001  0.80819  1.0000
  C   C120      1.0  0.28196  0.55847  0.76389  1.0000
  C   C121      1.0  0.05823  0.17887  0.68825  1.0000
  C   C122      1.0  0.01673  0.19712000000000002  0.71864  1.0000
  C   C123      1.0  0.95747  0.22251000000000004  0.71238  1.0000
  C   C124      1.0  0.03663  0.1892  0.75587  1.0000
  C   C125      1.0  0.99696  0.20573  0.78482  1.0000
  C   C126      1.0  0.92045  0.23791000000000007  0.74299  1.0000
  C   C127      1.0  0.44267999999999996  0.06374  0.6248000000000001  1.0000
  C   C128      1.0  0.49018  0.02256  0.61133  1.0000
  C   C129      1.0  0.55508  0.03423  0.61427  1.0000
  C   C130      1.0  0.47239999999999993  0.96758  0.59575  1.0000
  C   C131      1.0  0.51797  0.92662  0.58612  1.0000
  C   C132      1.0  0.59814  0.9909600000000002  0.60411  1.0000
  C   C133      1.0  0.23377  0.22772  0.42755  1.0000
  C   C134      1.0  0.202  0.19368  0.45541  1.0000
  C   C135      1.0  0.23125  0.14654  0.47572000000000003  1.0000
  C   C136      1.0  0.13803  0.20519000000000004  0.46460000000000007  1.0000
  C   C137      1.0  0.10982  0.17662  0.49417  1.0000
  C   C138      1.0  0.20064  0.12030000000000003  0.50518  1.0000
  C   C139      1.0  0.18695  0.9142300000000001  0.78487  1.0000
  C   C140      1.0  0.20185  0.9574  0.75578  1.0000
  C   C141      1.0  0.20498  0.01812  0.76436  1.0000
  C   C142      1.0  0.21203  0.94009  0.71849  1.0000
  C   C143      1.0  0.2249  0.98331  0.69177  1.0000
  C   C144      1.0  0.21825999999999998  0.058410000000000004  0.73606  1.0000
  C   C145      1.0  0.44178000000000006  0.8212  0.18822  1.0000
  C   C146      1.0  0.48324  0.8029600000000001  0.21863  1.0000
  C   C147      1.0  0.54252  0.7775500000000001  0.21244  1.0000
  C   C148      1.0  0.46328  0.81086  0.25584  1.0000
  C   C149      1.0  0.50279  0.79419  0.28484  1.0000
  C   C150      1.0  0.57937  0.7619900000000002  0.2431  1.0000
  C   C151      1.0  0.05757999999999999  0.9364500000000002  0.12489  1.0000
  C   C152      1.0  0.01014  0.9776600000000002  0.11141  1.0000
  C   C153      1.0  0.94526  0.96591  0.11438  1.0000
  C   C154      1.0  0.02786  0.032670000000000005  0.09584  1.0000
  C   C155      1.0  0.98222  0.07357  0.0862  1.0000
  C   C156      1.0  0.90213  0.00913  0.10422  1.0000
  C   C157      1.0  0.26591  0.77224  0.92751  1.0000
  C   C158      1.0  0.29759  0.8063400000000001  0.95539  1.0000
  C   C159      1.0  0.26834  0.8534400000000002  0.9757  1.0000
  C   C160      1.0  0.36156  0.7948100000000001  0.96454  1.0000
  C   C161      1.0  0.38982  0.8234000000000002  0.9941  1.0000
  C   C162      1.0  0.299  0.8797000000000001  0.00515  1.0000
  C   C163      1.0  0.3133  0.08568000000000002  0.2849  1.0000
  C   C164      1.0  0.29848  0.042530000000000005  0.2558  1.0000
  C   C165      1.0  0.29533  0.9818000000000002  0.26438  1.0000
  C   C166      1.0  0.2882  0.05984000000000001  0.21851  1.0000
  C   C167      1.0  0.27524  0.016640000000000002  0.19181000000000004  1.0000
  C   C168      1.0  0.28197  0.94152  0.23611  1.0000
  C   C169      1.0  0.05823  0.32113  0.31175  1.0000
  C   C170      1.0  0.01674  0.30288000000000004  0.28136  1.0000
  C   C171      1.0  0.95747  0.27749  0.28762  1.0000
  C   C172      1.0  0.03663  0.31079  0.24413  1.0000
  C   C173      1.0  0.99696  0.29426  0.21518000000000004  1.0000
  C   C174      1.0  0.92045  0.26209  0.25701  1.0000
  C   C175      1.0  0.44267999999999996  0.43626  0.3752  1.0000
  C   C176      1.0  0.49018  0.47743  0.38867  1.0000
  C   C177      1.0  0.55508  0.46577000000000013  0.38573  1.0000
  C   C178      1.0  0.47239999999999993  0.53242  0.40425  1.0000
  C   C179      1.0  0.51797  0.5733800000000001  0.41388  1.0000
  C   C180      1.0  0.59814  0.50904  0.39589  1.0000
  C   C181      1.0  0.23377  0.27228  0.57245  1.0000
  C   C182      1.0  0.202  0.30632000000000004  0.54459  1.0000
  C   C183      1.0  0.23125  0.35346  0.52428  1.0000
  C   C184      1.0  0.13803  0.29481  0.5354  1.0000
  C   C185      1.0  0.10982  0.32338  0.50583  1.0000
  C   C186      1.0  0.20064  0.37970000000000004  0.49482000000000004  1.0000
  C   C187      1.0  0.18695  0.5857700000000001  0.21513  1.0000
  C   C188      1.0  0.20185  0.5426  0.24422  1.0000
  C   C189      1.0  0.20498  0.48188  0.23564000000000002  1.0000
  C   C190      1.0  0.21203  0.5599  0.28152  1.0000
  C   C191      1.0  0.2249  0.5166800000000001  0.30823  1.0000
  C   C192      1.0  0.21825999999999998  0.4415900000000001  0.26394  1.0000
  N   N1        1.0  0.59745  0.34045000000000003  0.13531  1.0000
  N   N2        1.0  0.64025  0.35401  0.16177  1.0000
  N   N3        1.0  0.54521  0.31939  0.15114  1.0000
  N   N4        1.0  0.61659  0.34254  0.19508000000000003  1.0000
  N   N5        1.0  0.43992  0.2704  0.27876  1.0000
  N   N6        1.0  0.8541499999999999  0.40154000000000006  0.14115000000000003  1.0000
  N   N7        1.0  0.89849  0.3603300000000001  0.14798  1.0000
  N   N8        1.0  0.9545099999999999  0.38116  0.13811  1.0000
  N   N9        1.0  0.8803  0.44979  0.12659  1.0000
  N   N10       1.0  0.08033  0.5631500000000002  0.0907  1.0000
  N   N11       1.0  0.75493  0.20256000000000002  0.88721  1.0000
  N   N12       1.0  0.7981899999999998  0.24293  0.88347  1.0000
  N   N13       1.0  0.7877099999999999  0.28725000000000006  0.9083900000000001  1.0000
  N   N14       1.0  0.71483  0.21791  0.9146000000000001  1.0000
  N   N15       1.0  0.64078  0.36403  0.01625  1.0000
  N   N16       1.0  0.66205  0.66596  0.31216  1.0000
  N   N17       1.0  0.66676  0.6226900000000001  0.33783  1.0000
  N   N18       1.0  0.68203  0.57157  0.32164  1.0000
  N   N19       1.0  0.67455  0.64387  0.27854  1.0000
  N   N20       1.0  0.7283  0.4583800000000001  0.20034  1.0000
  N   N21       1.0  0.90248  0.84054  0.36461  1.0000
  N   N22       1.0  0.85972  0.8539800000000002  0.33812000000000003  1.0000
  N   N23       1.0  0.95478  0.8194500000000001  0.34884  1.0000
  N   N24       1.0  0.8833700000000001  0.8423800000000002  0.30483  1.0000
  N   N25       1.0  0.06036999999999999  0.7706  0.22134  1.0000
  N   N26       1.0  0.64578  0.9015100000000001  0.35916  1.0000
  N   N27       1.0  0.60152  0.8603600000000002  0.35203  1.0000
  N   N28       1.0  0.54541  0.88109  0.36177  1.0000
  N   N29       1.0  0.61946  0.9496300000000002  0.37376  1.0000
  N   N30       1.0  0.41945999999999994  0.06304  0.40939  1.0000
  N   N31       1.0  0.74516  0.7026200000000001  0.61275  1.0000
  N   N32       1.0  0.70201  0.7431100000000003  0.6164900000000001  1.0000
  N   N33       1.0  0.71265  0.7874100000000002  0.59157  1.0000
  N   N34       1.0  0.78532  0.7178900000000001  0.58537  1.0000
  N   N35       1.0  0.8595699999999998  0.8640300000000002  0.48367000000000004  1.0000
  N   N36       1.0  0.83797  0.16604  0.18794  1.0000
  N   N37       1.0  0.8331900000000001  0.12285000000000003  0.16224  1.0000
  N   N38       1.0  0.81777  0.07172000000000002  0.17839  1.0000
  N   N39       1.0  0.8253699999999999  0.14390000000000003  0.22154  1.0000
  N   N40       1.0  0.77153  0.95843  0.29971  1.0000
  N   N41       1.0  0.59745  0.15954000000000002  0.86469  1.0000
  N   N42       1.0  0.64025  0.14599000000000004  0.8382300000000001  1.0000
  N   N43       1.0  0.54521  0.18061000000000002  0.84886  1.0000
  N   N44       1.0  0.61659  0.15746  0.80492  1.0000
  N   N45       1.0  0.43992  0.2296  0.72124  1.0000
  N   N46       1.0  0.8541499999999999  0.09846  0.85885  1.0000
  N   N47       1.0  0.89849  0.13967  0.85202  1.0000
  N   N48       1.0  0.9545099999999999  0.11884  0.86189  1.0000
  N   N49       1.0  0.8803  0.05021  0.87341  1.0000
  N   N50       1.0  0.08033  0.93685  0.9093000000000001  1.0000
  N   N51       1.0  0.75493  0.29744000000000004  0.11279000000000002  1.0000
  N   N52       1.0  0.7981899999999998  0.25706  0.11653  1.0000
  N   N53       1.0  0.7877099999999999  0.21275  0.09161  1.0000
  N   N54       1.0  0.71483  0.28208000000000005  0.0854  1.0000
  N   N55       1.0  0.64079  0.13597  0.9837500000000001  1.0000
  N   N56       1.0  0.66206  0.83404  0.68784  1.0000
  N   N57       1.0  0.66676  0.87731  0.66217  1.0000
  N   N58       1.0  0.68203  0.9284300000000001  0.67836  1.0000
  N   N59       1.0  0.67455  0.8561200000000001  0.72146  1.0000
  N   N60       1.0  0.7283  0.04161000000000001  0.79966  1.0000
  N   N61       1.0  0.90248  0.6594600000000002  0.63539  1.0000
  N   N62       1.0  0.85972  0.64602  0.66188  1.0000
  N   N63       1.0  0.95478  0.68055  0.65116  1.0000
  N   N64       1.0  0.8833700000000001  0.65762  0.69517  1.0000
  N   N65       1.0  0.06036999999999999  0.72939  0.77866  1.0000
  N   N66       1.0  0.64578  0.59849  0.64084  1.0000
  N   N67       1.0  0.60152  0.63964  0.64797  1.0000
  N   N68       1.0  0.54541  0.6189100000000001  0.6382300000000001  1.0000
  N   N69       1.0  0.61946  0.55037  0.62624  1.0000
  N   N70       1.0  0.41945999999999994  0.43696  0.59061  1.0000
  N   N71       1.0  0.74516  0.79738  0.38725000000000004  1.0000
  N   N72       1.0  0.70201  0.75689  0.38351  1.0000
  N   N73       1.0  0.71265  0.71258  0.40843  1.0000
  N   N74       1.0  0.78532  0.78211  0.41463  1.0000
  N   N75       1.0  0.8595699999999998  0.63597  0.51633  1.0000
  N   N76       1.0  0.83797  0.33396000000000003  0.8120600000000001  1.0000
  N   N77       1.0  0.8331900000000001  0.3771500000000001  0.83776  1.0000
  N   N78       1.0  0.81776  0.42827000000000004  0.8216100000000001  1.0000
  N   N79       1.0  0.82538  0.3561000000000001  0.77846  1.0000
  N   N80       1.0  0.77153  0.54156  0.70029  1.0000
  N   N81       1.0  0.40255  0.65954  0.86469  1.0000
  N   N82       1.0  0.35975  0.6459900000000001  0.8382300000000001  1.0000
  N   N83       1.0  0.4548  0.68061  0.84886  1.0000
  N   N84       1.0  0.38341  0.65746  0.80492  1.0000
  N   N85       1.0  0.56008  0.7296  0.72124  1.0000
  N   N86       1.0  0.14586  0.59846  0.85885  1.0000
  N   N87       1.0  0.10152  0.63967  0.85202  1.0000
  N   N88       1.0  0.0455  0.61884  0.86189  1.0000
  N   N89       1.0  0.11971  0.5502100000000001  0.87341  1.0000
  N   N90       1.0  0.91968  0.43685  0.9093000000000001  1.0000
  N   N91       1.0  0.24508  0.79744  0.11279000000000002  1.0000
  N   N92       1.0  0.20181  0.7570700000000002  0.11653  1.0000
  N   N93       1.0  0.2123  0.7127500000000001  0.09162  1.0000
  N   N94       1.0  0.28518  0.7820800000000002  0.0854  1.0000
  N   N95       1.0  0.35922  0.63597  0.9837500000000001  1.0000
  N   N96       1.0  0.33795  0.33404  0.68784  1.0000
  N   N97       1.0  0.33325  0.37731  0.66217  1.0000
  N   N98       1.0  0.31797  0.42843  0.67837  1.0000
  N   N99       1.0  0.32545  0.35612  0.72146  1.0000
  N   N100      1.0  0.2717  0.54161  0.79966  1.0000
  N   N101      1.0  0.09753  0.15946  0.63539  1.0000
  N   N102      1.0  0.14029  0.14602000000000004  0.66188  1.0000
  N   N103      1.0  0.04522  0.18055000000000004  0.65116  1.0000
  N   N104      1.0  0.11664  0.15762  0.69517  1.0000
  N   N105      1.0  0.93963  0.22939  0.77866  1.0000
  N   N106      1.0  0.35422  0.09849  0.64084  1.0000
  N   N107      1.0  0.39848  0.13964  0.64797  1.0000
  N   N108      1.0  0.4546  0.11891000000000003  0.6382300000000001  1.0000
  N   N109      1.0  0.38054999999999994  0.050370000000000005  0.62624  1.0000
  N   N110      1.0  0.58054  0.93696  0.59061  1.0000
  N   N111      1.0  0.25484  0.29738000000000003  0.38725000000000004  1.0000
  N   N112      1.0  0.29799  0.25689  0.38351  1.0000
  N   N113      1.0  0.28735  0.21258000000000002  0.40843  1.0000
  N   N114      1.0  0.21469  0.2821  0.41463  1.0000
  N   N115      1.0  0.14044  0.13597  0.51633  1.0000
  N   N116      1.0  0.16204  0.83396  0.8120600000000001  1.0000
  N   N117      1.0  0.16681  0.8771500000000002  0.83776  1.0000
  N   N118      1.0  0.18224  0.92827  0.8216100000000001  1.0000
  N   N119      1.0  0.17463  0.8561000000000002  0.77846  1.0000
  N   N120      1.0  0.22847  0.04156000000000001  0.70029  1.0000
  N   N121      1.0  0.40255  0.8404500000000001  0.13531  1.0000
  N   N122      1.0  0.35975  0.85401  0.16177  1.0000
  N   N123      1.0  0.4548  0.8193900000000002  0.15114  1.0000
  N   N124      1.0  0.38341  0.84254  0.19508000000000003  1.0000
  N   N125      1.0  0.56008  0.7704000000000001  0.27876  1.0000
  N   N126      1.0  0.14586  0.90154  0.14115000000000003  1.0000
  N   N127      1.0  0.10152  0.86033  0.14798  1.0000
  N   N128      1.0  0.0455  0.8811600000000003  0.13811  1.0000
  N   N129      1.0  0.11969999999999999  0.94979  0.12659  1.0000
  N   N130      1.0  0.91968  0.06315  0.0907  1.0000
  N   N131      1.0  0.24508  0.70256  0.88721  1.0000
  N   N132      1.0  0.20181  0.74293  0.88347  1.0000
  N   N133      1.0  0.2123  0.78725  0.9083900000000001  1.0000
  N   N134      1.0  0.28518  0.71791  0.9146000000000001  1.0000
  N   N135      1.0  0.35922  0.8640300000000002  0.01625  1.0000
  N   N136      1.0  0.33795  0.16596000000000002  0.31216  1.0000
  N   N137      1.0  0.33325  0.12269000000000001  0.33783  1.0000
  N   N138      1.0  0.31797  0.07156  0.32164  1.0000
  N   N139      1.0  0.32545  0.14387000000000003  0.27854  1.0000
  N   N140      1.0  0.27171  0.9583800000000002  0.20034  1.0000
  N   N141      1.0  0.09753  0.34053  0.36461  1.0000
  N   N142      1.0  0.14029  0.35398  0.33812000000000003  1.0000
  N   N143      1.0  0.04522  0.31944  0.34884  1.0000
  N   N144      1.0  0.11664  0.3423800000000001  0.30483  1.0000
  N   N145      1.0  0.93963  0.2706  0.22134  1.0000
  N   N146      1.0  0.35422  0.4015100000000001  0.35916  1.0000
  N   N147      1.0  0.39848  0.36036000000000007  0.35203  1.0000
  N   N148      1.0  0.4546  0.3810800000000001  0.36177  1.0000
  N   N149      1.0  0.38054999999999994  0.44963  0.37376  1.0000
  N   N150      1.0  0.58054  0.5630400000000001  0.40939  1.0000
  N   N151      1.0  0.25484  0.20262000000000002  0.61275  1.0000
  N   N152      1.0  0.29799  0.24311  0.6164900000000001  1.0000
  N   N153      1.0  0.28735  0.28741  0.59157  1.0000
  N   N154      1.0  0.21469  0.21789  0.58537  1.0000
  N   N155      1.0  0.14044  0.3640200000000001  0.48367000000000004  1.0000
  N   N156      1.0  0.16204  0.66604  0.18795  1.0000
  N   N157      1.0  0.16681  0.62285  0.16224  1.0000
  N   N158      1.0  0.18224  0.57172  0.17839  1.0000
  N   N159      1.0  0.17463  0.6439  0.22154  1.0000
  N   N160      1.0  0.22847  0.45843  0.29971  1.0000
  Cl  Cl1       1.0  0.7028  0.44689000000000006  0.09765  1.0000
  Cl  Cl2       1.0  0.77846  0.30816  0.20887  1.0000
  Cl  Cl3       1.0  0.95064  0.28433  0.88035  1.0000
  Cl  Cl4       1.0  0.79696  0.9468700000000001  0.40233  1.0000
  Cl  Cl5       1.0  0.72117  0.8082300000000001  0.29115  1.0000
  Cl  Cl6       1.0  0.54968  0.78443  0.61925  1.0000
  Cl  Cl7       1.0  0.7028  0.05311  0.90235  1.0000
  Cl  Cl8       1.0  0.77846  0.19183000000000003  0.79113  1.0000
  Cl  Cl9       1.0  0.9506299999999999  0.21567000000000003  0.11965  1.0000
  Cl  Cl10      1.0  0.79696  0.5531300000000001  0.59768  1.0000
  Cl  Cl11      1.0  0.72117  0.6917700000000001  0.70886  1.0000
  Cl  Cl12      1.0  0.54968  0.71556  0.38075  1.0000
  Cl  Cl13      1.0  0.2972  0.55311  0.90235  1.0000
  Cl  Cl14      1.0  0.22153999999999996  0.69183  0.79113  1.0000
  Cl  Cl15      1.0  0.04936999999999999  0.71567  0.11965  1.0000
  Cl  Cl16      1.0  0.20304  0.05313000000000001  0.59768  1.0000
  Cl  Cl17      1.0  0.27884  0.19176  0.70886  1.0000
  Cl  Cl18      1.0  0.45032  0.21556  0.38075  1.0000
  Cl  Cl19      1.0  0.2972  0.94689  0.09765  1.0000
  Cl  Cl20      1.0  0.22153999999999996  0.8081600000000002  0.20887  1.0000
  Cl  Cl21      1.0  0.04936999999999999  0.7843300000000002  0.88035  1.0000
  Cl  Cl22      1.0  0.20304  0.44687  0.40232  1.0000
  Cl  Cl23      1.0  0.27884  0.30823  0.29115  1.0000
  Cl  Cl24      1.0  0.45032  0.28443  0.61925  1.0000
