data_image0
_chemical_formula_structural       Cu8H128C208S32N32
_chemical_formula_sum              "Cu8 H128 C208 S32 N32"
_cell_length_a       15.911
_cell_length_b       19.553919999999998
_cell_length_c       25.24473
_cell_angle_alpha    89.99971
_cell_angle_beta     102.13343999999998
_cell_angle_gamma    90.00138

_symmetry_space_group_name_H-M    'P 1'
_symmetry_Int_Tables_number       1

loop_
  _symmetry_equiv_pos_as_xyz
  'x,y,z'

loop_
  _atom_site_type_symbol
  _atom_site_label
  _atom_site_symmetry_multiplicity
  _atom_site_fract_x
  _atom_site_fract_y
  _atom_site_fract_z
  _atom_site_occupancy
  Cu  Cu1       1.0  0.4881300000000001  0.98919  0.12794  1.0000
  Cu  Cu2       1.0  0.007630000000000035  0.99472  0.3697000000000001  1.0000
  Cu  Cu3       1.0  0.011860000000000004  0.48915  0.37209  1.0000
  Cu  Cu4       1.0  0.4924100000000001  0.4947899999999999  0.13026000000000001  1.0000
  Cu  Cu5       1.0  0.5118700000000003  0.0108  0.8720600000000002  1.0000
  Cu  Cu6       1.0  0.9923700000000002  0.00528  0.6303  1.0000
  Cu  Cu7       1.0  0.9881400000000005  0.5108499999999999  0.62791  1.0000
  Cu  Cu8       1.0  0.5075900000000002  0.5052  0.86973  1.0000
  H   H1        1.0  0.4886300000000001  0.12794  0.07292000000000001  1.0000
  H   H2        1.0  0.3819400000000001  0.21542999999999998  0.03281  1.0000
  H   H3        1.0  0.19057000000000007  0.09765  0.09226000000000002  1.0000
  H   H4        1.0  0.3042400000000001  0.013369999999999998  0.1274  1.0000
  H   H5        1.0  0.28236  0.38958  0.9751400000000001  1.0000
  H   H6        1.0  0.4050600000000001  0.46073  0.018590000000000002  1.0000
  H   H7        1.0  0.4401200000000001  0.35002999999999995  0.16164  1.0000
  H   H8        1.0  0.3167000000000001  0.27447  0.12486000000000003  1.0000
  H   H9        1.0  0.8121400000000004  0.42138999999999993  0.8794200000000001  1.0000
  H   H10       1.0  0.6922  0.50332  0.86591  1.0000
  H   H11       1.0  0.53606  0.36716999999999994  0.9266100000000003  1.0000
  H   H12       1.0  0.6508300000000002  0.2810099999999999  0.94651  1.0000
  H   H13       1.0  0.6783400000000003  0.2249  0.8445100000000002  1.0000
  H   H14       1.0  0.5537600000000003  0.14589999999999997  0.8254600000000002  1.0000
  H   H15       1.0  0.6305500000000003  0.05044  0.9746900000000001  1.0000
  H   H16       1.0  0.7585700000000002  0.1243  0.99954  1.0000
  H   H17       1.0  0.41388000000000014  0.059259999999999986  0.21366000000000004  1.0000
  H   H18       1.0  0.4385500000000001  0.06472  0.31353  1.0000
  H   H19       1.0  0.6554200000000002  0.9290699999999998  0.31939  1.0000
  H   H20       1.0  0.6227000000000003  0.9306399999999999  0.21931000000000006  1.0000
  H   H21       1.0  0.6990200000000002  0.07302999999999998  0.35231000000000007  1.0000
  H   H22       1.0  0.8478400000000003  0.07702999999999997  0.33786  1.0000
  H   H23       1.0  0.9277800000000003  0.9264699999999998  0.45347  1.0000
  H   H24       1.0  0.7834600000000003  0.9168599999999999  0.4738100000000001  1.0000
  H   H25       1.0  0.8861800000000002  0.92532  0.27679  1.0000
  H   H26       1.0  0.8533000000000002  0.9300799999999999  0.17687000000000005  1.0000
  H   H27       1.0  0.05760000000000001  0.07929999999999997  0.18831  1.0000
  H   H28       1.0  0.08319000000000001  0.0672  0.28737000000000007  1.0000
  H   H29       1.0  0.79646  0.06885  0.15777  1.0000
  H   H30       1.0  0.64834  0.06117  0.1724  1.0000
  H   H31       1.0  0.5723500000000002  0.9355299999999999  0.038250000000000006  1.0000
  H   H32       1.0  0.71719  0.9364599999999998  0.0184  1.0000
  H   H33       1.0  0.01135000000000001  0.6278999999999998  0.4270300000000001  1.0000
  H   H34       1.0  0.11801000000000002  0.7154099999999999  0.4671400000000001  1.0000
  H   H35       1.0  0.3094200000000001  0.59759  0.40772  1.0000
  H   H36       1.0  0.19576000000000007  0.51332  0.3726100000000001  1.0000
  H   H37       1.0  0.21765000000000007  0.88955  0.52483  1.0000
  H   H38       1.0  0.09496000000000003  0.96071  0.48141  1.0000
  H   H39       1.0  0.05985  0.85001  0.33835  1.0000
  H   H40       1.0  0.18326000000000012  0.77444  0.3751100000000001  1.0000
  H   H41       1.0  0.68783  0.92141  0.6205800000000001  1.0000
  H   H42       1.0  0.8077600000000001  0.0033499999999999997  0.63408  1.0000
  H   H43       1.0  0.9639000000000002  0.86721  0.57335  1.0000
  H   H44       1.0  0.8491200000000002  0.78105  0.55346  1.0000
  H   H45       1.0  0.8216300000000002  0.7249199999999998  0.65549  1.0000
  H   H46       1.0  0.9462300000000003  0.64594  0.6745500000000002  1.0000
  H   H47       1.0  0.8694800000000005  0.5505  0.52531  1.0000
  H   H48       1.0  0.74145  0.62433  0.50046  1.0000
  H   H49       1.0  0.08616  0.55921  0.28634  1.0000
  H   H50       1.0  0.06148000000000002  0.56466  0.18646000000000001  1.0000
  H   H51       1.0  0.84459  0.42905  0.18061000000000002  1.0000
  H   H52       1.0  0.8773100000000003  0.4306099999999999  0.28069  1.0000
  H   H53       1.0  0.80099  0.57306  0.14771  1.0000
  H   H54       1.0  0.6521700000000002  0.57705  0.16215000000000002  1.0000
  H   H55       1.0  0.5722200000000002  0.42649999999999993  0.04654000000000001  1.0000
  H   H56       1.0  0.7165600000000002  0.41689  0.026200000000000005  1.0000
  H   H57       1.0  0.61377  0.42532999999999993  0.22318000000000005  1.0000
  H   H58       1.0  0.6466500000000004  0.43006999999999995  0.32311  1.0000
  H   H59       1.0  0.44237  0.5793099999999999  0.31168  1.0000
  H   H60       1.0  0.41678  0.5672099999999998  0.21263000000000007  1.0000
  H   H61       1.0  0.7034900000000002  0.5687899999999999  0.3422  1.0000
  H   H62       1.0  0.8516100000000002  0.56112  0.3275700000000001  1.0000
  H   H63       1.0  0.9276300000000004  0.4355  0.46172000000000013  1.0000
  H   H64       1.0  0.7828100000000004  0.43642  0.48159  1.0000
  H   H65       1.0  0.5113700000000003  0.87205  0.9270700000000002  1.0000
  H   H66       1.0  0.6180700000000002  0.78456  0.96719  1.0000
  H   H67       1.0  0.80943  0.90234  0.9077300000000001  1.0000
  H   H68       1.0  0.6957700000000003  0.98662  0.8726000000000003  1.0000
  H   H69       1.0  0.7176400000000002  0.6104099999999998  0.02485  1.0000
  H   H70       1.0  0.5949400000000004  0.5392599999999999  0.9814100000000001  1.0000
  H   H71       1.0  0.55988  0.6499599999999999  0.8383600000000002  1.0000
  H   H72       1.0  0.6833  0.7255299999999999  0.87513  1.0000
  H   H73       1.0  0.18786000000000005  0.5786099999999998  0.12058000000000003  1.0000
  H   H74       1.0  0.3078100000000001  0.4966799999999999  0.13409  1.0000
  H   H75       1.0  0.46394000000000013  0.6328299999999999  0.07339  1.0000
  H   H76       1.0  0.3491700000000001  0.7189899999999998  0.05349000000000001  1.0000
  H   H77       1.0  0.3216600000000001  0.7750999999999999  0.15549000000000002  1.0000
  H   H78       1.0  0.44624000000000014  0.8540899999999999  0.17453  1.0000
  H   H79       1.0  0.3694500000000001  0.94955  0.02531  1.0000
  H   H80       1.0  0.24143000000000006  0.8756999999999998  0.00045000000000000004  1.0000
  H   H81       1.0  0.5861300000000005  0.94074  0.7863400000000003  1.0000
  H   H82       1.0  0.56146  0.9352699999999999  0.68647  1.0000
  H   H83       1.0  0.3445900000000001  0.07093  0.68061  1.0000
  H   H84       1.0  0.37730000000000025  0.06935  0.7806900000000002  1.0000
  H   H85       1.0  0.30098000000000014  0.92696  0.64768  1.0000
  H   H86       1.0  0.15216000000000007  0.9229699999999998  0.6621400000000001  1.0000
  H   H87       1.0  0.07222  0.07351999999999999  0.54652  1.0000
  H   H88       1.0  0.21654000000000007  0.08312999999999998  0.52618  1.0000
  H   H89       1.0  0.11382000000000002  0.07467999999999998  0.72321  1.0000
  H   H90       1.0  0.14670000000000005  0.06991  0.8231200000000002  1.0000
  H   H91       1.0  0.9424000000000002  0.92069  0.81168  1.0000
  H   H92       1.0  0.9168100000000005  0.9327999999999997  0.7126300000000002  1.0000
  H   H93       1.0  0.20354000000000005  0.93114  0.84222  1.0000
  H   H94       1.0  0.35166  0.93882  0.82759  1.0000
  H   H95       1.0  0.42765000000000014  0.06447  0.9617400000000003  1.0000
  H   H96       1.0  0.2828100000000001  0.06353  0.9815900000000002  1.0000
  H   H97       1.0  0.9886500000000003  0.37209  0.57297  1.0000
  H   H98       1.0  0.8819900000000003  0.28459  0.53286  1.0000
  H   H99       1.0  0.6905800000000001  0.4024  0.5922700000000001  1.0000
  H   H100      1.0  0.80424  0.48667999999999995  0.62739  1.0000
  H   H101      1.0  0.78235  0.11043999999999998  0.4751700000000001  1.0000
  H   H102      1.0  0.90505  0.03928999999999999  0.5185900000000001  1.0000
  H   H103      1.0  0.9401600000000004  0.14997999999999995  0.6616500000000001  1.0000
  H   H104      1.0  0.8167400000000002  0.22555999999999998  0.62488  1.0000
  H   H105      1.0  0.31217  0.07857999999999998  0.37942  1.0000
  H   H106      1.0  0.19224000000000008  0.99665  0.36592000000000013  1.0000
  H   H107      1.0  0.03610000000000005  0.13279  0.42664000000000013  1.0000
  H   H108      1.0  0.1508800000000001  0.21893999999999997  0.4465400000000001  1.0000
  H   H109      1.0  0.17838  0.27508  0.34450000000000003  1.0000
  H   H110      1.0  0.05377000000000001  0.35406  0.32545  1.0000
  H   H111      1.0  0.13052000000000002  0.4495  0.4746900000000001  1.0000
  H   H112      1.0  0.2585500000000001  0.37567  0.4995400000000001  1.0000
  H   H113      1.0  0.91384  0.44078  0.71366  1.0000
  H   H114      1.0  0.93852  0.43533  0.81354  1.0000
  H   H115      1.0  0.15540999999999994  0.57095  0.81938  1.0000
  H   H116      1.0  0.12269000000000008  0.56938  0.7193000000000002  1.0000
  H   H117      1.0  0.19901  0.42693  0.85229  1.0000
  H   H118      1.0  0.34783000000000003  0.42295  0.8378400000000001  1.0000
  H   H119      1.0  0.4277800000000001  0.5735  0.9534600000000002  1.0000
  H   H120      1.0  0.28345000000000015  0.5830999999999998  0.9738000000000001  1.0000
  H   H121      1.0  0.38623  0.57466  0.7768100000000002  1.0000
  H   H122      1.0  0.35335000000000016  0.56992  0.6768900000000001  1.0000
  H   H123      1.0  0.5576300000000002  0.42069  0.6883200000000003  1.0000
  H   H124      1.0  0.5832300000000002  0.43279  0.78737  1.0000
  H   H125      1.0  0.29651000000000005  0.43121  0.6578000000000003  1.0000
  H   H126      1.0  0.14839000000000013  0.43886999999999987  0.6724300000000002  1.0000
  H   H127      1.0  0.07237  0.56449  0.53828  1.0000
  H   H128      1.0  0.21719000000000005  0.56357  0.51841  1.0000
  C   C1        1.0  0.42179  0.12318999999999997  0.07632  1.0000
  C   C2        1.0  0.3619400000000001  0.17226  0.05431000000000001  1.0000
  C   C3        1.0  0.2747700000000001  0.16526999999999994  0.05865000000000001  1.0000
  C   C4        1.0  0.2556500000000001  0.10639999999999997  0.08663000000000001  1.0000
  C   C5        1.0  0.31938  0.059349999999999986  0.10691  1.0000
  C   C6        1.0  0.2154  0.28083  0.022550000000000008  1.0000
  C   C7        1.0  0.2874400000000001  0.32437  0.04604  1.0000
  C   C8        1.0  0.31438  0.3789999999999999  0.016840000000000004  1.0000
  C   C9        1.0  0.3842000000000001  0.41864  0.04089  1.0000
  C   C10       1.0  0.4034900000000001  0.35697  0.12045  1.0000
  C   C11       1.0  0.33463  0.31472  0.09967  1.0000
  C   C12       1.0  0.05768999999999999  0.25012  0.97777  1.0000
  C   C13       1.0  0.9716200000000003  0.25226  0.95713  1.0000
  C   C14       1.0  0.8134000000000001  0.2926199999999999  0.92336  1.0000
  C   C15       1.0  0.7433500000000002  0.34104  0.9131  1.0000
  C   C16       1.0  0.7521000000000003  0.4064299999999999  0.8903600000000003  1.0000
  C   C17       1.0  0.6847600000000003  0.45274  0.8824400000000002  1.0000
  C   C18       1.0  0.5981500000000003  0.377  0.9164800000000002  1.0000
  C   C19       1.0  0.66262  0.32847  0.92699  1.0000
  C   C20       1.0  0.8084400000000002  0.22342999999999996  0.9344800000000002  1.0000
  C   C21       1.0  0.7317300000000003  0.18106  0.9236400000000002  1.0000
  C   C22       1.0  0.6701300000000002  0.18675999999999995  0.87437  1.0000
  C   C23       1.0  0.6004400000000003  0.14292  0.8636300000000002  1.0000
  C   C24       1.0  0.64337  0.08924  0.9465200000000001  1.0000
  C   C25       1.0  0.7155700000000003  0.13045999999999996  0.9602000000000003  1.0000
  C   C26       1.0  0.46678000000000014  0.03105  0.23847000000000002  1.0000
  C   C27       1.0  0.4806900000000001  0.03369  0.29445000000000005  1.0000
  C   C28       1.0  0.55036  0.9975599999999999  0.32666  1.0000
  C   C29       1.0  0.6022400000000002  0.9597899999999998  0.29779  1.0000
  C   C30       1.0  0.5835600000000002  0.9598799999999997  0.24176  1.0000
  C   C31       1.0  0.56302  0.99606  0.38512  1.0000
  C   C32       1.0  0.5205500000000002  0.99365  0.4795  1.0000
  C   C33       1.0  0.63924  0.9880499999999999  0.42276000000000014  1.0000
  C   C34       1.0  0.72552  0.9926699999999999  0.41323000000000004  1.0000
  C   C35       1.0  0.7473600000000002  0.03874999999999999  0.37491000000000013  1.0000
  C   C36       1.0  0.8306200000000002  0.04143  0.36696  1.0000
  C   C37       1.0  0.8754300000000003  0.95817  0.43186000000000013  1.0000
  C   C38       1.0  0.7940700000000003  0.95294  0.44294  1.0000
  C   C39       1.0  0.9220800000000001  0.9594799999999998  0.25568  1.0000
  C   C40       1.0  0.9032000000000002  0.9628599999999999  0.19972  1.0000
  C   C41       1.0  0.9504600000000002  0.007159999999999998  0.17226  1.0000
  C   C42       1.0  0.01779000000000001  0.044299999999999985  0.20595  1.0000
  C   C43       1.0  0.03224  0.03798  0.26168  1.0000
  C   C44       1.0  0.9352800000000003  0.01202  0.11402  1.0000
  C   C45       1.0  0.85839  0.00375  0.07669  1.0000
  C   C46       1.0  0.7726100000000002  0.00208  0.08699000000000003  1.0000
  C   C47       1.0  0.7494000000000002  0.03786  0.13069000000000003  1.0000
  C   C48       1.0  0.6664400000000003  0.03409  0.13884000000000002  1.0000
  C   C49       1.0  0.6236200000000002  0.96445  0.064  1.0000
  C   C50       1.0  0.7051400000000002  0.96565  0.052790000000000004  1.0000
  C   C51       1.0  0.9777100000000002  0.00522  0.019840000000000003  1.0000
  C   C52       1.0  0.20766000000000007  0.21184  0.0328  1.0000
  C   C53       1.0  0.07820000000000008  0.6231499999999999  0.4236600000000001  1.0000
  C   C54       1.0  0.13804000000000005  0.67223  0.44566  1.0000
  C   C55       1.0  0.22522000000000011  0.66523  0.4413400000000001  1.0000
  C   C56       1.0  0.24435000000000007  0.6063499999999997  0.41337  1.0000
  C   C57       1.0  0.18062000000000009  0.55929  0.3930900000000001  1.0000
  C   C58       1.0  0.28458  0.7808  0.47743  1.0000
  C   C59       1.0  0.21254000000000006  0.8243399999999999  0.45394  1.0000
  C   C60       1.0  0.18561  0.87896  0.48314  1.0000
  C   C61       1.0  0.11580000000000007  0.9186099999999999  0.4591000000000001  1.0000
  C   C62       1.0  0.09648  0.8569399999999999  0.37953  1.0000
  C   C63       1.0  0.1653300000000001  0.81468  0.40031  1.0000
  C   C64       1.0  0.44228  0.75013  0.52222  1.0000
  C   C65       1.0  0.5283500000000002  0.75228  0.5428600000000001  1.0000
  C   C66       1.0  0.68658  0.79264  0.57665  1.0000
  C   C67       1.0  0.75662  0.84107  0.5869  1.0000
  C   C68       1.0  0.7478800000000002  0.9064499999999999  0.60964  1.0000
  C   C69       1.0  0.8152100000000001  0.95277  0.61755  1.0000
  C   C70       1.0  0.9018100000000002  0.87704  0.5835  1.0000
  C   C71       1.0  0.8373500000000003  0.82851  0.573  1.0000
  C   C72       1.0  0.6915400000000003  0.7234499999999998  0.56552  1.0000
  C   C73       1.0  0.7682700000000005  0.6810899999999999  0.57636  1.0000
  C   C74       1.0  0.8298500000000002  0.6867899999999999  0.62563  1.0000
  C   C75       1.0  0.8995500000000002  0.6429499999999998  0.63637  1.0000
  C   C76       1.0  0.8566500000000002  0.58929  0.55347  1.0000
  C   C77       1.0  0.7844400000000001  0.6305  0.5398000000000001  1.0000
  C   C78       1.0  0.03326000000000003  0.531  0.26153000000000004  1.0000
  C   C79       1.0  0.019340000000000013  0.53365  0.20555  1.0000
  C   C80       1.0  0.9496600000000002  0.49752  0.17335000000000003  1.0000
  C   C81       1.0  0.8977800000000002  0.4597499999999999  0.20221000000000003  1.0000
  C   C82       1.0  0.9164600000000003  0.45983999999999997  0.25824  1.0000
  C   C83       1.0  0.9369900000000002  0.4960299999999999  0.11488000000000002  1.0000
  C   C84       1.0  0.9794500000000003  0.49365999999999993  0.020490000000000008  1.0000
  C   C85       1.0  0.8607600000000002  0.4880699999999999  0.07724  1.0000
  C   C86       1.0  0.7744900000000002  0.49269  0.08679000000000003  1.0000
  C   C87       1.0  0.7526500000000003  0.53877  0.12511  1.0000
  C   C88       1.0  0.66939  0.54146  0.13305  1.0000
  C   C89       1.0  0.62458  0.45819  0.06816000000000001  1.0000
  C   C90       1.0  0.70594  0.45296999999999993  0.05707  1.0000
  C   C91       1.0  0.5778700000000002  0.45947999999999994  0.24430000000000004  1.0000
  C   C92       1.0  0.5967500000000002  0.46285  0.30026  1.0000
  C   C93       1.0  0.54949  0.50715  0.32773000000000013  1.0000
  C   C94       1.0  0.4821700000000001  0.5442899999999998  0.29405  1.0000
  C   C95       1.0  0.46773000000000015  0.5379899999999999  0.23831000000000005  1.0000
  C   C96       1.0  0.56469  0.512  0.38598  1.0000
  C   C97       1.0  0.64159  0.5037099999999999  0.4233  1.0000
  C   C98       1.0  0.7273600000000002  0.50205  0.413  1.0000
  C   C99       1.0  0.7505600000000002  0.5378  0.36928  1.0000
  C   C100      1.0  0.8335200000000003  0.53405  0.36113  1.0000
  C   C101      1.0  0.8763500000000002  0.4644099999999999  0.43598  1.0000
  C   C102      1.0  0.7948400000000002  0.46561  0.44719  1.0000
  C   C103      1.0  0.5223  0.50521  0.48016  1.0000
  C   C104      1.0  0.2923300000000001  0.71181  0.46719  1.0000
  C   C105      1.0  0.5782100000000001  0.87681  0.9236800000000002  1.0000
  C   C106      1.0  0.6380600000000002  0.8277299999999999  0.94569  1.0000
  C   C107      1.0  0.7252300000000005  0.8347299999999999  0.9413500000000002  1.0000
  C   C108      1.0  0.7443600000000004  0.89359  0.9133700000000001  1.0000
  C   C109      1.0  0.68062  0.9406499999999998  0.89309  1.0000
  C   C110      1.0  0.7846000000000002  0.7191599999999998  0.9774400000000002  1.0000
  C   C111      1.0  0.7125600000000003  0.67563  0.9539600000000003  1.0000
  C   C112      1.0  0.6856200000000005  0.6209999999999999  0.9831600000000003  1.0000
  C   C113      1.0  0.6158000000000003  0.5813599999999999  0.9591100000000002  1.0000
  C   C114      1.0  0.5965100000000002  0.6430199999999999  0.87954  1.0000
  C   C115      1.0  0.66537  0.6852799999999999  0.90033  1.0000
  C   C116      1.0  0.9423100000000002  0.74988  0.022230000000000007  1.0000
  C   C117      1.0  0.028380000000000006  0.74773  0.04287  1.0000
  C   C118      1.0  0.1866  0.70738  0.07664  1.0000
  C   C119      1.0  0.2566500000000001  0.65896  0.0869  1.0000
  C   C120      1.0  0.24790000000000006  0.59357  0.10963000000000003  1.0000
  C   C121      1.0  0.31524000000000013  0.54726  0.11756000000000003  1.0000
  C   C122      1.0  0.4018500000000001  0.623  0.08351000000000001  1.0000
  C   C123      1.0  0.33739000000000013  0.67152  0.07301  1.0000
  C   C124      1.0  0.19156000000000006  0.77656  0.06551  1.0000
  C   C125      1.0  0.26827  0.8189399999999999  0.07636  1.0000
  C   C126      1.0  0.32987  0.8132299999999998  0.12563  1.0000
  C   C127      1.0  0.39956  0.85708  0.13637000000000002  1.0000
  C   C128      1.0  0.35663  0.9107599999999999  0.05347  1.0000
  C   C129      1.0  0.2844300000000001  0.86953  0.039790000000000006  1.0000
  C   C130      1.0  0.53322  0.96895  0.7615300000000003  1.0000
  C   C131      1.0  0.5193200000000002  0.9662999999999999  0.70555  1.0000
  C   C132      1.0  0.4496500000000001  0.00244  0.67334  1.0000
  C   C133      1.0  0.3977600000000001  0.040209999999999996  0.7022  1.0000
  C   C134      1.0  0.41644000000000003  0.040119999999999996  0.75824  1.0000
  C   C135      1.0  0.4369800000000001  0.00394  0.6148800000000001  1.0000
  C   C136      1.0  0.47945  0.00635  0.52049  1.0000
  C   C137      1.0  0.36076  0.011949999999999997  0.57724  1.0000
  C   C138      1.0  0.27448  0.007329999999999999  0.58677  1.0000
  C   C139      1.0  0.2526400000000001  0.9612499999999999  0.62509  1.0000
  C   C140      1.0  0.16938  0.95856  0.63303  1.0000
  C   C141      1.0  0.12457  0.04183  0.56814  1.0000
  C   C142      1.0  0.20593000000000006  0.04704999999999999  0.55706  1.0000
  C   C143      1.0  0.07792000000000009  0.04051  0.7443100000000002  1.0000
  C   C144      1.0  0.0968  0.03713  0.80027  1.0000
  C   C145      1.0  0.04955000000000003  0.9928299999999998  0.8277400000000003  1.0000
  C   C146      1.0  0.9822100000000001  0.9557  0.7940500000000001  1.0000
  C   C147      1.0  0.9677600000000002  0.9620099999999999  0.73832  1.0000
  C   C148      1.0  0.06473000000000008  0.98798  0.8859800000000002  1.0000
  C   C149      1.0  0.14162  0.99625  0.92331  1.0000
  C   C150      1.0  0.22739  0.9979099999999999  0.91301  1.0000
  C   C151      1.0  0.25061  0.96214  0.8693  1.0000
  C   C152      1.0  0.3335600000000002  0.9659  0.8611500000000001  1.0000
  C   C153      1.0  0.3763800000000001  0.03555  0.9359900000000001  1.0000
  C   C154      1.0  0.29486000000000023  0.03435  0.9472000000000003  1.0000
  C   C155      1.0  0.022300000000000146  0.9947699999999998  0.9801600000000001  1.0000
  C   C156      1.0  0.7923400000000003  0.78815  0.96719  1.0000
  C   C157      1.0  0.9218000000000002  0.37685  0.57634  1.0000
  C   C158      1.0  0.8619600000000002  0.32777  0.55433  1.0000
  C   C159      1.0  0.7747800000000004  0.33476  0.55866  1.0000
  C   C160      1.0  0.7556499999999999  0.39364  0.58663  1.0000
  C   C161      1.0  0.8193800000000002  0.4406999999999999  0.6069  1.0000
  C   C162      1.0  0.7154200000000002  0.21919  0.5225700000000001  1.0000
  C   C163      1.0  0.7874600000000003  0.17565999999999998  0.5460600000000001  1.0000
  C   C164      1.0  0.8143900000000003  0.12103  0.5168600000000001  1.0000
  C   C165      1.0  0.8842100000000004  0.08138  0.5409000000000002  1.0000
  C   C166      1.0  0.9035200000000002  0.14305  0.62047  1.0000
  C   C167      1.0  0.83468  0.18530999999999995  0.59969  1.0000
  C   C168      1.0  0.5577200000000002  0.24986999999999998  0.4777800000000001  1.0000
  C   C169      1.0  0.47165000000000024  0.24771999999999994  0.45714  1.0000
  C   C170      1.0  0.3134200000000001  0.20736  0.4233500000000001  1.0000
  C   C171      1.0  0.2433800000000001  0.15893  0.41310000000000013  1.0000
  C   C172      1.0  0.25212  0.09353999999999998  0.39036  1.0000
  C   C173      1.0  0.18480000000000008  0.04723  0.3824500000000001  1.0000
  C   C174      1.0  0.09819000000000007  0.12295999999999997  0.4165000000000001  1.0000
  C   C175      1.0  0.16265  0.17148  0.427  1.0000
  C   C176      1.0  0.3084600000000002  0.27654  0.4344800000000001  1.0000
  C   C177      1.0  0.23174000000000003  0.31891  0.4236400000000001  1.0000
  C   C178      1.0  0.17015000000000002  0.3132  0.3743600000000001  1.0000
  C   C179      1.0  0.10045000000000004  0.35704  0.36362000000000005  1.0000
  C   C180      1.0  0.14335  0.41070999999999996  0.44652  1.0000
  C   C181      1.0  0.21556000000000006  0.36949999999999994  0.46020000000000005  1.0000
  C   C182      1.0  0.9667500000000002  0.46898999999999996  0.73847  1.0000
  C   C183      1.0  0.9806600000000002  0.46635  0.7944500000000001  1.0000
  C   C184      1.0  0.05033999999999999  0.5024699999999999  0.82665  1.0000
  C   C185      1.0  0.10221999999999999  0.5402399999999999  0.79779  1.0000
  C   C186      1.0  0.08354000000000009  0.54015  0.7417600000000001  1.0000
  C   C187      1.0  0.0630100000000001  0.50396  0.8851100000000002  1.0000
  C   C188      1.0  0.020550000000000075  0.50634  0.9795000000000003  1.0000
  C   C189      1.0  0.13924000000000006  0.5119199999999999  0.92275  1.0000
  C   C190      1.0  0.22551000000000002  0.50731  0.91321  1.0000
  C   C191      1.0  0.24735000000000013  0.4612299999999999  0.8748900000000001  1.0000
  C   C192      1.0  0.33061000000000007  0.45854  0.8669500000000001  1.0000
  C   C193      1.0  0.37542000000000003  0.5418099999999999  0.9318400000000001  1.0000
  C   C194      1.0  0.29406  0.54703  0.94292  1.0000
  C   C195      1.0  0.42213  0.5405099999999999  0.7557  1.0000
  C   C196      1.0  0.4032500000000002  0.5371499999999998  0.6997400000000003  1.0000
  C   C197      1.0  0.45051000000000013  0.49283999999999994  0.67227  1.0000
  C   C198      1.0  0.51784  0.45570999999999995  0.70595  1.0000
  C   C199      1.0  0.53228  0.46200999999999987  0.76169  1.0000
  C   C200      1.0  0.43531000000000014  0.48799  0.6140200000000001  1.0000
  C   C201      1.0  0.35841000000000006  0.49629  0.5766900000000001  1.0000
  C   C202      1.0  0.2726400000000001  0.49794999999999995  0.58699  1.0000
  C   C203      1.0  0.24944000000000005  0.46218999999999993  0.63071  1.0000
  C   C204      1.0  0.16648000000000002  0.46594999999999986  0.63887  1.0000
  C   C205      1.0  0.12365000000000002  0.53558  0.56402  1.0000
  C   C206      1.0  0.20516000000000006  0.53439  0.5528  1.0000
  C   C207      1.0  0.47770000000000024  0.49478  0.51983  1.0000
  C   C208      1.0  0.7076800000000002  0.28819  0.5328100000000001  1.0000
  S   S1        1.0  0.12776000000000007  0.31971  0.9775500000000001  1.0000
  S   S2        1.0  0.1077  0.17351  0.00369  1.0000
  S   S3        1.0  0.9062600000000002  0.17972999999999995  0.9573400000000001  1.0000
  S   S4        1.0  0.9186500000000002  0.32495  0.92523  1.0000
  S   S5        1.0  0.46777000000000013  0.9958099999999999  0.4109700000000001  1.0000
  S   S6        1.0  0.6302800000000002  0.97301  0.4905500000000001  1.0000
  S   S7        1.0  0.8654500000000003  0.9995699999999998  0.00767  1.0000
  S   S8        1.0  0.027920000000000018  0.02615  0.08655000000000003  1.0000
  S   S9        1.0  0.3722  0.81971  0.52242  1.0000
  S   S10       1.0  0.39229000000000014  0.6735  0.49632  1.0000
  S   S11       1.0  0.5937200000000002  0.67974  0.5426700000000001  1.0000
  S   S12       1.0  0.5813200000000003  0.82495  0.5747800000000001  1.0000
  S   S13       1.0  0.032230000000000016  0.49577  0.08903  1.0000
  S   S14       1.0  0.8697000000000003  0.47308  0.00944  1.0000
  S   S15       1.0  0.63454  0.49951  0.49233  1.0000
  S   S16       1.0  0.47207  0.52617  0.41347  1.0000
  S   S17       1.0  0.8722400000000002  0.68029  0.02245  1.0000
  S   S18       1.0  0.8923000000000002  0.8264799999999999  0.9963100000000001  1.0000
  S   S19       1.0  0.09374000000000003  0.8202699999999999  0.04266000000000001  1.0000
  S   S20       1.0  0.08135000000000002  0.67505  0.07477000000000002  1.0000
  S   S21       1.0  0.53223  0.004179999999999999  0.58903  1.0000
  S   S22       1.0  0.3697200000000001  0.02699  0.50944  1.0000
  S   S23       1.0  0.13455000000000017  0.00041999999999999996  0.9923300000000003  1.0000
  S   S24       1.0  0.97208  0.9738499999999999  0.91345  1.0000
  S   S25       1.0  0.6278000000000004  0.18029  0.4775800000000001  1.0000
  S   S26       1.0  0.6077100000000002  0.32649  0.50368  1.0000
  S   S27       1.0  0.4062800000000001  0.32024999999999987  0.45733  1.0000
  S   S28       1.0  0.41868000000000005  0.17503999999999997  0.42521000000000003  1.0000
  S   S29       1.0  0.96777  0.50422  0.91097  1.0000
  S   S30       1.0  0.13030000000000008  0.52691  0.9905600000000002  1.0000
  S   S31       1.0  0.3654600000000001  0.5004899999999999  0.50767  1.0000
  S   S32       1.0  0.52793  0.47381999999999996  0.58653  1.0000
  N   N1        1.0  0.40257  0.06606  0.10229000000000002  1.0000
  N   N2        1.0  0.42942000000000013  0.40932  0.09227  1.0000
  N   N3        1.0  0.60687  0.43931  0.8942  1.0000
  N   N4        1.0  0.5860400000000004  0.09305  0.8983900000000002  1.0000
  N   N5        1.0  0.5166000000000002  0.9947699999999998  0.21100000000000005  1.0000
  N   N6        1.0  0.8958300000000002  0.00126  0.3940700000000001  1.0000
  N   N7        1.0  0.6022400000000002  0.9975199999999997  0.10674000000000002  1.0000
  N   N8        1.0  0.9853900000000002  0.99679  0.28792  1.0000
  N   N9        1.0  0.09743000000000002  0.56602  0.3977  1.0000
  N   N10       1.0  0.07057000000000002  0.9093099999999997  0.4077100000000001  1.0000
  N   N11       1.0  0.8931000000000002  0.93935  0.60578  1.0000
  N   N12       1.0  0.9139800000000002  0.5931  0.60161  1.0000
  N   N13       1.0  0.9834300000000002  0.49473999999999996  0.289  1.0000
  N   N14       1.0  0.60419  0.50127  0.10594000000000002  1.0000
  N   N15       1.0  0.89773  0.49749  0.39325  1.0000
  N   N16       1.0  0.5145800000000003  0.4968  0.21206000000000005  1.0000
  N   N17       1.0  0.5974300000000002  0.93393  0.8977100000000001  1.0000
  N   N18       1.0  0.5705900000000003  0.5906699999999998  0.90772  1.0000
  N   N19       1.0  0.3931300000000001  0.5606799999999998  0.1058  1.0000
  N   N20       1.0  0.4139600000000001  0.9069499999999999  0.10161000000000002  1.0000
  N   N21       1.0  0.48341000000000023  0.00522  0.7889900000000002  1.0000
  N   N22       1.0  0.10417  0.99874  0.60593  1.0000
  N   N23       1.0  0.39776000000000017  0.0024799999999999996  0.8932600000000003  1.0000
  N   N24       1.0  0.014610000000000048  0.0032099999999999997  0.7120700000000001  1.0000
  N   N25       1.0  0.9025700000000002  0.43397  0.6023  1.0000
  N   N26       1.0  0.9294300000000002  0.09069  0.59228  1.0000
  N   N27       1.0  0.10691000000000006  0.060639999999999986  0.39422  1.0000
  N   N28       1.0  0.08602000000000004  0.40689  0.39839000000000013  1.0000
  N   N29       1.0  0.016570000000000085  0.50526  0.7110000000000002  1.0000
  N   N30       1.0  0.39581000000000005  0.49872  0.89405  1.0000
  N   N31       1.0  0.10227000000000007  0.5024999999999998  0.6067500000000001  1.0000
  N   N32       1.0  0.4854200000000002  0.50319  0.7879400000000002  1.0000
