data_image0
_chemical_formula_structural       Zn16H144C264O52
_chemical_formula_sum              "Zn16 H144 C264 O52"
_cell_length_a       16.15383
_cell_length_b       19.89859
_cell_length_c       25.75897
_cell_angle_alpha    89.67635
_cell_angle_beta     90.02938
_cell_angle_gamma    90.04842

_symmetry_space_group_name_H-M    'P 1'
_symmetry_Int_Tables_number       1

loop_
  _symmetry_equiv_pos_as_xyz
  'x,y,z'

loop_
  _atom_site_type_symbol
  _atom_site_label
  _atom_site_symmetry_multiplicity
  _atom_site_fract_x
  _atom_site_fract_y
  _atom_site_fract_z
  _atom_site_occupancy
  Zn  Zn1       1.0  0.77698  0.6653  0.82147  1.0000
  Zn  Zn2       1.0  0.86505  0.74302  0.7324  1.0000
  Zn  Zn3       1.0  0.78591  0.8292199999999998  0.82638  1.0000
  Zn  Zn4       1.0  0.66926  0.7556599999999998  0.74335  1.0000
  Zn  Zn5       1.0  0.2769  0.33456  0.67855  1.0000
  Zn  Zn6       1.0  0.3650199999999999  0.25654  0.7675099999999999  1.0000
  Zn  Zn7       1.0  0.28578  0.1704  0.6736199999999999  1.0000
  Zn  Zn8       1.0  0.16921  0.24427999999999994  0.7565599999999999  1.0000
  Zn  Zn9       1.0  0.22301999999999994  0.3347  0.17853  1.0000
  Zn  Zn10      1.0  0.13495  0.25699  0.26759  1.0000
  Zn  Zn11      1.0  0.21408999999999995  0.17079  0.17362  1.0000
  Zn  Zn12      1.0  0.33074  0.24434999999999996  0.25665  1.0000
  Zn  Zn13      1.0  0.72311  0.66544  0.32145  1.0000
  Zn  Zn14      1.0  0.63498  0.74347  0.23249  1.0000
  Zn  Zn15      1.0  0.71423  0.82961  0.32638  1.0000
  Zn  Zn16      1.0  0.8308  0.7557199999999997  0.24343999999999996  1.0000
  H   H1        1.0  0.37547999999999987  0.57379  0.00568  1.0000
  H   H2        1.0  0.45128  0.36949  0.8430199999999999  1.0000
  H   H3        1.0  0.82717  0.80634  0.4766599999999999  1.0000
  H   H4        1.0  0.18594  0.015599999999999996  0.64234  1.0000
  H   H5        1.0  0.6148399999999998  0.41498  0.48363  1.0000
  H   H6        1.0  0.04805  0.8164499999999999  0.69902  1.0000
  H   H7        1.0  0.51541  0.60509  0.7011499999999999  1.0000
  H   H8        1.0  0.97914  0.7979999999999998  0.60908  1.0000
  H   H9        1.0  0.60097  0.5254899999999999  0.43771  1.0000
  H   H10       1.0  0.96542  0.8370199999999999  0.51699  1.0000
  H   H11       1.0  0.6252699999999998  0.6474799999999999  0.62993  1.0000
  H   H12       1.0  0.8479699999999998  0.79921  0.57261  1.0000
  H   H13       1.0  0.6372  0.5169499999999999  0.63027  1.0000
  H   H14       1.0  0.59262  0.65523  0.44554  1.0000
  H   H15       1.0  0.4494  0.7136899999999999  0.4525  1.0000
  H   H16       1.0  0.57724  0.2923899999999999  0.86416  1.0000
  H   H17       1.0  0.29488  0.47131  0.98501  1.0000
  H   H18       1.0  0.73813  0.50108  0.90169  1.0000
  H   H19       1.0  0.34023  0.7578499999999999  0.71376  1.0000
  H   H20       1.0  0.94644  0.9881  0.81916  1.0000
  H   H21       1.0  0.03211999999999999  0.08818  0.79681  1.0000
  H   H22       1.0  0.18589  0.7546499999999999  0.71745  1.0000
  H   H23       1.0  0.35748  0.75843  0.6058  1.0000
  H   H24       1.0  0.12223  0.00734  0.54938  1.0000
  H   H25       1.0  0.43279  0.50254  0.68131  1.0000
  H   H26       1.0  0.03556999999999999  0.9415599999999998  0.48776  1.0000
  H   H27       1.0  0.3422  0.3942799999999999  0.91494  1.0000
  H   H28       1.0  0.50304  0.60197  0.95531  1.0000
  H   H29       1.0  0.3396899999999999  0.76103  0.51013  1.0000
  H   H30       1.0  0.60456  0.56849  0.8813199999999999  1.0000
  H   H31       1.0  0.80521  0.3880099999999999  0.90973  1.0000
  H   H32       1.0  0.33136  0.96143  0.65488  1.0000
  H   H33       1.0  0.63402  0.41099  0.57882  1.0000
  H   H34       1.0  0.48346  0.70686  0.6453  1.0000
  H   H35       1.0  0.4126  0.8599299999999999  0.6820499999999999  1.0000
  H   H36       1.0  0.7246  0.28483  0.89159  1.0000
  H   H37       1.0  0.87541  0.4261599999999999  0.49413  1.0000
  H   H38       1.0  0.9511899999999998  0.6303  0.65705  1.0000
  H   H39       1.0  0.32745  0.19358999999999996  0.02308  1.0000
  H   H40       1.0  0.68608  0.9848099999999999  0.85789  1.0000
  H   H41       1.0  0.11483  0.58495  0.01622  1.0000
  H   H42       1.0  0.54795  0.18351999999999993  0.80085  1.0000
  H   H43       1.0  0.01539  0.39457999999999993  0.79881  1.0000
  H   H44       1.0  0.47901  0.20199  0.8909399999999998  1.0000
  H   H45       1.0  0.10115  0.47444999999999987  0.06217  1.0000
  H   H46       1.0  0.46526  0.16285  0.98296  1.0000
  H   H47       1.0  0.12523  0.35248  0.86994  1.0000
  H   H48       1.0  0.34802  0.20080999999999996  0.92709  1.0000
  H   H49       1.0  0.13712999999999995  0.48298  0.8696199999999998  1.0000
  H   H50       1.0  0.0932  0.34457  0.05436  1.0000
  H   H51       1.0  0.94945  0.28631  0.04737  1.0000
  H   H52       1.0  0.07724999999999997  0.7075299999999999  0.63595  1.0000
  H   H53       1.0  0.79483  0.52852  0.51483  1.0000
  H   H54       1.0  0.23787  0.49893999999999994  0.59845  1.0000
  H   H55       1.0  0.84042  0.24239999999999995  0.7861599999999999  1.0000
  H   H56       1.0  0.44664  0.01108  0.6808  1.0000
  H   H57       1.0  0.53324  0.9115099999999998  0.70306  1.0000
  H   H58       1.0  0.68613  0.24554999999999993  0.7823999999999999  1.0000
  H   H59       1.0  0.8573699999999997  0.24149  0.89405  1.0000
  H   H60       1.0  0.62245  0.9930099999999998  0.95066  1.0000
  H   H61       1.0  0.93244  0.4969099999999999  0.81862  1.0000
  H   H62       1.0  0.5356  0.05848999999999999  0.01224  1.0000
  H   H63       1.0  0.8421099999999998  0.6054999999999998  0.58502  1.0000
  H   H64       1.0  0.00284  0.39798999999999995  0.54465  1.0000
  H   H65       1.0  0.83966  0.23897  0.9897099999999999  1.0000
  H   H66       1.0  0.10428999999999997  0.43148999999999993  0.61872  1.0000
  H   H67       1.0  0.30506  0.6120599999999998  0.59034  1.0000
  H   H68       1.0  0.83129  0.039049999999999994  0.84548  1.0000
  H   H69       1.0  0.13395  0.58895  0.92104  1.0000
  H   H70       1.0  0.98339  0.29309  0.85458  1.0000
  H   H71       1.0  0.91267  0.1405  0.81816  1.0000
  H   H72       1.0  0.22457  0.7151899999999999  0.60848  1.0000
  H   H73       1.0  0.62452  0.42622  0.9943199999999999  1.0000
  H   H74       1.0  0.5487199999999998  0.63052  0.15698  1.0000
  H   H75       1.0  0.17283  0.19366999999999995  0.52334  1.0000
  H   H76       1.0  0.81406  0.9844099999999999  0.3576599999999999  1.0000
  H   H77       1.0  0.38517  0.5850199999999998  0.51637  1.0000
  H   H78       1.0  0.95195  0.18356  0.30098  1.0000
  H   H79       1.0  0.4845899999999999  0.3949099999999999  0.29885  1.0000
  H   H80       1.0  0.02086  0.20200999999999994  0.39092  1.0000
  H   H81       1.0  0.3990299999999999  0.47452  0.56229  1.0000
  H   H82       1.0  0.03458  0.16297999999999999  0.483  1.0000
  H   H83       1.0  0.37473  0.35252  0.37007  1.0000
  H   H84       1.0  0.15203  0.20079999999999995  0.42739  1.0000
  H   H85       1.0  0.3628  0.48305  0.36973  1.0000
  H   H86       1.0  0.40738999999999986  0.34478  0.55445  1.0000
  H   H87       1.0  0.5506  0.28632  0.5475  1.0000
  H   H88       1.0  0.42277  0.70762  0.13584  1.0000
  H   H89       1.0  0.70512  0.5287  0.01499  1.0000
  H   H90       1.0  0.26188  0.49892999999999993  0.09829999999999998  1.0000
  H   H91       1.0  0.65977  0.24215  0.28624  1.0000
  H   H92       1.0  0.05356  0.01191  0.18084  1.0000
  H   H93       1.0  0.96788  0.9118199999999999  0.20319  1.0000
  H   H94       1.0  0.81411  0.24534999999999996  0.28255  1.0000
  H   H95       1.0  0.64253  0.24156999999999998  0.3942  1.0000
  H   H96       1.0  0.8777699999999998  0.9926699999999999  0.45062  1.0000
  H   H97       1.0  0.56721  0.4974599999999999  0.3186899999999999  1.0000
  H   H98       1.0  0.96443  0.058449999999999995  0.51224  1.0000
  H   H99       1.0  0.65781  0.60573  0.08506  1.0000
  H   H100      1.0  0.49696  0.39803999999999995  0.04469  1.0000
  H   H101      1.0  0.66031  0.23897  0.48987  1.0000
  H   H102      1.0  0.39544  0.43151999999999996  0.11867  1.0000
  H   H103      1.0  0.19479  0.61199  0.09026  1.0000
  H   H104      1.0  0.66865  0.03856999999999999  0.3451199999999999  1.0000
  H   H105      1.0  0.36598  0.58901  0.42118  1.0000
  H   H106      1.0  0.51655  0.29314  0.35469999999999996  1.0000
  H   H107      1.0  0.58741  0.14008  0.31795  1.0000
  H   H108      1.0  0.2754  0.7151699999999999  0.1084  1.0000
  H   H109      1.0  0.1246  0.57384  0.50587  1.0000
  H   H110      1.0  0.048809999999999985  0.36969999999999986  0.34295  1.0000
  H   H111      1.0  0.67255  0.80642  0.97692  1.0000
  H   H112      1.0  0.31393  0.01519  0.14211  1.0000
  H   H113      1.0  0.88517  0.41505999999999993  0.98378  1.0000
  H   H114      1.0  0.4520599999999999  0.8164899999999999  0.19915  1.0000
  H   H115      1.0  0.98462  0.6054199999999998  0.20119  1.0000
  H   H116      1.0  0.5209899999999997  0.79801  0.10906  1.0000
  H   H117      1.0  0.8988599999999998  0.52556  0.93783  1.0000
  H   H118      1.0  0.53475  0.8371599999999998  0.01704  1.0000
  H   H119      1.0  0.8747799999999998  0.64752  0.13006  1.0000
  H   H120      1.0  0.65198  0.7991999999999999  0.07291  1.0000
  H   H121      1.0  0.86287  0.5170299999999999  0.13038  1.0000
  H   H122      1.0  0.90681  0.65544  0.9456399999999999  1.0000
  H   H123      1.0  0.050559999999999994  0.7137  0.95263  1.0000
  H   H124      1.0  0.92275  0.29248  0.36405  1.0000
  H   H125      1.0  0.20517  0.47147999999999995  0.48517  1.0000
  H   H126      1.0  0.76213  0.50106  0.40155  1.0000
  H   H127      1.0  0.15959  0.75761  0.21383999999999997  1.0000
  H   H128      1.0  0.55337  0.9889199999999998  0.31919000000000003  1.0000
  H   H129      1.0  0.4667599999999999  0.08849  0.29694  1.0000
  H   H130      1.0  0.31388  0.75446  0.2176  1.0000
  H   H131      1.0  0.14263  0.75851  0.10594999999999999  1.0000
  H   H132      1.0  0.3775499999999999  0.006989999999999999  0.04934  1.0000
  H   H133      1.0  0.06756  0.5031  0.18137  1.0000
  H   H134      1.0  0.4644  0.94152  0.98776  1.0000
  H   H135      1.0  0.15789  0.3945099999999999  0.41498  1.0000
  H   H136      1.0  0.99717  0.60201  0.45535  1.0000
  H   H137      1.0  0.16035  0.76104  0.01029  1.0000
  H   H138      1.0  0.89571  0.56852  0.38128  1.0000
  H   H139      1.0  0.69495  0.3879499999999999  0.40966  1.0000
  H   H140      1.0  0.16872  0.9609599999999999  0.15452  1.0000
  H   H141      1.0  0.86605  0.4110499999999999  0.07896  1.0000
  H   H142      1.0  0.01661  0.7069099999999999  0.14541  1.0000
  H   H143      1.0  0.08733  0.8595099999999999  0.18184  1.0000
  H   H144      1.0  0.77544  0.28482  0.3915199999999999  1.0000
  C   C1        1.0  0.6068499999999998  0.6293399999999999  0.78418  1.0000
  C   C2        1.0  0.059319999999999984  0.8803199999999999  0.62991  1.0000
  C   C3        1.0  0.39579  0.54118  0.97441  1.0000
  C   C4        1.0  0.93764  0.87113  0.77129  1.0000
  C   C5        1.0  0.75712  0.73498  0.6419899999999998  1.0000
  C   C6        1.0  0.41233  0.3935199999999999  0.73905  1.0000
  C   C7        1.0  0.53748  0.5220499999999999  0.81639  1.0000
  C   C8        1.0  0.5484  0.57188  0.77823  1.0000
  C   C9        1.0  0.17318  0.85627  0.6887199999999999  1.0000
  C   C10       1.0  0.6205599999999998  0.45933  0.8785299999999999  1.0000
  C   C11       1.0  0.09987  0.9819799999999997  0.7030300000000002  1.0000
  C   C12       1.0  0.9973000000000001  0.92655  0.75888  1.0000
  C   C13       1.0  0.05549  0.9236199999999999  0.7181999999999998  1.0000
  C   C14       1.0  0.486  0.4151399999999999  0.8514799999999999  1.0000
  C   C15       1.0  0.09143  0.04182  0.7315  1.0000
  C   C16       1.0  0.68367  0.6928299999999998  0.56105  1.0000
  C   C17       1.0  0.7264199999999997  0.7352999999999997  0.47639  1.0000
  C   C18       1.0  0.4917999999999999  0.46334999999999993  0.80498  1.0000
  C   C19       1.0  0.7884899999999998  0.77383  0.50051  1.0000
  C   C20       1.0  0.09959  0.9391599999999999  0.6134  1.0000
  C   C21       1.0  0.15449999999999994  0.9700799999999999  0.65529  1.0000
  C   C22       1.0  0.6175699999999997  0.46160999999999996  0.5054  1.0000
  C   C23       1.0  0.07916  0.86202  0.6860499999999999  1.0000
  C   C24       1.0  0.5265  0.68322  0.5168  1.0000
  C   C25       1.0  0.5082899999999998  0.56532  0.72989  1.0000
  C   C26       1.0  0.57529  0.40082  0.86758  1.0000
  C   C27       1.0  0.010159999999999999  0.84359  0.59587  1.0000
  C   C28       1.0  0.7466199999999997  0.73044  0.58465  1.0000
  C   C29       1.0  0.67469  0.6942499999999998  0.50657  1.0000
  C   C30       1.0  0.60971  0.52348  0.47959  1.0000
  C   C31       1.0  0.00218  0.86596  0.54436  1.0000
  C   C32       1.0  0.61802  0.6493  0.58782  1.0000
  C   C33       1.0  0.49299  0.5144  0.90665  1.0000
  C   C34       1.0  0.79988  0.76997  0.55372  1.0000
  C   C35       1.0  0.6296399999999998  0.51874  0.58829  1.0000
  C   C36       1.0  0.60018  0.6536799999999999  0.48764  1.0000
  C   C37       1.0  0.45625  0.71184  0.49451999999999996  1.0000
  C   C38       1.0  0.21416999999999994  0.9143399999999999  0.6714  1.0000
  C   C39       1.0  0.61226  0.33788  0.87227  1.0000
  C   C40       1.0  0.35074  0.4830199999999999  0.9631099999999999  1.0000
  C   C41       1.0  0.70331  0.45548999999999995  0.89344  1.0000
  C   C42       1.0  0.3045899999999999  0.8017599999999999  0.70202  1.0000
  C   C43       1.0  0.99015  0.9865899999999999  0.7872  1.0000
  C   C44       1.0  0.4565299999999999  0.45554  0.7554699999999999  1.0000
  C   C45       1.0  0.036979999999999985  0.04238  0.7743599999999999  1.0000
  C   C46       1.0  0.7187  0.7399899999999999  0.41886999999999996  1.0000
  C   C47       1.0  0.21783  0.7998299999999999  0.70435  1.0000
  C   C48       1.0  0.40457  0.73657  0.5809  1.0000
  C   C49       1.0  0.09083  0.9618599999999999  0.56241  1.0000
  C   C50       1.0  0.46287  0.50822  0.71877  1.0000
  C   C51       1.0  0.04204  0.92464  0.52778  1.0000
  C   C52       1.0  0.37682  0.43984999999999996  0.92347  1.0000
  C   C53       1.0  0.4673899999999999  0.55718  0.94614  1.0000
  C   C54       1.0  0.39488  0.7384499999999999  0.52699  1.0000
  C   C55       1.0  0.56936  0.5232499999999999  0.87232  1.0000
  C   C56       1.0  0.74067  0.3921099999999999  0.89805  1.0000
  C   C57       1.0  0.30019  0.9163899999999998  0.66893  1.0000
  C   C58       1.0  0.62766  0.45932  0.55927  1.0000
  C   C59       1.0  0.47541  0.70766  0.6033  1.0000
  C   C60       1.0  0.62115  0.58017  0.56259  1.0000
  C   C61       1.0  0.13837999999999995  0.10553999999999998  0.72118  1.0000
  C   C62       1.0  0.53598  0.68092  0.57099  1.0000
  C   C63       1.0  0.6114  0.58245  0.50847  1.0000
  C   C64       1.0  0.44797  0.45599  0.89541  1.0000
  C   C65       1.0  0.34537  0.8594599999999999  0.68425  1.0000
  C   C66       1.0  0.69535  0.33381  0.8878099999999999  1.0000
  C   C67       1.0  0.10692999999999998  0.37064999999999987  0.71554  1.0000
  C   C68       1.0  0.55922  0.11979  0.87006  1.0000
  C   C69       1.0  0.89566  0.45872999999999997  0.52547  1.0000
  C   C70       1.0  0.43695  0.12772  0.72846  1.0000
  C   C71       1.0  0.25721  0.26503  0.8578799999999999  1.0000
  C   C72       1.0  0.91229  0.60613  0.7610199999999999  1.0000
  C   C73       1.0  0.03732  0.47786  0.68364  1.0000
  C   C74       1.0  0.0485  0.42801  0.72175  1.0000
  C   C75       1.0  0.67317  0.14396999999999996  0.81131  1.0000
  C   C76       1.0  0.12038  0.54064  0.62155  1.0000
  C   C77       1.0  0.6002  0.01819  0.7969  1.0000
  C   C78       1.0  0.49720999999999993  0.07291  0.7410599999999999  1.0000
  C   C79       1.0  0.55547  0.07630999999999999  0.78175  1.0000
  C   C80       1.0  0.9858699999999999  0.5846999999999998  0.64859  1.0000
  C   C81       1.0  0.59233  0.9584699999999999  0.76822  1.0000
  C   C82       1.0  0.18391  0.3071599999999999  0.93877  1.0000
  C   C83       1.0  0.22699  0.26473  0.02337  1.0000
  C   C84       1.0  0.99163  0.5364699999999999  0.69508  1.0000
  C   C85       1.0  0.28886  0.22617  0.99924  1.0000
  C   C86       1.0  0.59956  0.06103999999999998  0.88661  1.0000
  C   C87       1.0  0.65453  0.030189999999999998  0.84482  1.0000
  C   C88       1.0  0.11765  0.53832  0.9944699999999999  1.0000
  C   C89       1.0  0.57906  0.13803  0.8139  1.0000
  C   C90       1.0  0.02676  0.31660999999999995  0.98311  1.0000
  C   C91       1.0  0.00828  0.4343699999999999  0.77008  1.0000
  C   C92       1.0  0.07518  0.5990999999999999  0.63252  1.0000
  C   C93       1.0  0.5100699999999998  0.15642999999999999  0.90411  1.0000
  C   C94       1.0  0.24681  0.26959  0.91518  1.0000
  C   C95       1.0  0.17511  0.3057099999999999  0.99324  1.0000
  C   C96       1.0  0.10991  0.47643999999999986  0.02029  1.0000
  C   C97       1.0  0.5021  0.13404  0.9556199999999999  1.0000
  C   C98       1.0  0.11817  0.35062  0.91205  1.0000
  C   C99       1.0  0.9927600000000001  0.4854699999999999  0.59338  1.0000
  C   C100      1.0  0.30011  0.23005  0.9460399999999999  1.0000
  C   C101      1.0  0.1297  0.48119  0.9116  1.0000
  C   C102      1.0  0.10062999999999997  0.34616  0.012259999999999998  1.0000
  C   C103      1.0  0.9563599999999998  0.28810999999999987  0.00535  1.0000
  C   C104      1.0  0.71419  0.08601  0.82876  1.0000
  C   C105      1.0  0.11221  0.66206  0.62783  1.0000
  C   C106      1.0  0.85065  0.5168299999999999  0.53678  1.0000
  C   C107      1.0  0.20313  0.5445099999999999  0.60667  1.0000
  C   C108      1.0  0.80469  0.19852999999999996  0.79801  1.0000
  C   C109      1.0  0.49039  0.01284  0.7127399999999999  1.0000
  C   C110      1.0  0.9563599999999998  0.54412  0.74459  1.0000
  C   C111      1.0  0.5377  0.95739  0.72547  1.0000
  C   C112      1.0  0.22007  0.26053  0.08092  1.0000
  C   C113      1.0  0.71792  0.2004  0.7956199999999999  1.0000
  C   C114      1.0  0.90453  0.26337  0.91895  1.0000
  C   C115      1.0  0.59091  0.03836999999999999  0.93761  1.0000
  C   C116      1.0  0.96269  0.4913499999999999  0.78122  1.0000
  C   C117      1.0  0.54205  0.07544999999999998  0.97222  1.0000
  C   C118      1.0  0.87669  0.55996  0.5765  1.0000
  C   C119      1.0  0.96719  0.44271999999999995  0.55382  1.0000
  C   C120      1.0  0.89489  0.26154  0.97286  1.0000
  C   C121      1.0  0.06912  0.47667999999999994  0.62772  1.0000
  C   C122      1.0  0.24054  0.6079199999999999  0.60205  1.0000
  C   C123      1.0  0.8002  0.08404  0.8313199999999998  1.0000
  C   C124      1.0  0.12771  0.54062  0.9406099999999998  1.0000
  C   C125      1.0  0.97542  0.29227999999999993  0.89658  1.0000
  C   C126      1.0  0.12136  0.41975  0.93731  1.0000
  C   C127      1.0  0.64046  0.89539  0.77813  1.0000
  C   C128      1.0  0.03613  0.31893  0.92891  1.0000
  C   C129      1.0  0.11173  0.41745  0.99143  1.0000
  C   C130      1.0  0.94778  0.5438299999999999  0.60463  1.0000
  C   C131      1.0  0.8454399999999999  0.14094  0.8159099999999999  1.0000
  C   C132      1.0  0.19528999999999994  0.66618  0.61228  1.0000
  C   C133      1.0  0.39316  0.37067  0.21582  1.0000
  C   C134      1.0  0.94068  0.11969  0.37009  1.0000
  C   C135      1.0  0.60421  0.45882999999999996  0.025589999999999998  1.0000
  C   C136      1.0  0.06236  0.12888  0.2287  1.0000
  C   C137      1.0  0.24288  0.26503  0.35801  1.0000
  C   C138      1.0  0.58767  0.60649  0.26095  1.0000
  C   C139      1.0  0.4625199999999999  0.47796  0.18361  1.0000
  C   C140      1.0  0.4515999999999999  0.42812  0.22177  1.0000
  C   C141      1.0  0.82683  0.14373  0.31128  1.0000
  C   C142      1.0  0.37944  0.54068  0.12146999999999997  1.0000
  C   C143      1.0  0.90013  0.01802  0.29697  1.0000
  C   C144      1.0  0.0027  0.07344999999999997  0.24112  1.0000
  C   C145      1.0  0.94451  0.07637999999999999  0.2818  1.0000
  C   C146      1.0  0.514  0.58487  0.14852  1.0000
  C   C147      1.0  0.90858  0.9581899999999999  0.2685  1.0000
  C   C148      1.0  0.31633  0.30717999999999995  0.43895  1.0000
  C   C149      1.0  0.27359  0.26471  0.52361  1.0000
  C   C150      1.0  0.5082  0.53666  0.19502  1.0000
  C   C151      1.0  0.21152  0.22617999999999996  0.49949  1.0000
  C   C152      1.0  0.90041  0.06084  0.3866  1.0000
  C   C153      1.0  0.8454999999999998  0.02992999999999999  0.34471  1.0000
  C   C154      1.0  0.38243  0.5384  0.4946  1.0000
  C   C155      1.0  0.92084  0.13799  0.31395  1.0000
  C   C156      1.0  0.4735  0.31678999999999996  0.4832  1.0000
  C   C157      1.0  0.49171  0.43469  0.27011  1.0000
  C   C158      1.0  0.42471  0.59919  0.13242  1.0000
  C   C159      1.0  0.9898399999999998  0.15640999999999997  0.40413  1.0000
  C   C160      1.0  0.25339  0.26956  0.41535  1.0000
  C   C161      1.0  0.32531  0.3057599999999999  0.49342  1.0000
  C   C162      1.0  0.3903  0.47653  0.52041  1.0000
  C   C163      1.0  0.9978200000000002  0.13404999999999997  0.45564  1.0000
  C   C164      1.0  0.38199  0.35071  0.4121699999999999  1.0000
  C   C165      1.0  0.50701  0.4856  0.09335  1.0000
  C   C166      1.0  0.20013  0.23002999999999998  0.44628  1.0000
  C   C167      1.0  0.37036  0.48127  0.41169999999999995  1.0000
  C   C168      1.0  0.3998199999999999  0.34632  0.51236  1.0000
  C   C169      1.0  0.54376  0.28816  0.50548  1.0000
  C   C170      1.0  0.78584  0.08567  0.3286  1.0000
  C   C171      1.0  0.38774  0.66213  0.12773  1.0000
  C   C172      1.0  0.64926  0.5169899999999998  0.03689  1.0000
  C   C173      1.0  0.29669  0.5445099999999999  0.10655999999999999  1.0000
  C   C174      1.0  0.69542  0.19823999999999997  0.29798  1.0000
  C   C175      1.0  0.00985  0.01342  0.21279  1.0000
  C   C176      1.0  0.54347  0.54446  0.24453  1.0000
  C   C177      1.0  0.96302  0.9576199999999999  0.22564  1.0000
  C   C178      1.0  0.2812999999999999  0.26002  0.58113  1.0000
  C   C179      1.0  0.78218  0.20018  0.29565  1.0000
  C   C180      1.0  0.59544  0.26343  0.41909  1.0000
  C   C181      1.0  0.90917  0.03814999999999999  0.43759  1.0000
  C   C182      1.0  0.5371399999999997  0.4917899999999999  0.28123  1.0000
  C   C183      1.0  0.95796  0.07536999999999998  0.47222  1.0000
  C   C184      1.0  0.62318  0.56016  0.07653  1.0000
  C   C185      1.0  0.53262  0.44281999999999994  0.05386  1.0000
  C   C186      1.0  0.60512  0.26155  0.47301  1.0000
  C   C187      1.0  0.43065  0.47675  0.12768  1.0000
  C   C188      1.0  0.25933  0.6078999999999999  0.10195  1.0000
  C   C189      1.0  0.6998099999999998  0.08362  0.33107  1.0000
  C   C190      1.0  0.37234  0.5406899999999999  0.44073  1.0000
  C   C191      1.0  0.5246  0.2923499999999999  0.3967  1.0000
  C   C192      1.0  0.37885  0.41983999999999994  0.43741  1.0000
  C   C193      1.0  0.8616199999999998  0.89447  0.27882  1.0000
  C   C194      1.0  0.4640299999999999  0.31908  0.42901  1.0000
  C   C195      1.0  0.3886  0.41756  0.49152  1.0000
  C   C196      1.0  0.55204  0.5440099999999999  0.10459  1.0000
  C   C197      1.0  0.6546399999999998  0.14055  0.3157499999999999  1.0000
  C   C198      1.0  0.30465  0.6661899999999997  0.11218  1.0000
  C   C199      1.0  0.89307  0.62935  0.28446  1.0000
  C   C200      1.0  0.44079  0.88022  0.12994  1.0000
  C   C201      1.0  0.10434  0.54128  0.47451999999999994  1.0000
  C   C202      1.0  0.56305  0.87228  0.27154  1.0000
  C   C203      1.0  0.7427999999999998  0.73498  0.14212  1.0000
  C   C204      1.0  0.08770999999999997  0.39386999999999994  0.23898  1.0000
  C   C205      1.0  0.96268  0.5221499999999999  0.31636  1.0000
  C   C206      1.0  0.9515  0.57199  0.27825  1.0000
  C   C207      1.0  0.3268299999999999  0.85604  0.18869  1.0000
  C   C208      1.0  0.87962  0.45936999999999995  0.37845  1.0000
  C   C209      1.0  0.39981  0.9818199999999998  0.2031  1.0000
  C   C210      1.0  0.50279  0.9270899999999999  0.25894  1.0000
  C   C211      1.0  0.44454  0.9237  0.21824  1.0000
  C   C212      1.0  0.014129999999999997  0.41531  0.35141000000000006  1.0000
  C   C213      1.0  0.40767  0.04154  0.23178  1.0000
  C   C214      1.0  0.81609  0.6928499999999999  0.06123  1.0000
  C   C215      1.0  0.77301  0.73527  0.97663  1.0000
  C   C216      1.0  0.00838  0.46354  0.30492  1.0000
  C   C217      1.0  0.71114  0.7738399999999998  0.0007599999999999999  1.0000
  C   C218      1.0  0.4004499999999999  0.93897  0.11339  1.0000
  C   C219      1.0  0.34547  0.96981  0.15518  1.0000
  C   C220      1.0  0.88236  0.46168999999999993  0.00553  1.0000
  C   C221      1.0  0.42093999999999987  0.86198  0.18609999999999996  1.0000
  C   C222      1.0  0.97324  0.68339  0.01689  1.0000
  C   C223      1.0  0.9917199999999999  0.56563  0.22991999999999999  1.0000
  C   C224      1.0  0.92482  0.40091  0.36748  1.0000
  C   C225      1.0  0.48994  0.84358  0.09589  1.0000
  C   C226      1.0  0.75319  0.73042  0.08481  1.0000
  C   C227      1.0  0.82489  0.6942899999999999  0.0067599999999999995  1.0000
  C   C228      1.0  0.8900999999999998  0.5235699999999999  0.97971  1.0000
  C   C229      1.0  0.4979  0.8659699999999999  0.04438  1.0000
  C   C230      1.0  0.88184  0.64939  0.08795  1.0000
  C   C231      1.0  0.00724  0.51453  0.4066199999999999  1.0000
  C   C232      1.0  0.6999  0.76995  0.05396  1.0000
  C   C233      1.0  0.87031  0.5188099999999999  0.0884  1.0000
  C   C234      1.0  0.89937  0.65385  0.9877399999999998  1.0000
  C   C235      1.0  0.04364  0.7118899999999999  0.99464  1.0000
  C   C236      1.0  0.28580999999999995  0.9139899999999999  0.17123999999999998  1.0000
  C   C237      1.0  0.88779  0.33795  0.37216999999999995  1.0000
  C   C238      1.0  0.14935  0.48318  0.46322  1.0000
  C   C239      1.0  0.7968799999999998  0.45548999999999995  0.39333  1.0000
  C   C240      1.0  0.19531  0.8014799999999999  0.20198999999999998  1.0000
  C   C241      1.0  0.50962  0.9871599999999998  0.28726  1.0000
  C   C242      1.0  0.04364  0.45589  0.25541  1.0000
  C   C243      1.0  0.46231  0.04261  0.27453  1.0000
  C   C244      1.0  0.77994  0.73948  0.9190799999999999  1.0000
  C   C245      1.0  0.2820899999999999  0.79961  0.20438  1.0000
  C   C246      1.0  0.09547  0.7366399999999997  0.08105  1.0000
  C   C247      1.0  0.4090999999999999  0.96163  0.06239  1.0000
  C   C248      1.0  0.03731  0.50866  0.21878  1.0000
  C   C249      1.0  0.4579499999999999  0.92455  0.02778  1.0000
  C   C250      1.0  0.12331  0.44004999999999994  0.4235  1.0000
  C   C251      1.0  0.03281  0.55728  0.44617  1.0000
  C   C252      1.0  0.10511  0.73847  0.02714  1.0000
  C   C253      1.0  0.93088  0.52332  0.37228  1.0000
  C   C254      1.0  0.75946  0.39207999999999993  0.39795  1.0000
  C   C255      1.0  0.1998  0.9159699999999998  0.16868  1.0000
  C   C256      1.0  0.8723  0.45937999999999996  0.05939  1.0000
  C   C257      1.0  0.024589999999999994  0.7077299999999999  0.10342  1.0000
  C   C258      1.0  0.87864  0.58026  0.06268  1.0000
  C   C259      1.0  0.35954  0.10461  0.22187  1.0000
  C   C260      1.0  0.96387  0.68108  0.07109  1.0000
  C   C261      1.0  0.88827  0.5825599999999999  0.00857  1.0000
  C   C262      1.0  0.05222  0.45618  0.39536999999999994  1.0000
  C   C263      1.0  0.15456  0.8590699999999999  0.18408  1.0000
  C   C264      1.0  0.80472  0.33382  0.38772  1.0000
  O   O1        1.0  0.67015  0.6194999999999999  0.8129399999999999  1.0000
  O   O2        1.0  0.59114  0.6828899999999998  0.75813  1.0000
  O   O3        1.0  0.43291  0.33777  0.7605  1.0000
  O   O4        1.0  0.8313899999999997  0.74117  0.65884  1.0000
  O   O5        1.0  0.69149  0.73417  0.6694900000000001  1.0000
  O   O6        1.0  0.12059  0.15497999999999998  0.7508299999999999  1.0000
  O   O7        1.0  0.70404  0.6851699999999998  0.39481  1.0000
  O   O8        1.0  0.77425  0.75004  0.78158  1.0000
  O   O9        1.0  0.8890899999999998  0.87899  0.81019  1.0000
  O   O10       1.0  0.93738  0.8206499999999999  0.7409399999999999  1.0000
  O   O11       1.0  0.72891  0.79815  0.39854  1.0000
  O   O12       1.0  0.3578499999999999  0.40053999999999995  0.70326  1.0000
  O   O13       1.0  0.19245  0.10726999999999999  0.68498  1.0000
  O   O14       1.0  0.16984  0.38046  0.68635  1.0000
  O   O15       1.0  0.09136  0.31717999999999996  0.74175  1.0000
  O   O16       1.0  0.93287  0.66178  0.73943  1.0000
  O   O17       1.0  0.33149  0.25884  0.84106  1.0000
  O   O18       1.0  0.19152  0.26581  0.83042  1.0000
  O   O19       1.0  0.6208  0.8449599999999998  0.74994  1.0000
  O   O20       1.0  0.20775  0.31597  0.1046  1.0000
  O   O21       1.0  0.27418  0.24964  0.7183799999999999  1.0000
  O   O22       1.0  0.38731  0.11830999999999998  0.69019  1.0000
  O   O23       1.0  0.43734  0.17905  0.7579  1.0000
  O   O24       1.0  0.2289  0.20227999999999993  0.10148  1.0000
  O   O25       1.0  0.85792  0.59933  0.79687  1.0000
  O   O26       1.0  0.69758  0.89561  0.8125  1.0000
  O   O27       1.0  0.32986  0.3805099999999999  0.18706  1.0000
  O   O28       1.0  0.40886  0.31711999999999996  0.24186999999999997  1.0000
  O   O29       1.0  0.5671  0.6622299999999998  0.2395  1.0000
  O   O30       1.0  0.16862  0.25884  0.34115999999999996  1.0000
  O   O31       1.0  0.30851  0.26584  0.33051  1.0000
  O   O32       1.0  0.8794099999999998  0.8450299999999998  0.24916999999999997  1.0000
  O   O33       1.0  0.29596  0.31483999999999995  0.60519  1.0000
  O   O34       1.0  0.22574999999999995  0.24995999999999996  0.21841999999999998  1.0000
  O   O35       1.0  0.11090999999999997  0.12100999999999999  0.18981  1.0000
  O   O36       1.0  0.06261999999999997  0.17935  0.25906  1.0000
  O   O37       1.0  0.2711  0.20185999999999998  0.60146  1.0000
  O   O38       1.0  0.64215  0.59947  0.29674  1.0000
  O   O39       1.0  0.80755  0.8927399999999999  0.31501999999999997  1.0000
  O   O40       1.0  0.83016  0.61955  0.31365  1.0000
  O   O41       1.0  0.90864  0.68283  0.25825  1.0000
  O   O42       1.0  0.06713  0.33822  0.26056  1.0000
  O   O43       1.0  0.6685199999999998  0.74116  0.15894  1.0000
  O   O44       1.0  0.80848  0.7341899999999999  0.16957999999999998  1.0000
  O   O45       1.0  0.3792  0.15503999999999998  0.25006  1.0000
  O   O46       1.0  0.79225  0.6840299999999998  0.8953899999999999  1.0000
  O   O47       1.0  0.72583  0.75037  0.28162  1.0000
  O   O48       1.0  0.6127  0.8816999999999999  0.30981  1.0000
  O   O49       1.0  0.56266  0.8209599999999998  0.2421  1.0000
  O   O50       1.0  0.77111  0.79773  0.8985199999999999  1.0000
  O   O51       1.0  0.14208  0.40066999999999986  0.20313  1.0000
  O   O52       1.0  0.3024199999999999  0.10439999999999998  0.18749  1.0000
