data_image0
_chemical_formula_structural       Ni8H136C232N24O40
_chemical_formula_sum              "Ni8 H136 C232 N24 O40"
_cell_length_a       19.41889
_cell_length_b       19.86215
_cell_length_c       19.862099999999998
_cell_angle_alpha    73.83562
_cell_angle_beta     60.77204
_cell_angle_gamma    60.77264999999999

_space_group_name_H-M_alt    "P 1"
_space_group_IT_number       1

loop_
  _space_group_symop_operation_xyz
  'x, y, z'

loop_
  _atom_site_type_symbol
  _atom_site_label
  _atom_site_symmetry_multiplicity
  _atom_site_fract_x
  _atom_site_fract_y
  _atom_site_fract_z
  _atom_site_occupancy
  Ni  Ni1       1.0  0.12079999999999988  0.5366100000000003  0.86403  1.0000
  Ni  Ni2       1.0  0.37926999999999994  0.13597000000000006  0.4634  1.0000
  Ni  Ni3       1.0  0.5212699999999998  0.6356200000000002  0.9641699999999999  1.0000
  Ni  Ni4       1.0  0.9787899999999999  0.03584  0.36445  1.0000
  Ni  Ni5       1.0  0.47872999999999966  0.3643900000000001  0.03583  1.0000
  Ni  Ni6       1.0  0.02121000000000001  0.9641600000000001  0.63555  1.0000
  Ni  Ni7       1.0  0.8792  0.4633900000000001  0.13597  1.0000
  Ni  Ni8       1.0  0.6207299999999998  0.8640300000000003  0.5366  1.0000
  H   H1        1.0  0.17279  0.9436500000000001  0.26959999999999995  1.0000
  H   H2        1.0  0.2840599999999998  0.96226  0.14119  1.0000
  H   H3        1.0  0.07519999999999999  0.15527  0.09266  1.0000
  H   H4        1.0  0.9716900000000002  0.12649  0.22318  1.0000
  H   H5        1.0  0.3583799999999999  0.9666700000000001  0.01693  1.0000
  H   H6        1.0  0.41184999999999994  0.14941  0.85532  1.0000
  H   H7        1.0  0.3685099999999997  0.27206000000000014  0.86346  1.0000
  H   H8        1.0  0.2991099999999998  0.41519  0.83841  1.0000
  H   H9        1.0  0.052800000000000034  0.42030000000000006  0.94895  1.0000
  H   H10       1.0  0.11099999999999996  0.27789  0.98174  1.0000
  H   H11       1.0  0.52236  0.046689999999999995  0.77929  1.0000
  H   H12       1.0  0.6780999999999999  0.9569000000000001  0.72868  1.0000
  H   H13       1.0  0.6405999999999993  0.8442400000000001  0.95515  1.0000
  H   H14       1.0  0.48538999999999993  0.93282  0.00574  1.0000
  H   H15       1.0  0.66838  0.76216  0.85064  1.0000
  H   H16       1.0  0.85019  0.55745  0.91978  1.0000
  H   H17       1.0  0.8968899999999999  0.7632700000000002  0.83504  1.0000
  H   H18       1.0  0.32724  0.73038  0.05637  1.0000
  H   H19       1.0  0.2159499999999999  0.8587300000000002  0.0377  1.0000
  H   H20       1.0  0.42478999999999983  0.9073000000000002  0.8446799999999999  1.0000
  H   H21       1.0  0.5283300000000001  0.7768200000000002  0.8735  1.0000
  H   H22       1.0  0.1416399999999999  0.9830200000000002  0.03332  1.0000
  H   H23       1.0  0.08820000000000001  0.14467000000000005  0.85059  1.0000
  H   H24       1.0  0.13160000000000002  0.13652  0.72789  1.0000
  H   H25       1.0  0.20104999999999998  0.16157  0.58476  1.0000
  H   H26       1.0  0.4473299999999999  0.051030000000000006  0.57971  1.0000
  H   H27       1.0  0.38910000000000006  0.018220000000000007  0.7221199999999999  1.0000
  H   H28       1.0  0.9777499999999999  0.22064  0.9532999999999999  1.0000
  H   H29       1.0  0.82198  0.27129000000000003  0.04307  1.0000
  H   H30       1.0  0.8594099999999999  0.04485000000000001  0.15579  1.0000
  H   H31       1.0  0.014619999999999892  0.9942200000000002  0.06721  1.0000
  H   H32       1.0  0.8316800000000001  0.14946  0.23783  1.0000
  H   H33       1.0  0.64983  0.08036  0.44256  1.0000
  H   H34       1.0  0.60319  0.16496  0.23670000000000002  1.0000
  H   H35       1.0  0.3864299999999999  0.22994  0.55598  1.0000
  H   H36       1.0  0.3875499999999999  0.35854000000000014  0.53802  1.0000
  H   H37       1.0  0.32310999999999995  0.4074800000000001  0.34471  1.0000
  H   H38       1.0  0.3216799999999999  0.27669  0.37305  1.0000
  H   H39       1.0  0.3422  0.4828  0.53362  1.0000
  H   H40       1.0  0.4165099999999999  0.6446900000000002  0.35101  1.0000
  H   H41       1.0  0.5040800000000001  0.63642  0.22844  1.0000
  H   H42       1.0  0.5525299999999999  0.66171  0.08526  1.0000
  H   H43       1.0  0.4217399999999999  0.55114  0.07993  1.0000
  H   H44       1.0  0.37058  0.5181  0.22232  1.0000
  H   H45       1.0  0.34833  0.72051  0.45348  1.0000
  H   H46       1.0  0.36341000000000007  0.77144  0.54357  1.0000
  H   H47       1.0  0.43995000000000006  0.54497  0.6562  1.0000
  H   H48       1.0  0.42404000000000003  0.4941600000000001  0.56739  1.0000
  H   H49       1.0  0.2809399999999998  0.64926  0.7383  1.0000
  H   H50       1.0  0.32745  0.57968  0.94288  1.0000
  H   H51       1.0  0.49461  0.66532  0.73738  1.0000
  H   H52       1.0  0.11363000000000002  0.44403  0.77007  1.0000
  H   H53       1.0  0.11241999999999991  0.4620000000000001  0.64151  1.0000
  H   H54       1.0  0.1768800000000001  0.65532  0.59252  1.0000
  H   H55       1.0  0.17841000000000004  0.62695  0.72326  1.0000
  H   H56       1.0  0.15773999999999994  0.4664099999999999  0.51722  1.0000
  H   H57       1.0  0.08342999999999995  0.64904  0.35534  1.0000
  H   H58       1.0  0.99595  0.77163  0.36357  1.0000
  H   H59       1.0  0.94754  0.9148  0.33829  1.0000
  H   H60       1.0  0.07834999999999989  0.92005  0.44887  1.0000
  H   H61       1.0  0.12943999999999992  0.77767  0.48192  1.0000
  H   H62       1.0  0.15166999999999994  0.54657  0.27949  1.0000
  H   H63       1.0  0.13673999999999994  0.45644000000000007  0.22849  1.0000
  H   H64       1.0  0.06013999999999995  0.34378  0.45493  1.0000
  H   H65       1.0  0.07591999999999997  0.4326300000000001  0.50584  1.0000
  H   H66       1.0  0.21918999999999997  0.26169  0.35064999999999996  1.0000
  H   H67       1.0  0.17271999999999996  0.05708000000000003  0.42022  1.0000
  H   H68       1.0  0.005529999999999999  0.26257  0.33463  1.0000
  H   H69       1.0  0.6135699999999996  0.7700600000000002  0.4440199999999999  1.0000
  H   H70       1.0  0.6124499999999999  0.64146  0.46198  1.0000
  H   H71       1.0  0.67689  0.5925200000000003  0.65529  1.0000
  H   H72       1.0  0.6783199999999999  0.7233100000000002  0.62695  1.0000
  H   H73       1.0  0.6577999999999999  0.5172  0.46638  1.0000
  H   H74       1.0  0.58349  0.35531000000000007  0.64899  1.0000
  H   H75       1.0  0.49591999999999986  0.36358  0.77156  1.0000
  H   H76       1.0  0.44747  0.33829  0.91474  1.0000
  H   H77       1.0  0.5782599999999998  0.44886000000000004  0.92007  1.0000
  H   H78       1.0  0.62942  0.48190000000000005  0.77768  1.0000
  H   H79       1.0  0.6516699999999999  0.2795  0.54652  1.0000
  H   H80       1.0  0.63659  0.22856  0.45643  1.0000
  H   H81       1.0  0.5600499999999999  0.45503000000000005  0.3438  1.0000
  H   H82       1.0  0.57596  0.50584  0.43261  1.0000
  H   H83       1.0  0.7190599999999998  0.35074  0.2617  1.0000
  H   H84       1.0  0.6725499999999999  0.42032  0.05712  1.0000
  H   H85       1.0  0.5053899999999999  0.33468  0.26262  1.0000
  H   H86       1.0  0.8863699999999999  0.55597  0.22993  1.0000
  H   H87       1.0  0.88758  0.5380000000000001  0.35849  1.0000
  H   H88       1.0  0.82311  0.34468  0.40748  1.0000
  H   H89       1.0  0.8215799999999999  0.3730500000000001  0.27674  1.0000
  H   H90       1.0  0.8422599999999999  0.5335900000000002  0.48277999999999993  1.0000
  H   H91       1.0  0.9165699999999999  0.3509600000000001  0.64466  1.0000
  H   H92       1.0  0.004050000000000022  0.22836999999999996  0.63643  1.0000
  H   H93       1.0  0.05245999999999998  0.0852  0.66171  1.0000
  H   H94       1.0  0.9216500000000001  0.07995000000000001  0.5511299999999999  1.0000
  H   H95       1.0  0.8705599999999999  0.22233  0.51808  1.0000
  H   H96       1.0  0.84833  0.45342999999999994  0.72051  1.0000
  H   H97       1.0  0.86326  0.54356  0.77151  1.0000
  H   H98       1.0  0.9398599999999999  0.65622  0.54507  1.0000
  H   H99       1.0  0.9240800000000002  0.56738  0.49416  1.0000
  H   H100      1.0  0.7808099999999999  0.73831  0.64935  1.0000
  H   H101      1.0  0.8272799999999999  0.9429200000000001  0.57978  1.0000
  H   H102      1.0  0.99447  0.73743  0.66537  1.0000
  H   H103      1.0  0.8272099999999999  0.05635  0.7304  1.0000
  H   H104      1.0  0.7159399999999999  0.03774000000000001  0.85881  1.0000
  H   H105      1.0  0.9247999999999997  0.8447300000000002  0.90734  1.0000
  H   H106      1.0  0.02830999999999997  0.8735100000000002  0.7768199999999998  1.0000
  H   H107      1.0  0.6416200000000001  0.03334  0.98307  1.0000
  H   H108      1.0  0.5881499999999997  0.8506000000000002  0.14469  1.0000
  H   H109      1.0  0.6314899999999998  0.7279400000000003  0.13655  1.0000
  H   H110      1.0  0.7008899999999999  0.58481  0.16159  1.0000
  H   H111      1.0  0.9472  0.5797  0.05105  1.0000
  H   H112      1.0  0.8889999999999998  0.7221100000000001  0.01826  1.0000
  H   H113      1.0  0.47764  0.95332  0.22071  1.0000
  H   H114      1.0  0.3219  0.0431  0.27132  1.0000
  H   H115      1.0  0.35940000000000005  0.15576  0.04486  1.0000
  H   H116      1.0  0.5146099999999999  0.06718000000000003  0.9942599999999999  1.0000
  H   H117      1.0  0.33161999999999997  0.23784000000000002  0.14936  1.0000
  H   H118      1.0  0.1498  0.44255  0.08022  1.0000
  H   H119      1.0  0.10310999999999998  0.23673  0.16497  1.0000
  H   H120      1.0  0.6727599999999999  0.26962  0.94363  1.0000
  H   H121      1.0  0.7840499999999999  0.14127000000000003  0.96231  1.0000
  H   H122      1.0  0.57521  0.09270000000000002  0.15532  1.0000
  H   H123      1.0  0.47167  0.22318000000000005  0.1265  1.0000
  H   H124      1.0  0.85836  0.016979999999999988  0.9666800000000001  1.0000
  H   H125      1.0  0.9117999999999999  0.85534  0.14941  1.0000
  H   H126      1.0  0.8683999999999997  0.8634800000000002  0.27211  1.0000
  H   H127      1.0  0.7989499999999999  0.83843  0.41524  1.0000
  H   H128      1.0  0.55267  0.9489700000000001  0.42029  1.0000
  H   H129      1.0  0.6109  0.98178  0.27788  1.0000
  H   H130      1.0  0.022249999999999936  0.77936  0.0467  1.0000
  H   H131      1.0  0.17801999999999982  0.7287100000000003  0.9569299999999998  1.0000
  H   H132      1.0  0.14058999999999983  0.9551500000000003  0.84421  1.0000
  H   H133      1.0  0.9853799999999998  0.005779999999999999  0.93279  1.0000
  H   H134      1.0  0.16831000000000002  0.85054  0.76217  1.0000
  H   H135      1.0  0.3501699999999999  0.91964  0.55745  1.0000
  H   H136      1.0  0.3968099999999999  0.8350400000000002  0.7633  1.0000
  C   C1        1.0  0.15389999999999998  0.98831  0.22772  1.0000
  C   C2        1.0  0.21554  0.99913  0.15566  1.0000
  C   C3        1.0  0.18875999999999998  0.06047000000000001  0.10517  1.0000
  C   C4        1.0  0.09914999999999999  0.10668  0.12942  1.0000
  C   C5        1.0  0.04145000000000001  0.09157  0.2018  1.0000
  C   C6        1.0  0.25217  0.08034000000000002  0.03187  1.0000
  C   C7        1.0  0.3381099999999998  0.02667  0.9955099999999999  1.0000
  C   C8        1.0  0.39841000000000004  0.05005  0.9305699999999999  1.0000
  C   C9        1.0  0.36745999999999984  0.12793000000000002  0.90441  1.0000
  C   C10       1.0  0.28013000000000005  0.17808  0.94361  1.0000
  C   C11       1.0  0.24517000000000003  0.26207000000000014  0.92294  1.0000
  C   C12       1.0  0.29839000000000004  0.30195  0.88239  1.0000
  C   C13       1.0  0.26088999999999996  0.38145  0.86828  1.0000
  C   C14       1.0  0.12221999999999987  0.3847200000000001  0.93079  1.0000
  C   C15       1.0  0.15511000000000005  0.30561  0.9478099999999999  1.0000
  C   C16       1.0  0.49099  0.99651  0.89664  1.0000
  C   C17       1.0  0.5475300000000001  0.0034100000000000016  0.81886  1.0000
  C   C18       1.0  0.63577  0.95322  0.78964  1.0000
  C   C19       1.0  0.6689299999999998  0.8955300000000004  0.83901  1.0000
  C   C20       1.0  0.6141699999999998  0.8884700000000001  0.91696  1.0000
  C   C21       1.0  0.5264399999999999  0.9377900000000003  0.9447399999999999  1.0000
  C   C22       1.0  0.7798399999999999  0.7709200000000002  0.83966  1.0000
  C   C23       1.0  0.72859  0.73254  0.85778  1.0000
  C   C24       1.0  0.7524299999999999  0.65612  0.88824  1.0000
  C   C25       1.0  0.8303999999999999  0.61709  0.89679  1.0000
  C   C26       1.0  0.8822899999999998  0.6560600000000002  0.87674  1.0000
  C   C27       1.0  0.85669  0.7336000000000003  0.84915  1.0000
  C   C28       1.0  0.69035  0.62011  0.91319  1.0000
  C   C29       1.0  0.9669099999999999  0.61503  0.88242  1.0000
  C   C30       1.0  0.34611  0.77225  0.01169  1.0000
  C   C31       1.0  0.2844599999999999  0.8442900000000002  0.00084  1.0000
  C   C32       1.0  0.31124999999999986  0.8947800000000002  0.93951  1.0000
  C   C33       1.0  0.40086000000000005  0.87054  0.89329  1.0000
  C   C34       1.0  0.4585800000000001  0.7981900000000002  0.90842  1.0000
  C   C35       1.0  0.24785999999999997  0.96807  0.91964  1.0000
  C   C36       1.0  0.16192999999999996  0.004429999999999998  0.97331  1.0000
  C   C37       1.0  0.10164000000000005  0.06938000000000001  0.94993  1.0000
  C   C38       1.0  0.13259000000000004  0.09555999999999999  0.87206  1.0000
  C   C39       1.0  0.21992999999999996  0.05636000000000001  0.82191  1.0000
  C   C40       1.0  0.2549199999999999  0.07704  0.73793  1.0000
  C   C41       1.0  0.20172999999999996  0.11759000000000004  0.69802  1.0000
  C   C42       1.0  0.23925000000000013  0.13169  0.61852  1.0000
  C   C43       1.0  0.3778899999999999  0.06918  0.61529  1.0000
  C   C44       1.0  0.34499  0.05217000000000001  0.6943899999999998  1.0000
  C   C45       1.0  0.009069999999999996  0.10331  0.0034899999999999996  1.0000
  C   C46       1.0  0.9525499999999993  0.18109000000000003  0.9965800000000001  1.0000
  C   C47       1.0  0.8642999999999998  0.21033000000000004  0.04676  1.0000
  C   C48       1.0  0.83113  0.16097  0.10445  1.0000
  C   C49       1.0  0.8858599999999999  0.08301  0.11154  1.0000
  C   C50       1.0  0.9736  0.05521999999999999  0.06222  1.0000
  C   C51       1.0  0.7202099999999999  0.16039  0.22907  1.0000
  C   C52       1.0  0.7714699999999998  0.1423  0.26744  1.0000
  C   C53       1.0  0.7476100000000001  0.11185  0.34387  1.0000
  C   C54       1.0  0.66962  0.10332  0.3829  1.0000
  C   C55       1.0  0.61774  0.12333  0.34393  1.0000
  C   C56       1.0  0.64337  0.15089  0.26638  1.0000
  C   C57       1.0  0.8096599999999999  0.08683  0.37991  1.0000
  C   C58       1.0  0.5331699999999999  0.11764999999999999  0.38496  1.0000
  C   C59       1.0  0.3702599999999999  0.27202  0.51144  1.0000
  C   C60       1.0  0.37044999999999995  0.34416000000000013  0.50096  1.0000
  C   C61       1.0  0.35440999999999995  0.3947300000000001  0.43966  1.0000
  C   C62       1.0  0.33532  0.37058000000000013  0.39323  1.0000
  C   C63       1.0  0.33508  0.29814  0.40803  1.0000
  C   C64       1.0  0.36429  0.46809  0.41991  1.0000
  C   C65       1.0  0.3602199999999997  0.5044200000000001  0.4736600000000001  1.0000
  C   C66       1.0  0.37898000000000004  0.56939  0.45027999999999996  1.0000
  C   C67       1.0  0.39962  0.59563  0.37244  1.0000
  C   C68       1.0  0.40160000000000007  0.55645  0.32224  1.0000
  C   C69       1.0  0.42998  0.57713  0.23825999999999997  1.0000
  C   C70       1.0  0.4825999999999999  0.61764  0.1985  1.0000
  C   C71       1.0  0.51051  0.63174  0.119  1.0000
  C   C72       1.0  0.43757  0.56915  0.11558999999999998  1.0000
  C   C73       1.0  0.40835999999999995  0.55216  0.19467  1.0000
  C   C74       1.0  0.38420999999999994  0.6033  0.50379  1.0000
  C   C75       1.0  0.36974999999999997  0.68113  0.49687999999999993  1.0000
  C   C76       1.0  0.3784  0.71045  0.5472  1.0000
  C   C77       1.0  0.4032099999999997  0.66104  0.60491  1.0000
  C   C78       1.0  0.41949999999999965  0.58303  0.61195  1.0000
  C   C79       1.0  0.40901999999999983  0.5551800000000003  0.56252  1.0000
  C   C80       1.0  0.39009999999999995  0.6604200000000001  0.72958  1.0000
  C   C81       1.0  0.3187299999999997  0.64218  0.76785  1.0000
  C   C82       1.0  0.29680999999999996  0.6115  0.8442  1.0000
  C   C83       1.0  0.3442799999999999  0.6028800000000002  0.8832999999999999  1.0000
  C   C84       1.0  0.41482  0.62326  0.8444899999999999  1.0000
  C   C85       1.0  0.4389899999999998  0.65105  0.767  1.0000
  C   C86       1.0  0.22388000000000008  0.58644  0.8797399999999999  1.0000
  C   C87       1.0  0.46386  0.61801  0.88555  1.0000
  C   C88       1.0  0.1297800000000001  0.48857  0.72799  1.0000
  C   C89       1.0  0.12954000000000004  0.49907000000000007  0.65588  1.0000
  C   C90       1.0  0.1455499999999999  0.56037  0.6053  1.0000
  C   C91       1.0  0.16469  0.6067900000000002  0.6294099999999999  1.0000
  C   C92       1.0  0.16497  0.59198  0.70183  1.0000
  C   C93       1.0  0.13563999999999982  0.5801200000000002  0.53196  1.0000
  C   C94       1.0  0.13970999999999992  0.52638  0.49561  1.0000
  C   C95       1.0  0.12096000000000007  0.54977  0.43063999999999997  1.0000
  C   C96       1.0  0.10030999999999998  0.62762  0.4044  1.0000
  C   C97       1.0  0.09834999999999997  0.6778  0.44359  1.0000
  C   C98       1.0  0.07001999999999999  0.7617800000000001  0.4229  1.0000
  C   C99       1.0  0.01744000000000004  0.80154  0.38236  1.0000
  C   C100      1.0  0.98955  0.8810400000000003  0.36826  1.0000
  C   C101      1.0  0.06250000000000001  0.88441  0.43086  1.0000
  C   C102      1.0  0.09166999999999985  0.8053400000000002  0.44786  1.0000
  C   C103      1.0  0.11575999999999995  0.4962500000000001  0.3967  1.0000
  C   C104      1.0  0.13026999999999983  0.5031500000000002  0.31886  1.0000
  C   C105      1.0  0.12169999999999996  0.45280000000000004  0.28949  1.0000
  C   C106      1.0  0.09686999999999993  0.3951  0.33889  1.0000
  C   C107      1.0  0.08057999999999997  0.3880400000000001  0.41689  1.0000
  C   C108      1.0  0.09097999999999999  0.43749  0.4448099999999999  1.0000
  C   C109      1.0  0.11001000000000005  0.27042  0.3395  1.0000
  C   C110      1.0  0.18138999999999997  0.23215000000000002  0.35773  1.0000
  C   C111      1.0  0.20334  0.15579  0.38838  1.0000
  C   C112      1.0  0.15589  0.11666  0.39701  1.0000
  C   C113      1.0  0.08534000000000001  0.15548  0.37664  1.0000
  C   C114      1.0  0.06114999999999997  0.23296000000000003  0.34888  1.0000
  C   C115      1.0  0.27622  0.12026  0.41353  1.0000
  C   C116      1.0  0.036259999999999994  0.11443  0.38196  1.0000
  C   C117      1.0  0.6297400000000001  0.72798  0.48856  1.0000
  C   C118      1.0  0.62955  0.6558400000000002  0.49903999999999993  1.0000
  C   C119      1.0  0.64558  0.60527  0.56034  1.0000
  C   C120      1.0  0.6646800000000002  0.62942  0.60677  1.0000
  C   C121      1.0  0.6649099999999998  0.70186  0.59197  1.0000
  C   C122      1.0  0.63571  0.53192  0.58009  1.0000
  C   C123      1.0  0.63978  0.49558  0.52634  1.0000
  C   C124      1.0  0.6210199999999998  0.43061  0.54972  1.0000
  C   C125      1.0  0.60038  0.40437  0.62756  1.0000
  C   C126      1.0  0.5983999999999998  0.44355000000000006  0.67776  1.0000
  C   C127      1.0  0.57002  0.4228700000000002  0.76174  1.0000
  C   C128      1.0  0.5174  0.38236  0.8015  1.0000
  C   C129      1.0  0.48949000000000004  0.36826  0.881  1.0000
  C   C130      1.0  0.56243  0.43085  0.8844099999999999  1.0000
  C   C131      1.0  0.5916399999999999  0.44783999999999996  0.80533  1.0000
  C   C132      1.0  0.6157899999999996  0.3967000000000001  0.49620999999999993  1.0000
  C   C133      1.0  0.63025  0.31887  0.50312  1.0000
  C   C134      1.0  0.6215999999999999  0.28955  0.4528  1.0000
  C   C135      1.0  0.5967899999999999  0.33896  0.39509  1.0000
  C   C136      1.0  0.5805  0.41697  0.38805  1.0000
  C   C137      1.0  0.59098  0.44482  0.43748  1.0000
  C   C138      1.0  0.6098999999999998  0.33958  0.27042  1.0000
  C   C139      1.0  0.6812599999999999  0.35782000000000014  0.23215000000000002  1.0000
  C   C140      1.0  0.7031900000000001  0.3885  0.1558  1.0000
  C   C141      1.0  0.6557199999999999  0.3971300000000001  0.1167  1.0000
  C   C142      1.0  0.58518  0.37674  0.15552  1.0000
  C   C143      1.0  0.56101  0.34895  0.23300000000000004  1.0000
  C   C144      1.0  0.77612  0.4135600000000001  0.12027  1.0000
  C   C145      1.0  0.5361400000000001  0.38199  0.11445  1.0000
  C   C146      1.0  0.8702200000000001  0.51143  0.27201  1.0000
  C   C147      1.0  0.8704600000000002  0.50093  0.34412  1.0000
  C   C148      1.0  0.8544499999999999  0.4396300000000001  0.3947  1.0000
  C   C149      1.0  0.8353099999999999  0.3932100000000001  0.37059  1.0000
  C   C150      1.0  0.8350299999999997  0.4080200000000002  0.29817  1.0000
  C   C151      1.0  0.8643599999999999  0.4198800000000001  0.46803999999999996  1.0000
  C   C152      1.0  0.8602899999999999  0.47362  0.50439  1.0000
  C   C153      1.0  0.8790399999999997  0.45023  0.56936  1.0000
  C   C154      1.0  0.89969  0.37238  0.5956  1.0000
  C   C155      1.0  0.9016500000000001  0.3222000000000001  0.55641  1.0000
  C   C156      1.0  0.92997  0.23822  0.5771  1.0000
  C   C157      1.0  0.98256  0.19846000000000003  0.61764  1.0000
  C   C158      1.0  0.010449999999999994  0.11896000000000001  0.63174  1.0000
  C   C159      1.0  0.9375  0.11559  0.56914  1.0000
  C   C160      1.0  0.90833  0.19466  0.55214  1.0000
  C   C161      1.0  0.8842399999999997  0.5037500000000001  0.6033  1.0000
  C   C162      1.0  0.86973  0.49685  0.68115  1.0000
  C   C163      1.0  0.8782999999999999  0.5472  0.71051  1.0000
  C   C164      1.0  0.9031299999999998  0.6049000000000002  0.66112  1.0000
  C   C165      1.0  0.91942  0.61196  0.58311  1.0000
  C   C166      1.0  0.9090200000000002  0.56251  0.5552  1.0000
  C   C167      1.0  0.88999  0.72958  0.6605  1.0000
  C   C168      1.0  0.8186099999999996  0.7678500000000001  0.64227  1.0000
  C   C169      1.0  0.7966599999999999  0.84421  0.61162  1.0000
  C   C170      1.0  0.8441099999999999  0.8833400000000002  0.60299  1.0000
  C   C171      1.0  0.9146599999999998  0.8445300000000002  0.62336  1.0000
  C   C172      1.0  0.9388499999999992  0.7670400000000003  0.65112  1.0000
  C   C173      1.0  0.7237799999999996  0.8797400000000002  0.58647  1.0000
  C   C174      1.0  0.9637400000000003  0.8855700000000002  0.61804  1.0000
  C   C175      1.0  0.8461  0.01169  0.77228  1.0000
  C   C176      1.0  0.7844599999999999  0.0008699999999999984  0.84434  1.0000
  C   C177      1.0  0.8112400000000001  0.93953  0.8948299999999999  1.0000
  C   C178      1.0  0.9008499999999999  0.89332  0.87058  1.0000
  C   C179      1.0  0.9585499999999998  0.9084300000000004  0.7982  1.0000
  C   C180      1.0  0.7478299999999999  0.9196600000000001  0.96813  1.0000
  C   C181      1.0  0.6618900000000001  0.97333  0.00449  1.0000
  C   C182      1.0  0.6015900000000001  0.94995  0.06943  1.0000
  C   C183      1.0  0.6325399999999999  0.8720700000000002  0.0956  1.0000
  C   C184      1.0  0.71987  0.82192  0.05639  1.0000
  C   C185      1.0  0.75483  0.73793  0.07706  1.0000
  C   C186      1.0  0.70161  0.6980500000000001  0.11760999999999999  1.0000
  C   C187      1.0  0.7391099999999999  0.61856  0.13172  1.0000
  C   C188      1.0  0.8777799999999999  0.6152800000000002  0.06921  1.0000
  C   C189      1.0  0.84489  0.69439  0.05219  1.0000
  C   C190      1.0  0.50901  0.00349  0.10337  1.0000
  C   C191      1.0  0.45247  0.99659  0.18114  1.0000
  C   C192      1.0  0.36423000000000005  0.046790000000000005  0.21036  1.0000
  C   C193      1.0  0.33107  0.10447  0.16099  1.0000
  C   C194      1.0  0.38583  0.11153  0.08304  1.0000
  C   C195      1.0  0.4735599999999999  0.06221000000000001  0.05526  1.0000
  C   C196      1.0  0.22014999999999998  0.2290800000000001  0.16034  1.0000
  C   C197      1.0  0.27141  0.26746  0.14222  1.0000
  C   C198      1.0  0.24756999999999998  0.34388  0.11176  1.0000
  C   C199      1.0  0.1696  0.38291  0.10321  1.0000
  C   C200      1.0  0.11771  0.34394  0.12326  1.0000
  C   C201      1.0  0.1433099999999999  0.26640000000000014  0.15085  1.0000
  C   C202      1.0  0.3096499999999999  0.37989  0.08681  1.0000
  C   C203      1.0  0.03308999999999997  0.3849700000000001  0.11757999999999999  1.0000
  C   C204      1.0  0.6538900000000001  0.22775000000000006  0.9883099999999999  1.0000
  C   C205      1.0  0.71554  0.15571000000000004  0.99916  1.0000
  C   C206      1.0  0.6887499999999999  0.10522  0.06049  1.0000
  C   C207      1.0  0.59914  0.12946  0.10672  1.0000
  C   C208      1.0  0.54142  0.20181000000000004  0.09158  1.0000
  C   C209      1.0  0.7521299999999999  0.03193  0.08036  1.0000
  C   C210      1.0  0.83806  0.99557  0.02669  1.0000
  C   C211      1.0  0.8983600000000002  0.93062  0.05007  1.0000
  C   C212      1.0  0.86741  0.90444  0.12794  1.0000
  C   C213      1.0  0.78007  0.9436400000000001  0.17809  1.0000
  C   C214      1.0  0.74508  0.9229600000000001  0.26208  1.0000
  C   C215      1.0  0.7982699999999998  0.8824100000000002  0.30198  1.0000
  C   C216      1.0  0.7607500000000001  0.86831  0.38148  1.0000
  C   C217      1.0  0.6221  0.93082  0.38471  1.0000
  C   C218      1.0  0.65501  0.94784  0.30561  1.0000
  C   C219      1.0  0.99093  0.8966900000000001  0.9965100000000001  1.0000
  C   C220      1.0  0.04745  0.81891  0.0034199999999999994  1.0000
  C   C221      1.0  0.1356999999999999  0.7896700000000001  0.95324  1.0000
  C   C222      1.0  0.1688699999999998  0.8390400000000002  0.89555  1.0000
  C   C223      1.0  0.11413999999999977  0.9169900000000002  0.88847  1.0000
  C   C224      1.0  0.026400000000000038  0.94478  0.93778  1.0000
  C   C225      1.0  0.27979000000000004  0.83961  0.77093  1.0000
  C   C226      1.0  0.22851999999999986  0.8577000000000002  0.73256  1.0000
  C   C227      1.0  0.2523899999999999  0.88815  0.65613  1.0000
  C   C228      1.0  0.33037999999999984  0.8966800000000004  0.6171  1.0000
  C   C229      1.0  0.38225999999999966  0.8766700000000002  0.65607  1.0000
  C   C230      1.0  0.3566299999999999  0.8491100000000001  0.73362  1.0000
  C   C231      1.0  0.19034000000000004  0.9131699999999999  0.62009  1.0000
  C   C232      1.0  0.4668299999999999  0.88235  0.61504  1.0000
  N   N1        1.0  0.06811999999999997  0.03382999999999999  0.25096  1.0000
  N   N2        1.0  0.22306  0.15447  0.00544  1.0000
  N   N3        1.0  0.17414999999999997  0.42247  0.89132  1.0000
  N   N4        1.0  0.4318999999999998  0.7490500000000002  0.96619  1.0000
  N   N5        1.0  0.27698999999999996  0.9945100000000001  0.84552  1.0000
  N   N6        1.0  0.32599  0.10864999999999998  0.57753  1.0000
  N   N7        1.0  0.3533800000000001  0.24891  0.46566  1.0000
  N   N8        1.0  0.38277999999999995  0.49457000000000007  0.3458  1.0000
  N   N9        1.0  0.4878099999999998  0.6085900000000002  0.07799  1.0000
  N   N10       1.0  0.14668000000000003  0.53436  0.75109  1.0000
  N   N11       1.0  0.11717999999999987  0.6542300000000001  0.50546  1.0000
  N   N12       1.0  0.01225999999999997  0.9220300000000001  0.39143  1.0000
  N   N13       1.0  0.64662  0.7510900000000003  0.53434  1.0000
  N   N14       1.0  0.6172199999999998  0.5054300000000003  0.6542  1.0000
  N   N15       1.0  0.5121900000000001  0.3914100000000001  0.92201  1.0000
  N   N16       1.0  0.85332  0.46564  0.24891  1.0000
  N   N17       1.0  0.8828199999999998  0.34577  0.49454000000000004  1.0000
  N   N18       1.0  0.98774  0.07797  0.60857  1.0000
  N   N19       1.0  0.93188  0.9661700000000001  0.74904  1.0000
  N   N20       1.0  0.7769399999999999  0.84553  0.99456  1.0000
  N   N21       1.0  0.82585  0.5775300000000002  0.10868  1.0000
  N   N22       1.0  0.56809  0.25095  0.03381  1.0000
  N   N23       1.0  0.72301  0.00549  0.15448  1.0000
  N   N24       1.0  0.6740099999999999  0.8913500000000002  0.42246999999999996  1.0000
  O   O1        1.0  0.7152299999999999  0.55073  0.90579  1.0000
  O   O2        1.0  0.6092499999999997  0.6706  0.9428200000000001  1.0000
  O   O3        1.0  0.9949800000000001  0.54209  0.90098  1.0000
  O   O4        1.0  0.01359999999999998  0.65069  0.86581  1.0000
  O   O5        1.0  0.7566599999999997  0.8473400000000002  0.80926  1.0000
  O   O6        1.0  0.78473  0.09412000000000005  0.4493599999999999  1.0000
  O   O7        1.0  0.89076  0.05728  0.32945  1.0000
  O   O8        1.0  0.50509  0.09915  0.45794  1.0000
  O   O9        1.0  0.48648  0.13417  0.34931  1.0000
  O   O10       1.0  0.7433999999999998  0.19074000000000005  0.15264  1.0000
  O   O11       1.0  0.17280000000000004  0.59213  0.94938  1.0000
  O   O12       1.0  0.22199000000000002  0.55868  0.8284099999999999  1.0000
  O   O13       1.0  0.43751999999999996  0.5995700000000002  0.95854  1.0000
  O   O14       1.0  0.5295199999999998  0.6347100000000002  0.8498199999999999  1.0000
  O   O15       1.0  0.4130299999999999  0.6907  0.65319  1.0000
  O   O16       1.0  0.32728999999999997  0.05059000000000002  0.40785  1.0000
  O   O17       1.0  0.27809  0.17156  0.44131999999999993  1.0000
  O   O18       1.0  0.06251999999999999  0.04146  0.40048  1.0000
  O   O19       1.0  0.9705799999999999  0.15018000000000004  0.36527999999999994  1.0000
  O   O20       1.0  0.08702000000000001  0.34683  0.30923  1.0000
  O   O21       1.0  0.8272  0.40787  0.05062  1.0000
  O   O22       1.0  0.7780100000000001  0.44132000000000005  0.1716  1.0000
  O   O23       1.0  0.56248  0.4004300000000001  0.04146  1.0000
  O   O24       1.0  0.47047999999999995  0.3652900000000001  0.15018  1.0000
  O   O25       1.0  0.5869700000000001  0.3093  0.34681  1.0000
  O   O26       1.0  0.6726999999999999  0.9494100000000001  0.59215  1.0000
  O   O27       1.0  0.7219099999999998  0.8284400000000002  0.55868  1.0000
  O   O28       1.0  0.93748  0.95854  0.59952  1.0000
  O   O29       1.0  0.02941999999999998  0.84982  0.63472  1.0000
  O   O30       1.0  0.91297  0.65317  0.69077  1.0000
  O   O31       1.0  0.28477  0.44927  0.09421  1.0000
  O   O32       1.0  0.39075  0.3294  0.05718  1.0000
  O   O33       1.0  0.00502000000000002  0.45791  0.09903  1.0000
  O   O34       1.0  0.9864  0.34931  0.13419  1.0000
  O   O35       1.0  0.24333999999999997  0.15266  0.19074  1.0000
  O   O36       1.0  0.21527000000000004  0.90588  0.55064  1.0000
  O   O37       1.0  0.10924  0.94272  0.67056  1.0000
  O   O38       1.0  0.49490999999999974  0.9008500000000004  0.54207  1.0000
  O   O39       1.0  0.5135199999999999  0.8658300000000002  0.65069  1.0000
  O   O40       1.0  0.2566  0.80926  0.84736  1.0000
