data_image0
_chemical_formula_structural       Zn20H120C224N16O72
_chemical_formula_sum              "Zn20 H120 C224 N16 O72"
_cell_length_a       23.2543
_cell_length_b       26.53417
_cell_length_c       31.82277
_cell_angle_alpha    90.0
_cell_angle_beta     90.0
_cell_angle_gamma    90.0

_space_group_name_H-M_alt    "P 1"
_space_group_IT_number       1

loop_
  _space_group_symop_operation_xyz
  'x, y, z'

loop_
  _atom_site_type_symbol
  _atom_site_label
  _atom_site_symmetry_multiplicity
  _atom_site_fract_x
  _atom_site_fract_y
  _atom_site_fract_z
  _atom_site_occupancy
  Zn  Zn1       1.0  0.72094  0.65323  0.6797  1.0000
  Zn  Zn2       1.0  0.62837  0.70831  0.73843  1.0000
  Zn  Zn3       1.0  0.77906  0.84678  0.6797  1.0000
  Zn  Zn4       1.0  0.87163  0.7917000000000001  0.73843  1.0000
  Zn  Zn5       1.0  0.27906  0.15322  0.8203000000000003  1.0000
  Zn  Zn6       1.0  0.37163  0.20831000000000002  0.76157  1.0000
  Zn  Zn7       1.0  0.22094  0.34678  0.8203000000000003  1.0000
  Zn  Zn8       1.0  0.12837  0.2917  0.76157  1.0000
  Zn  Zn9       1.0  0.27906  0.34678  0.3203  1.0000
  Zn  Zn10      1.0  0.37163999999999997  0.29169  0.26157  1.0000
  Zn  Zn11      1.0  0.22094  0.15322  0.3203  1.0000
  Zn  Zn12      1.0  0.12837  0.20831000000000002  0.26157  1.0000
  Zn  Zn13      1.0  0.72094  0.84678  0.1797  1.0000
  Zn  Zn14      1.0  0.62837  0.7917000000000001  0.23843  1.0000
  Zn  Zn15      1.0  0.77906  0.65323  0.1797  1.0000
  Zn  Zn16      1.0  0.87164  0.70831  0.23843  1.0000
  Zn  Zn17      1.0  0.75  0.75  0.75063  1.0000
  Zn  Zn18      1.0  0.25  0.25001  0.7493700000000002  1.0000
  Zn  Zn19      1.0  0.25  0.25001  0.24937000000000006  1.0000
  Zn  Zn20      1.0  0.75  0.75  0.25063  1.0000
  H   H1        1.0  0.90927  0.46399  0.73187  1.0000
  H   H2        1.0  0.72928  0.67356  0.45268000000000014  1.0000
  H   H3        1.0  0.69091  0.74717  0.6806200000000002  1.0000
  H   H4        1.0  0.89612  0.67681  0.79234  1.0000
  H   H5        1.0  0.98138  0.62853  0.8181100000000002  1.0000
  H   H6        1.0  0.83454  0.54799  0.7236500000000002  1.0000
  H   H7        1.0  0.06422  0.55467  0.8344800000000002  1.0000
  H   H8        1.0  0.12324999999999998  0.47564000000000006  0.83547  1.0000
  H   H9        1.0  0.00271  0.40067  0.7541900000000002  1.0000
  H   H10       1.0  0.87656  0.73603  0.59737  1.0000
  H   H11       1.0  0.91742  0.75583  0.52638  1.0000
  H   H12       1.0  0.7285999999999999  0.66536  0.5421000000000002  1.0000
  H   H13       1.0  0.93743  0.76441  0.44057  1.0000
  H   H14       1.0  0.93126  0.76119  0.36223  1.0000
  H   H15       1.0  0.7650899999999999  0.68967  0.36819  1.0000
  H   H16       1.0  0.59073  0.03601  0.73187  1.0000
  H   H17       1.0  0.77072  0.8264400000000001  0.45268000000000014  1.0000
  H   H18       1.0  0.80909  0.75283  0.6806200000000002  1.0000
  H   H19       1.0  0.60388  0.8232  0.79234  1.0000
  H   H20       1.0  0.51863  0.87147  0.8181100000000002  1.0000
  H   H21       1.0  0.66546  0.95202  0.7236500000000002  1.0000
  H   H22       1.0  0.43579  0.94534  0.8344800000000002  1.0000
  H   H23       1.0  0.37675  0.02436  0.83547  1.0000
  H   H24       1.0  0.49729000000000007  0.09933000000000002  0.7541900000000002  1.0000
  H   H25       1.0  0.62344  0.76397  0.59737  1.0000
  H   H26       1.0  0.58258  0.74418  0.52638  1.0000
  H   H27       1.0  0.7714  0.83465  0.5421000000000002  1.0000
  H   H28       1.0  0.56257  0.7356000000000001  0.44057  1.0000
  H   H29       1.0  0.56875  0.73882  0.36223  1.0000
  H   H30       1.0  0.73492  0.8103400000000001  0.36819  1.0000
  H   H31       1.0  0.09073  0.96399  0.76813  1.0000
  H   H32       1.0  0.27072  0.17356  0.04732  1.0000
  H   H33       1.0  0.30909  0.24717  0.81938  1.0000
  H   H34       1.0  0.10388  0.17681000000000002  0.70766  1.0000
  H   H35       1.0  0.01863  0.12853  0.68189  1.0000
  H   H36       1.0  0.16546  0.04799  0.77635  1.0000
  H   H37       1.0  0.9357899999999999  0.05467  0.66552  1.0000
  H   H38       1.0  0.87675  0.97564  0.6645300000000002  1.0000
  H   H39       1.0  0.99729  0.90067  0.74581  1.0000
  H   H40       1.0  0.12344000000000001  0.23603  0.90262  1.0000
  H   H41       1.0  0.08258  0.25583  0.9736200000000003  1.0000
  H   H42       1.0  0.2714  0.16536  0.9579  1.0000
  H   H43       1.0  0.06257  0.2644  0.05943000000000001  1.0000
  H   H44       1.0  0.06874  0.26119  0.13777  1.0000
  H   H45       1.0  0.23491000000000004  0.18967  0.13181  1.0000
  H   H46       1.0  0.40927  0.53602  0.76813  1.0000
  H   H47       1.0  0.22928000000000004  0.32644  0.04732  1.0000
  H   H48       1.0  0.19091  0.25283  0.81938  1.0000
  H   H49       1.0  0.39612  0.32320000000000004  0.70766  1.0000
  H   H50       1.0  0.48138  0.37147  0.68189  1.0000
  H   H51       1.0  0.33454  0.45202  0.77635  1.0000
  H   H52       1.0  0.56422  0.44534000000000007  0.66552  1.0000
  H   H53       1.0  0.62326  0.52436  0.6645300000000002  1.0000
  H   H54       1.0  0.50271  0.59933  0.74581  1.0000
  H   H55       1.0  0.37656  0.26397  0.90262  1.0000
  H   H56       1.0  0.41742  0.24418  0.9736200000000003  1.0000
  H   H57       1.0  0.2286  0.33465  0.9579  1.0000
  H   H58       1.0  0.43743  0.23560000000000006  0.05943000000000001  1.0000
  H   H59       1.0  0.43126000000000003  0.23882  0.13777  1.0000
  H   H60       1.0  0.26509  0.31033  0.13181  1.0000
  H   H61       1.0  0.09073  0.53602  0.2681300000000001  1.0000
  H   H62       1.0  0.27072  0.32644  0.5473200000000003  1.0000
  H   H63       1.0  0.30909  0.25283  0.3193800000000001  1.0000
  H   H64       1.0  0.10388  0.32320000000000004  0.20766000000000007  1.0000
  H   H65       1.0  0.01863  0.37147  0.18189  1.0000
  H   H66       1.0  0.16546  0.45202  0.27635  1.0000
  H   H67       1.0  0.9357899999999999  0.44534000000000007  0.16552000000000006  1.0000
  H   H68       1.0  0.87675  0.52436  0.16453  1.0000
  H   H69       1.0  0.99729  0.59933  0.24581  1.0000
  H   H70       1.0  0.12344000000000001  0.26397  0.40262  1.0000
  H   H71       1.0  0.08258  0.24418  0.47362  1.0000
  H   H72       1.0  0.2714  0.33465  0.4579000000000001  1.0000
  H   H73       1.0  0.06257  0.23560000000000006  0.55943  1.0000
  H   H74       1.0  0.06874  0.23882  0.63777  1.0000
  H   H75       1.0  0.23491000000000004  0.31033  0.6318100000000001  1.0000
  H   H76       1.0  0.40927  0.96399  0.2681300000000001  1.0000
  H   H77       1.0  0.22928000000000004  0.17356  0.5473200000000003  1.0000
  H   H78       1.0  0.19091  0.24717  0.3193800000000001  1.0000
  H   H79       1.0  0.39612  0.17681000000000002  0.20766000000000007  1.0000
  H   H80       1.0  0.48138  0.12853  0.18189  1.0000
  H   H81       1.0  0.33454  0.04799  0.27635  1.0000
  H   H82       1.0  0.56422  0.05467  0.16552000000000006  1.0000
  H   H83       1.0  0.62326  0.97564  0.16453  1.0000
  H   H84       1.0  0.50271  0.90067  0.24581  1.0000
  H   H85       1.0  0.37656  0.23603  0.40262  1.0000
  H   H86       1.0  0.41742  0.25583  0.47362  1.0000
  H   H87       1.0  0.2286  0.16536  0.4579000000000001  1.0000
  H   H88       1.0  0.43743  0.26441  0.55943  1.0000
  H   H89       1.0  0.43126000000000003  0.26119  0.63777  1.0000
  H   H90       1.0  0.26509  0.18967  0.6318100000000001  1.0000
  H   H91       1.0  0.90927  0.03601  0.23187000000000005  1.0000
  H   H92       1.0  0.72928  0.8264400000000001  0.95268  1.0000
  H   H93       1.0  0.69091  0.75283  0.18062000000000006  1.0000
  H   H94       1.0  0.89612  0.8232  0.2923400000000001  1.0000
  H   H95       1.0  0.98138  0.87147  0.3181100000000001  1.0000
  H   H96       1.0  0.83454  0.95202  0.22365  1.0000
  H   H97       1.0  0.06422  0.94534  0.33448  1.0000
  H   H98       1.0  0.12324999999999998  0.02436  0.33547  1.0000
  H   H99       1.0  0.00271  0.09933000000000002  0.25419  1.0000
  H   H100      1.0  0.87656  0.76397  0.09738  1.0000
  H   H101      1.0  0.91742  0.74418  0.02638  1.0000
  H   H102      1.0  0.7285999999999999  0.83465  0.0421  1.0000
  H   H103      1.0  0.93743  0.7356000000000001  0.94057  1.0000
  H   H104      1.0  0.93126  0.73882  0.86223  1.0000
  H   H105      1.0  0.7650899999999999  0.8103400000000001  0.86819  1.0000
  H   H106      1.0  0.59073  0.46399  0.23187000000000005  1.0000
  H   H107      1.0  0.77072  0.67356  0.95268  1.0000
  H   H108      1.0  0.80909  0.74717  0.18062000000000006  1.0000
  H   H109      1.0  0.60388  0.67681  0.2923400000000001  1.0000
  H   H110      1.0  0.51863  0.62853  0.3181100000000001  1.0000
  H   H111      1.0  0.66546  0.54799  0.22365  1.0000
  H   H112      1.0  0.43579  0.55467  0.33448  1.0000
  H   H113      1.0  0.37675  0.47564000000000006  0.33547  1.0000
  H   H114      1.0  0.49729000000000007  0.40067  0.25419  1.0000
  H   H115      1.0  0.62344  0.73603  0.09738  1.0000
  H   H116      1.0  0.58258  0.75583  0.02638  1.0000
  H   H117      1.0  0.7714  0.66536  0.0421  1.0000
  H   H118      1.0  0.56257  0.76441  0.94057  1.0000
  H   H119      1.0  0.56875  0.76119  0.86223  1.0000
  H   H120      1.0  0.73492  0.68967  0.86819  1.0000
  C   C1        1.0  0.8108400000000001  0.64518  0.7418  1.0000
  C   C2        1.0  0.8609399999999999  0.61489  0.75707  1.0000
  C   C3        1.0  0.90226  0.63759  0.78362  1.0000
  C   C4        1.0  0.9497199999999999  0.61071  0.79782  1.0000
  C   C5        1.0  0.95654  0.56029  0.78536  1.0000
  C   C6        1.0  0.91456  0.53795  0.75845  1.0000
  C   C7        1.0  0.86673  0.56459  0.7442000000000002  1.0000
  C   C8        1.0  0.9995  0.52234  0.79348  1.0000
  C   C9        1.0  0.05051  0.52147  0.8171300000000002  1.0000
  C   C10       1.0  0.08334  0.47775  0.8178100000000003  1.0000
  C   C11       1.0  0.06587  0.43454  0.79517  1.0000
  C   C12       1.0  0.01493  0.43427  0.77154  1.0000
  C   C13       1.0  0.98231  0.47825000000000006  0.77102  1.0000
  C   C14       1.0  0.1031  0.38903  0.79539  1.0000
  C   C15       1.0  0.77982  0.68765  0.616  1.0000
  C   C16       1.0  0.80119  0.6995600000000001  0.5730000000000002  1.0000
  C   C17       1.0  0.8539700000000001  0.7255  0.5688100000000003  1.0000
  C   C18       1.0  0.87632  0.73661  0.5294400000000002  1.0000
  C   C19       1.0  0.84507  0.72238  0.49357  1.0000
  C   C20       1.0  0.79133  0.6970400000000001  0.49832  1.0000
  C   C21       1.0  0.76919  0.6849800000000001  0.53776  1.0000
  C   C22       1.0  0.85483  0.7279000000000001  0.44908  1.0000
  C   C23       1.0  0.89999  0.74824  0.42517  1.0000
  C   C24       1.0  0.8965600000000001  0.7467  0.38163  1.0000
  C   C25       1.0  0.84792  0.72571  0.36142000000000013  1.0000
  C   C26       1.0  0.80183  0.7056800000000001  0.3845600000000001  1.0000
  C   C27       1.0  0.8063  0.70626  0.4282300000000001  1.0000
  C   C28       1.0  0.8466399999999998  0.72227  0.31509  1.0000
  C   C29       1.0  0.6891599999999999  0.85483  0.7418  1.0000
  C   C30       1.0  0.63907  0.8851100000000001  0.75707  1.0000
  C   C31       1.0  0.59775  0.8624100000000001  0.78362  1.0000
  C   C32       1.0  0.55029  0.8893000000000001  0.79782  1.0000
  C   C33       1.0  0.54347  0.9397200000000001  0.78536  1.0000
  C   C34       1.0  0.58544  0.96206  0.75845  1.0000
  C   C35       1.0  0.63328  0.93541  0.7442000000000002  1.0000
  C   C36       1.0  0.50051  0.97766  0.79348  1.0000
  C   C37       1.0  0.44949  0.97853  0.8171300000000002  1.0000
  C   C38       1.0  0.4166599999999999  0.02225  0.8178100000000003  1.0000
  C   C39       1.0  0.43413  0.06546  0.79517  1.0000
  C   C40       1.0  0.48507  0.06573  0.77154  1.0000
  C   C41       1.0  0.51769  0.021760000000000005  0.77102  1.0000
  C   C42       1.0  0.3969  0.11097  0.79539  1.0000
  C   C43       1.0  0.72018  0.8123600000000001  0.616  1.0000
  C   C44       1.0  0.69882  0.8004500000000001  0.5730000000000002  1.0000
  C   C45       1.0  0.64603  0.77451  0.5688100000000003  1.0000
  C   C46       1.0  0.62368  0.76339  0.5294400000000002  1.0000
  C   C47       1.0  0.65493  0.77763  0.49357  1.0000
  C   C48       1.0  0.70868  0.80297  0.49832  1.0000
  C   C49       1.0  0.73081  0.81503  0.53776  1.0000
  C   C50       1.0  0.64517  0.77211  0.44908  1.0000
  C   C51       1.0  0.60002  0.7517600000000001  0.42517  1.0000
  C   C52       1.0  0.60344  0.7533  0.38163  1.0000
  C   C53       1.0  0.65209  0.77429  0.36142000000000013  1.0000
  C   C54       1.0  0.69817  0.79432  0.3845600000000001  1.0000
  C   C55       1.0  0.69371  0.79375  0.4282300000000001  1.0000
  C   C56       1.0  0.65336  0.7777300000000001  0.31509  1.0000
  C   C57       1.0  0.18916  0.14518  0.7582000000000002  1.0000
  C   C58       1.0  0.13907  0.11489  0.74293  1.0000
  C   C59       1.0  0.09774  0.13759  0.7163800000000002  1.0000
  C   C60       1.0  0.050280000000000005  0.1107  0.70218  1.0000
  C   C61       1.0  0.043469999999999995  0.06029000000000002  0.71463  1.0000
  C   C62       1.0  0.08544  0.03795  0.74155  1.0000
  C   C63       1.0  0.13327  0.06459  0.7558  1.0000
  C   C64       1.0  0.00051  0.02234  0.7065200000000003  1.0000
  C   C65       1.0  0.94949  0.021470000000000003  0.68287  1.0000
  C   C66       1.0  0.91666  0.97775  0.68219  1.0000
  C   C67       1.0  0.93414  0.93454  0.7048300000000002  1.0000
  C   C68       1.0  0.9850699999999999  0.93427  0.7284600000000002  1.0000
  C   C69       1.0  0.01769  0.97825  0.72897  1.0000
  C   C70       1.0  0.8969  0.8890400000000003  0.7046100000000002  1.0000
  C   C71       1.0  0.22018  0.18765000000000004  0.884  1.0000
  C   C72       1.0  0.19882  0.19956  0.927  1.0000
  C   C73       1.0  0.14603  0.22549  0.93119  1.0000
  C   C74       1.0  0.12368  0.23661  0.9705500000000002  1.0000
  C   C75       1.0  0.15493  0.22237  0.00643  1.0000
  C   C76       1.0  0.20867999999999998  0.19704  0.0016800000000000005  1.0000
  C   C77       1.0  0.23081  0.18498000000000003  0.96223  1.0000
  C   C78       1.0  0.14517  0.22789000000000004  0.05092  1.0000
  C   C79       1.0  0.10002  0.24824  0.07483000000000002  1.0000
  C   C80       1.0  0.10344  0.2467  0.11837000000000003  1.0000
  C   C81       1.0  0.15209  0.22571  0.13858000000000006  1.0000
  C   C82       1.0  0.19817  0.20568  0.11544  1.0000
  C   C83       1.0  0.19370999999999997  0.20625  0.07177000000000003  1.0000
  C   C84       1.0  0.15336  0.22227000000000002  0.18491  1.0000
  C   C85       1.0  0.31084  0.35483  0.7582000000000002  1.0000
  C   C86       1.0  0.36094  0.38511  0.74293  1.0000
  C   C87       1.0  0.40226  0.36241  0.7163800000000002  1.0000
  C   C88       1.0  0.44972  0.3893  0.70218  1.0000
  C   C89       1.0  0.45652999999999994  0.43972  0.71463  1.0000
  C   C90       1.0  0.41456000000000004  0.46205  0.74155  1.0000
  C   C91       1.0  0.36673  0.43541  0.7558  1.0000
  C   C92       1.0  0.49949999999999994  0.47766  0.7065200000000003  1.0000
  C   C93       1.0  0.55052  0.47853  0.68287  1.0000
  C   C94       1.0  0.58334  0.52225  0.68219  1.0000
  C   C95       1.0  0.56587  0.56546  0.7048300000000002  1.0000
  C   C96       1.0  0.51493  0.56573  0.7284600000000002  1.0000
  C   C97       1.0  0.48230999999999996  0.52176  0.72897  1.0000
  C   C98       1.0  0.60311  0.61097  0.7046100000000002  1.0000
  C   C99       1.0  0.27982  0.31236  0.884  1.0000
  C   C100      1.0  0.30118  0.30045  0.927  1.0000
  C   C101      1.0  0.35397  0.27451  0.93119  1.0000
  C   C102      1.0  0.37632000000000004  0.26339  0.9705500000000002  1.0000
  C   C103      1.0  0.34507000000000004  0.27763  0.00643  1.0000
  C   C104      1.0  0.29132  0.30296  0.0016800000000000005  1.0000
  C   C105      1.0  0.26919  0.31503000000000003  0.96223  1.0000
  C   C106      1.0  0.35483  0.27211  0.05092  1.0000
  C   C107      1.0  0.39998000000000006  0.25176  0.07483000000000002  1.0000
  C   C108      1.0  0.39656  0.2533  0.11837000000000003  1.0000
  C   C109      1.0  0.34792  0.27429  0.13858000000000006  1.0000
  C   C110      1.0  0.30183  0.29432  0.11544  1.0000
  C   C111      1.0  0.3063  0.29375  0.07177000000000003  1.0000
  C   C112      1.0  0.34664  0.27773  0.18491  1.0000
  C   C113      1.0  0.18916  0.35482  0.2582  1.0000
  C   C114      1.0  0.13907  0.38511  0.24293  1.0000
  C   C115      1.0  0.09774  0.36241  0.21638  1.0000
  C   C116      1.0  0.050280000000000005  0.3893  0.20218  1.0000
  C   C117      1.0  0.043469999999999995  0.43972  0.21463  1.0000
  C   C118      1.0  0.08544  0.46205  0.24155  1.0000
  C   C119      1.0  0.13327  0.43541  0.2558  1.0000
  C   C120      1.0  0.00051  0.47766  0.20652  1.0000
  C   C121      1.0  0.94949  0.47853  0.18287  1.0000
  C   C122      1.0  0.91666  0.52225  0.18219  1.0000
  C   C123      1.0  0.93414  0.56546  0.20483000000000007  1.0000
  C   C124      1.0  0.9850699999999999  0.56573  0.22846000000000005  1.0000
  C   C125      1.0  0.01769  0.52176  0.22898  1.0000
  C   C126      1.0  0.8969  0.61097  0.20461  1.0000
  C   C127      1.0  0.22018  0.31236  0.3840000000000001  1.0000
  C   C128      1.0  0.19882  0.30045  0.4270000000000001  1.0000
  C   C129      1.0  0.14603  0.27451  0.43119000000000013  1.0000
  C   C130      1.0  0.12368  0.26339  0.4705600000000001  1.0000
  C   C131      1.0  0.15493  0.27763  0.50643  1.0000
  C   C132      1.0  0.20867999999999998  0.30297  0.50168  1.0000
  C   C133      1.0  0.23081  0.31503000000000003  0.46223  1.0000
  C   C134      1.0  0.14517  0.27211  0.55092  1.0000
  C   C135      1.0  0.10002  0.25176  0.5748300000000002  1.0000
  C   C136      1.0  0.10344  0.2533  0.61837  1.0000
  C   C137      1.0  0.15209  0.27429  0.6385800000000003  1.0000
  C   C138      1.0  0.19817  0.29432  0.6154400000000002  1.0000
  C   C139      1.0  0.19370999999999997  0.29375  0.57176  1.0000
  C   C140      1.0  0.15336  0.27773  0.68491  1.0000
  C   C141      1.0  0.31084  0.14518  0.2582  1.0000
  C   C142      1.0  0.36094  0.11489  0.24293  1.0000
  C   C143      1.0  0.40226  0.13759  0.21638  1.0000
  C   C144      1.0  0.44972  0.1107  0.20218  1.0000
  C   C145      1.0  0.45652999999999994  0.06029000000000002  0.21463  1.0000
  C   C146      1.0  0.41456000000000004  0.03795  0.24155  1.0000
  C   C147      1.0  0.36673  0.06459  0.2558  1.0000
  C   C148      1.0  0.49949999999999994  0.02234  0.20652  1.0000
  C   C149      1.0  0.55052  0.021470000000000003  0.18287  1.0000
  C   C150      1.0  0.58334  0.97775  0.18219  1.0000
  C   C151      1.0  0.56587  0.93454  0.20483000000000007  1.0000
  C   C152      1.0  0.51493  0.93427  0.22846000000000005  1.0000
  C   C153      1.0  0.48230999999999996  0.97825  0.22898  1.0000
  C   C154      1.0  0.60311  0.88903  0.20461  1.0000
  C   C155      1.0  0.27982  0.18765000000000004  0.3840000000000001  1.0000
  C   C156      1.0  0.30118  0.19955  0.4270000000000001  1.0000
  C   C157      1.0  0.35397  0.22549  0.43119000000000013  1.0000
  C   C158      1.0  0.37632000000000004  0.23661  0.4705600000000001  1.0000
  C   C159      1.0  0.34507000000000004  0.22237  0.50643  1.0000
  C   C160      1.0  0.29132  0.19704  0.50168  1.0000
  C   C161      1.0  0.26919  0.18498000000000003  0.46223  1.0000
  C   C162      1.0  0.35483  0.22789000000000004  0.55092  1.0000
  C   C163      1.0  0.39998000000000006  0.24824  0.5748300000000002  1.0000
  C   C164      1.0  0.39656  0.2467  0.61837  1.0000
  C   C165      1.0  0.34791  0.22571  0.6385800000000003  1.0000
  C   C166      1.0  0.30183  0.20568  0.6154400000000002  1.0000
  C   C167      1.0  0.3063  0.20625  0.57176  1.0000
  C   C168      1.0  0.34664  0.22227000000000002  0.68491  1.0000
  C   C169      1.0  0.8108400000000001  0.85482  0.24180000000000004  1.0000
  C   C170      1.0  0.8609399999999999  0.8851100000000001  0.25707  1.0000
  C   C171      1.0  0.90226  0.8624100000000001  0.28362  1.0000
  C   C172      1.0  0.9497199999999999  0.8893000000000001  0.29782  1.0000
  C   C173      1.0  0.95654  0.9397200000000001  0.28536  1.0000
  C   C174      1.0  0.91456  0.96205  0.25845  1.0000
  C   C175      1.0  0.86673  0.93541  0.2442  1.0000
  C   C176      1.0  0.9995  0.97766  0.29348  1.0000
  C   C177      1.0  0.05051  0.97853  0.31713000000000013  1.0000
  C   C178      1.0  0.08334  0.02225  0.31781  1.0000
  C   C179      1.0  0.06587  0.06546  0.2951700000000001  1.0000
  C   C180      1.0  0.01493  0.06573  0.27154  1.0000
  C   C181      1.0  0.98231  0.021760000000000005  0.27102  1.0000
  C   C182      1.0  0.1031  0.11097  0.29539  1.0000
  C   C183      1.0  0.77982  0.8123600000000001  0.116  1.0000
  C   C184      1.0  0.80119  0.8004500000000001  0.073  1.0000
  C   C185      1.0  0.8539700000000001  0.77451  0.06881  1.0000
  C   C186      1.0  0.87632  0.76339  0.02944  1.0000
  C   C187      1.0  0.84507  0.77763  0.99357  1.0000
  C   C188      1.0  0.79133  0.80297  0.99831  1.0000
  C   C189      1.0  0.76919  0.81503  0.037760000000000016  1.0000
  C   C190      1.0  0.85483  0.77211  0.94908  1.0000
  C   C191      1.0  0.89999  0.7517600000000001  0.92517  1.0000
  C   C192      1.0  0.8965600000000001  0.7533  0.88163  1.0000
  C   C193      1.0  0.84792  0.77429  0.86142  1.0000
  C   C194      1.0  0.80183  0.79432  0.88456  1.0000
  C   C195      1.0  0.8063  0.79375  0.9282300000000002  1.0000
  C   C196      1.0  0.8466399999999998  0.7777300000000001  0.8150900000000002  1.0000
  C   C197      1.0  0.6891599999999999  0.64518  0.24180000000000004  1.0000
  C   C198      1.0  0.63907  0.61489  0.25707  1.0000
  C   C199      1.0  0.59775  0.63759  0.28362  1.0000
  C   C200      1.0  0.55029  0.6107  0.29782  1.0000
  C   C201      1.0  0.54347  0.56029  0.28536  1.0000
  C   C202      1.0  0.58544  0.53795  0.25845  1.0000
  C   C203      1.0  0.63328  0.56459  0.2442  1.0000
  C   C204      1.0  0.50051  0.52234  0.29348  1.0000
  C   C205      1.0  0.44949  0.52147  0.31713000000000013  1.0000
  C   C206      1.0  0.4166599999999999  0.47775  0.31781  1.0000
  C   C207      1.0  0.43413  0.43454  0.2951700000000001  1.0000
  C   C208      1.0  0.48507  0.43427  0.27154  1.0000
  C   C209      1.0  0.51769  0.47825000000000006  0.27102  1.0000
  C   C210      1.0  0.3969  0.38903  0.29539  1.0000
  C   C211      1.0  0.72018  0.68765  0.116  1.0000
  C   C212      1.0  0.69882  0.6995600000000001  0.073  1.0000
  C   C213      1.0  0.64603  0.7255  0.06881  1.0000
  C   C214      1.0  0.62368  0.73661  0.02944  1.0000
  C   C215      1.0  0.65493  0.72238  0.99357  1.0000
  C   C216      1.0  0.70868  0.6970400000000001  0.99831  1.0000
  C   C217      1.0  0.73081  0.6849800000000001  0.037760000000000016  1.0000
  C   C218      1.0  0.64517  0.7279000000000001  0.94908  1.0000
  C   C219      1.0  0.60002  0.74824  0.92517  1.0000
  C   C220      1.0  0.60344  0.7467  0.88163  1.0000
  C   C221      1.0  0.65209  0.72571  0.86142  1.0000
  C   C222      1.0  0.69817  0.7056800000000001  0.88456  1.0000
  C   C223      1.0  0.69371  0.70626  0.9282300000000002  1.0000
  C   C224      1.0  0.65336  0.72227  0.8150900000000002  1.0000
  N   N1        1.0  0.93109  0.48855  0.75028  1.0000
  N   N2        1.0  0.76906  0.6875000000000001  0.4585200000000001  1.0000
  N   N3        1.0  0.56892  0.01145  0.75028  1.0000
  N   N4        1.0  0.73095  0.81251  0.4585200000000001  1.0000
  N   N5        1.0  0.06891  0.98855  0.7497200000000003  1.0000
  N   N6        1.0  0.23095  0.1875  0.04148000000000002  1.0000
  N   N7        1.0  0.43109  0.51145  0.7497200000000003  1.0000
  N   N8        1.0  0.26906  0.3125  0.04148000000000002  1.0000
  N   N9        1.0  0.06891  0.51145  0.24972  1.0000
  N   N10       1.0  0.23095  0.3125  0.5414800000000002  1.0000
  N   N11       1.0  0.43109  0.98855  0.24972  1.0000
  N   N12       1.0  0.26906  0.1875  0.5414800000000002  1.0000
  N   N13       1.0  0.93109  0.01145  0.25028  1.0000
  N   N14       1.0  0.76906  0.81251  0.95852  1.0000
  N   N15       1.0  0.56892  0.48855  0.25028  1.0000
  N   N16       1.0  0.73095  0.6875000000000001  0.95852  1.0000
  O   O1        1.0  0.8085000000000001  0.69149  0.75228  1.0000
  O   O2        1.0  0.77414  0.6215  0.71895  1.0000
  O   O3        1.0  0.15108  0.39134  0.8143300000000002  1.0000
  O   O4        1.0  0.08312  0.35026  0.7753100000000003  1.0000
  O   O5        1.0  0.8058  0.70443  0.64804  1.0000
  O   O6        1.0  0.73473  0.65905  0.6189  1.0000
  O   O7        1.0  0.80075  0.70894  0.2959  1.0000
  O   O8        1.0  0.89408  0.73057  0.2946800000000001  1.0000
  O   O9        1.0  0.69348  0.72017  0.70264  1.0000
  O   O10       1.0  0.6914999999999999  0.80851  0.75228  1.0000
  O   O11       1.0  0.7258700000000001  0.8785  0.71895  1.0000
  O   O12       1.0  0.34892  0.10866  0.8143300000000002  1.0000
  O   O13       1.0  0.41688  0.14974  0.7753100000000003  1.0000
  O   O14       1.0  0.6942  0.79557  0.64804  1.0000
  O   O15       1.0  0.76527  0.8409600000000002  0.6189  1.0000
  O   O16       1.0  0.69925  0.79107  0.2959  1.0000
  O   O17       1.0  0.60593  0.7694400000000001  0.2946800000000001  1.0000
  O   O18       1.0  0.80652  0.77984  0.70264  1.0000
  O   O19       1.0  0.1915  0.19149  0.7477200000000003  1.0000
  O   O20       1.0  0.22586  0.1215  0.78104  1.0000
  O   O21       1.0  0.8489199999999999  0.8913400000000001  0.68567  1.0000
  O   O22       1.0  0.91688  0.8502600000000001  0.72469  1.0000
  O   O23       1.0  0.1942  0.20443  0.8519500000000002  1.0000
  O   O24       1.0  0.26527  0.15904  0.8811  1.0000
  O   O25       1.0  0.19925  0.20894000000000001  0.2041  1.0000
  O   O26       1.0  0.10593  0.23057  0.20532000000000006  1.0000
  O   O27       1.0  0.30652  0.22017000000000003  0.79736  1.0000
  O   O28       1.0  0.3085  0.30851  0.7477200000000003  1.0000
  O   O29       1.0  0.27414  0.3785  0.78104  1.0000
  O   O30       1.0  0.65108  0.60867  0.68567  1.0000
  O   O31       1.0  0.58312  0.64974  0.72469  1.0000
  O   O32       1.0  0.3058  0.29557  0.8519500000000002  1.0000
  O   O33       1.0  0.23473  0.34096  0.8811  1.0000
  O   O34       1.0  0.30075  0.29107  0.2041  1.0000
  O   O35       1.0  0.39407  0.26944  0.20532000000000006  1.0000
  O   O36       1.0  0.19348  0.27984  0.79736  1.0000
  O   O37       1.0  0.1915  0.30851  0.24772000000000005  1.0000
  O   O38       1.0  0.22586  0.3785  0.2810400000000001  1.0000
  O   O39       1.0  0.8489199999999999  0.60867  0.18567000000000006  1.0000
  O   O40       1.0  0.91688  0.64974  0.22469000000000006  1.0000
  O   O41       1.0  0.1942  0.29557  0.35196  1.0000
  O   O42       1.0  0.26527  0.34096  0.3811  1.0000
  O   O43       1.0  0.19925  0.29107  0.7041  1.0000
  O   O44       1.0  0.10593  0.26944  0.7053200000000002  1.0000
  O   O45       1.0  0.30653  0.27983  0.29736  1.0000
  O   O46       1.0  0.3085  0.19149  0.24772000000000005  1.0000
  O   O47       1.0  0.27414  0.1215  0.2810400000000001  1.0000
  O   O48       1.0  0.65108  0.8913400000000001  0.18567000000000006  1.0000
  O   O49       1.0  0.58312  0.8502600000000001  0.22469000000000006  1.0000
  O   O50       1.0  0.3058  0.20443  0.35196  1.0000
  O   O51       1.0  0.23473  0.15904  0.3811  1.0000
  O   O52       1.0  0.30075  0.20894000000000001  0.7041  1.0000
  O   O53       1.0  0.39407  0.23057  0.7053200000000002  1.0000
  O   O54       1.0  0.19348  0.22017000000000003  0.29736  1.0000
  O   O55       1.0  0.8085000000000001  0.80851  0.25228  1.0000
  O   O56       1.0  0.77414  0.8785  0.21896  1.0000
  O   O57       1.0  0.15108  0.10866  0.31433  1.0000
  O   O58       1.0  0.08312  0.14974  0.2753100000000001  1.0000
  O   O59       1.0  0.8058  0.79557  0.14804  1.0000
  O   O60       1.0  0.73473  0.8409600000000002  0.11890000000000003  1.0000
  O   O61       1.0  0.80075  0.79107  0.7959  1.0000
  O   O62       1.0  0.89408  0.7694400000000001  0.79468  1.0000
  O   O63       1.0  0.69348  0.77984  0.20264  1.0000
  O   O64       1.0  0.6914999999999999  0.69149  0.25228  1.0000
  O   O65       1.0  0.7258700000000001  0.6215  0.21896  1.0000
  O   O66       1.0  0.34892  0.39134  0.31433  1.0000
  O   O67       1.0  0.41688  0.35026  0.2753100000000001  1.0000
  O   O68       1.0  0.6942  0.70443  0.14804  1.0000
  O   O69       1.0  0.76527  0.65905  0.11890000000000003  1.0000
  O   O70       1.0  0.69925  0.70894  0.7959  1.0000
  O   O71       1.0  0.60593  0.73057  0.79468  1.0000
  O   O72       1.0  0.80653  0.72017  0.20264  1.0000
