data_image0
_chemical_formula_structural       Zn16H120C216O52
_chemical_formula_sum              "Zn16 H120 C216 O52"
_cell_length_a       19.59463
_cell_length_b       19.59476
_cell_length_c       31.78339
_cell_angle_alpha    105.89630000000001
_cell_angle_beta     105.89417999999999
_cell_angle_gamma    94.16864999999999

_symmetry_space_group_name_H-M    'P 1'
_symmetry_Int_Tables_number       1

loop_
  _symmetry_equiv_pos_as_xyz
  'x,y,z'

loop_
  _atom_site_type_symbol
  _atom_site_label
  _atom_site_symmetry_multiplicity
  _atom_site_fract_x
  _atom_site_fract_y
  _atom_site_fract_z
  _atom_site_occupancy
  Zn  Zn1       1.0  0.46917  0.24524  0.34964  1.0000
  Zn  Zn2       1.0  0.55398  0.39222  0.42670000000000013  1.0000
  Zn  Zn3       1.0  0.6203699999999998  0.31767  0.34787  1.0000
  Zn  Zn4       1.0  0.61394  0.24395  0.42604  1.0000
  Zn  Zn5       1.0  0.24524000000000007  0.46917000000000003  0.8496400000000001  1.0000
  Zn  Zn6       1.0  0.39221  0.5539800000000001  0.9267000000000002  1.0000
  Zn  Zn7       1.0  0.31767  0.62037  0.84787  1.0000
  Zn  Zn8       1.0  0.24394999999999992  0.61394  0.92604  1.0000
  Zn  Zn9       1.0  0.75476  0.53084  0.15036  1.0000
  Zn  Zn10      1.0  0.6077899999999999  0.44601999999999997  0.07331  1.0000
  Zn  Zn11      1.0  0.68233  0.37964  0.15214  1.0000
  Zn  Zn12      1.0  0.7560499999999999  0.38606  0.07396  1.0000
  Zn  Zn13      1.0  0.5308299999999999  0.75476  0.65036  1.0000
  Zn  Zn14      1.0  0.44602  0.60778  0.5733000000000003  1.0000
  Zn  Zn15      1.0  0.37963  0.68234  0.65214  1.0000
  Zn  Zn16      1.0  0.38605999999999996  0.75605  0.57396  1.0000
  H   H1        1.0  0.6165  0.48537  0.2928  1.0000
  H   H2        1.0  0.57663  0.57684  0.25489  1.0000
  H   H3        1.0  0.49361  0.67598  0.36544  1.0000
  H   H4        1.0  0.53584  0.58518  0.4036300000000001  1.0000
  H   H5        1.0  0.47499  0.60583  0.21573000000000006  1.0000
  H   H6        1.0  0.43805  0.8197599999999999  0.21702  1.0000
  H   H7        1.0  0.52754  0.7749300000000001  0.3444500000000001  1.0000
  H   H8        1.0  0.51189  0.62263  0.15278000000000005  1.0000
  H   H9        1.0  0.47281  0.58631  0.068  1.0000
  H   H10       1.0  0.29677  0.70531  0.06907000000000003  1.0000
  H   H11       1.0  0.33719  0.74376  0.15460000000000004  1.0000
  H   H12       1.0  0.58619  0.88939  0.3611  1.0000
  H   H13       1.0  0.59828  0.02073  0.39871  1.0000
  H   H14       1.0  0.40135  0.02758000000000002  0.3000900000000001  1.0000
  H   H15       1.0  0.38774000000000003  0.89606  0.26272  1.0000
  H   H16       1.0  0.39472000000000007  0.4515799999999999  0.4760100000000001  1.0000
  H   H17       1.0  0.30215  0.4624  0.51564  1.0000
  H   H18       1.0  0.17674999999999996  0.26545  0.41598  1.0000
  H   H19       1.0  0.27006  0.25607  0.37599  1.0000
  H   H20       1.0  0.25542000000000015  0.41518000000000016  0.5608700000000002  1.0000
  H   H21       1.0  0.035790000000000016  0.3731499999999999  0.55866  1.0000
  H   H22       1.0  0.08783000000000005  0.32380000000000003  0.4317100000000001  1.0000
  H   H23       1.0  0.9537800000000001  0.26681  0.51267  1.0000
  H   H24       1.0  0.8215999999999999  0.23902000000000007  0.4734700000000001  1.0000
  H   H25       1.0  0.8478499999999999  0.34477  0.37575  1.0000
  H   H26       1.0  0.97991  0.3730200000000001  0.4147200000000001  1.0000
  H   H27       1.0  0.22870000000000015  0.5260500000000001  0.6197000000000003  1.0000
  H   H28       1.0  0.26724  0.57239  0.70489  1.0000
  H   H29       1.0  0.15998000000000015  0.37681000000000003  0.7098600000000003  1.0000
  H   H30       1.0  0.11788000000000012  0.3312500000000001  0.6241300000000002  1.0000
  H   H31       1.0  0.48536000000000007  0.6165  0.7928100000000002  1.0000
  H   H32       1.0  0.57685  0.57663  0.75489  1.0000
  H   H33       1.0  0.6759800000000001  0.49362000000000006  0.8654300000000001  1.0000
  H   H34       1.0  0.5851700000000001  0.5358500000000002  0.9036300000000003  1.0000
  H   H35       1.0  0.6058300000000001  0.47499000000000013  0.7157400000000003  1.0000
  H   H36       1.0  0.81977  0.43804999999999994  0.71702  1.0000
  H   H37       1.0  0.77493  0.52754  0.84445  1.0000
  H   H38       1.0  0.62263  0.51189  0.65279  1.0000
  H   H39       1.0  0.5863100000000001  0.47281000000000006  0.5680100000000002  1.0000
  H   H40       1.0  0.7053100000000001  0.29677000000000003  0.5690700000000001  1.0000
  H   H41       1.0  0.7437500000000001  0.33719  0.6546  1.0000
  H   H42       1.0  0.88938  0.5862  0.8611100000000002  1.0000
  H   H43       1.0  0.02072999999999996  0.59829  0.89872  1.0000
  H   H44       1.0  0.02758000000000007  0.4013500000000001  0.8000900000000002  1.0000
  H   H45       1.0  0.8960700000000001  0.38775000000000015  0.7627200000000002  1.0000
  H   H46       1.0  0.45158000000000015  0.39473000000000014  0.9760100000000003  1.0000
  H   H47       1.0  0.4624  0.30215  0.01564  1.0000
  H   H48       1.0  0.26545  0.17675  0.91598  1.0000
  H   H49       1.0  0.2560700000000001  0.2700600000000001  0.8759900000000002  1.0000
  H   H50       1.0  0.41518  0.25543  0.06087  1.0000
  H   H51       1.0  0.3731499999999999  0.0358  0.05866  1.0000
  H   H52       1.0  0.32379999999999987  0.08782999999999992  0.93172  1.0000
  H   H53       1.0  0.2668  0.95378  0.01267  1.0000
  H   H54       1.0  0.23901999999999993  0.8216  0.97347  1.0000
  H   H55       1.0  0.34477000000000013  0.8478500000000001  0.8757500000000003  1.0000
  H   H56       1.0  0.3730200000000001  0.9799100000000002  0.9147200000000002  1.0000
  H   H57       1.0  0.52605  0.2287  0.1197  1.0000
  H   H58       1.0  0.57239  0.26724  0.20489  1.0000
  H   H59       1.0  0.37681000000000003  0.15998000000000004  0.20986000000000005  1.0000
  H   H60       1.0  0.33125  0.11788999999999998  0.12413  1.0000
  H   H61       1.0  0.51463  0.38349999999999995  0.20719000000000007  1.0000
  H   H62       1.0  0.42315000000000025  0.42337  0.24511000000000005  1.0000
  H   H63       1.0  0.32402  0.50639  0.13457  1.0000
  H   H64       1.0  0.41483  0.46415999999999996  0.09637000000000001  1.0000
  H   H65       1.0  0.3941700000000001  0.52501  0.2842600000000001  1.0000
  H   H66       1.0  0.18023  0.56195  0.28299  1.0000
  H   H67       1.0  0.22507000000000005  0.47246  0.15555000000000005  1.0000
  H   H68       1.0  0.37737  0.48811  0.34721  1.0000
  H   H69       1.0  0.41369  0.5271900000000002  0.4319900000000001  1.0000
  H   H70       1.0  0.29469000000000006  0.7032300000000001  0.4309300000000001  1.0000
  H   H71       1.0  0.25625  0.66281  0.3454000000000001  1.0000
  H   H72       1.0  0.11062  0.41381  0.13890000000000002  1.0000
  H   H73       1.0  0.9792700000000001  0.40171  0.10129  1.0000
  H   H74       1.0  0.9724200000000001  0.5986600000000001  0.19991000000000006  1.0000
  H   H75       1.0  0.10393000000000002  0.61226  0.23728000000000005  1.0000
  H   H76       1.0  0.54842  0.60527  0.02399  1.0000
  H   H77       1.0  0.5376  0.69785  0.9843700000000002  1.0000
  H   H78       1.0  0.73455  0.8232500000000001  0.08403  1.0000
  H   H79       1.0  0.74393  0.72995  0.12401000000000001  1.0000
  H   H80       1.0  0.5848200000000001  0.7445800000000001  0.9391300000000002  1.0000
  H   H81       1.0  0.62685  0.96421  0.94135  1.0000
  H   H82       1.0  0.6762  0.91217  0.06829  1.0000
  H   H83       1.0  0.7332  0.04622000000000006  0.98733  1.0000
  H   H84       1.0  0.76098  0.1784  0.02653000000000001  1.0000
  H   H85       1.0  0.65523  0.15216  0.12425000000000001  1.0000
  H   H86       1.0  0.62698  0.02009  0.08528000000000001  1.0000
  H   H87       1.0  0.4739500000000001  0.77131  0.8803100000000001  1.0000
  H   H88       1.0  0.42761  0.73277  0.79512  1.0000
  H   H89       1.0  0.6231900000000002  0.8400299999999999  0.7901400000000002  1.0000
  H   H90       1.0  0.6687500000000001  0.88212  0.8758700000000003  1.0000
  H   H91       1.0  0.3835  0.51464  0.7072  1.0000
  H   H92       1.0  0.42336999999999997  0.4231599999999999  0.74511  1.0000
  H   H93       1.0  0.50639  0.32402  0.63457  1.0000
  H   H94       1.0  0.4641600000000002  0.41483000000000014  0.5963700000000002  1.0000
  H   H95       1.0  0.52501  0.3941800000000001  0.7842700000000002  1.0000
  H   H96       1.0  0.56195  0.18024  0.78298  1.0000
  H   H97       1.0  0.47246  0.22507000000000002  0.65555  1.0000
  H   H98       1.0  0.4881100000000001  0.37737000000000004  0.8472200000000001  1.0000
  H   H99       1.0  0.5271900000000003  0.4137000000000001  0.9320000000000003  1.0000
  H   H100      1.0  0.70323  0.2947  0.9309300000000003  1.0000
  H   H101      1.0  0.66281  0.25625  0.8454  1.0000
  H   H102      1.0  0.4138100000000002  0.11062000000000008  0.6389000000000002  1.0000
  H   H103      1.0  0.4017200000000001  0.9792699999999999  0.60129  1.0000
  H   H104      1.0  0.5986500000000001  0.9724300000000002  0.6999100000000003  1.0000
  H   H105      1.0  0.61225  0.10394000000000009  0.7372800000000003  1.0000
  H   H106      1.0  0.60527  0.54842  0.52399  1.0000
  H   H107      1.0  0.69785  0.5376  0.48436  1.0000
  H   H108      1.0  0.82325  0.73455  0.58403  1.0000
  H   H109      1.0  0.72994  0.74393  0.62401  1.0000
  H   H110      1.0  0.74458  0.58483  0.43913000000000013  1.0000
  H   H111      1.0  0.96421  0.62685  0.4413400000000001  1.0000
  H   H112      1.0  0.91217  0.67621  0.56829  1.0000
  H   H113      1.0  0.04622000000000004  0.7332  0.4873300000000001  1.0000
  H   H114      1.0  0.17839999999999995  0.7609800000000001  0.52653  1.0000
  H   H115      1.0  0.15215  0.65523  0.62425  1.0000
  H   H116      1.0  0.020090000000000104  0.62698  0.5852800000000002  1.0000
  H   H117      1.0  0.7713  0.47396000000000005  0.3803  1.0000
  H   H118      1.0  0.73276  0.42761  0.29511  1.0000
  H   H119      1.0  0.8400200000000001  0.62319  0.29014  1.0000
  H   H120      1.0  0.88212  0.6687500000000001  0.3758700000000001  1.0000
  C   C1        1.0  0.59623  0.47032  0.3705  1.0000
  C   C2        1.0  0.5785000000000001  0.52942  0.3505  1.0000
  C   C3        1.0  0.58991  0.5275  0.3084800000000001  1.0000
  C   C4        1.0  0.56707  0.57865  0.28729  1.0000
  C   C5        1.0  0.5318  0.63289  0.3072300000000001  1.0000
  C   C6        1.0  0.52194  0.63537  0.34987  1.0000
  C   C7        1.0  0.5450500000000004  0.5843200000000001  0.37130000000000013  1.0000
  C   C8        1.0  0.50517  0.68478  0.28295  1.0000
  C   C9        1.0  0.47842  0.66206  0.23472  1.0000
  C   C10       1.0  0.4531200000000001  0.71003  0.21066  1.0000
  C   C11       1.0  0.45461  0.7816299999999999  0.23559  1.0000
  C   C12       1.0  0.48156999999999994  0.80603  0.28383  1.0000
  C   C13       1.0  0.50635  0.75682  0.30711  1.0000
  C   C14       1.0  0.42761999999999994  0.6862500000000001  0.15985000000000005  1.0000
  C   C15       1.0  0.4645200000000001  0.64064  0.13466  1.0000
  C   C16       1.0  0.44271000000000005  0.62026  0.08687  1.0000
  C   C17       1.0  0.38211  0.64372  0.06299000000000002  1.0000
  C   C18       1.0  0.34402999999999995  0.68799  0.0878  1.0000
  C   C19       1.0  0.36701000000000006  0.70954  0.13562  1.0000
  C   C20       1.0  0.48657000000000006  0.8830800000000001  0.30865  1.0000
  C   C21       1.0  0.54487  0.91908  0.3480200000000001  1.0000
  C   C22       1.0  0.55218  0.99278  0.36908000000000013  1.0000
  C   C23       1.0  0.50112  0.03262000000000003  0.35142000000000007  1.0000
  C   C24       1.0  0.44138  0.99674  0.31319  1.0000
  C   C25       1.0  0.43433  0.9231699999999999  0.29225  1.0000
  C   C26       1.0  0.3974000000000001  0.34415  0.4026800000000001  1.0000
  C   C27       1.0  0.33817  0.35314  0.42349  1.0000
  C   C28       1.0  0.34665000000000007  0.4113200000000001  0.4628800000000001  1.0000
  C   C29       1.0  0.29440000000000005  0.41697  0.4851400000000001  1.0000
  C   C30       1.0  0.23228000000000004  0.36469  0.46866000000000013  1.0000
  C   C31       1.0  0.22368000000000005  0.30715000000000003  0.4286300000000001  1.0000
  C   C32       1.0  0.2758900000000001  0.3012500000000001  0.4062900000000001  1.0000
  C   C33       1.0  0.17800000000000005  0.3690800000000001  0.4933000000000001  1.0000
  C   C34       1.0  0.19881999999999997  0.39674  0.54149  1.0000
  C   C35       1.0  0.14816000000000004  0.39724  0.5653  1.0000
  C   C36       1.0  0.07566999999999999  0.37057  0.54045  1.0000
  C   C37       1.0  0.05327  0.34505  0.49222  1.0000
  C   C38       1.0  0.10487000000000003  0.34414  0.4690800000000001  1.0000
  C   C39       1.0  0.97588  0.32287  0.46679000000000004  1.0000
  C   C40       1.0  0.93063  0.28431  0.48289  1.0000
  C   C41       1.0  0.85694  0.2682300000000001  0.46100000000000013  1.0000
  C   C42       1.0  0.8266000000000001  0.2906500000000001  0.4225500000000001  1.0000
  C   C43       1.0  0.87151  0.32738  0.40547  1.0000
  C   C44       1.0  0.9454  0.34277  0.42721000000000003  1.0000
  C   C45       1.0  0.17086  0.42527999999999994  0.61606  1.0000
  C   C46       1.0  0.21345  0.49323  0.63928  1.0000
  C   C47       1.0  0.23503  0.51944  0.68706  1.0000
  C   C48       1.0  0.21615  0.47723  0.71264  1.0000
  C   C49       1.0  0.17384000000000005  0.40917  0.68966  1.0000
  C   C50       1.0  0.15052000000000007  0.38405000000000006  0.6418700000000003  1.0000
  C   C51       1.0  0.24099000000000007  0.50376  0.7637900000000001  1.0000
  C   C52       1.0  0.7470800000000001  0.27873000000000003  0.4025000000000001  1.0000
  C   C53       1.0  0.51213  0.11249000000000002  0.37071  1.0000
  C   C54       1.0  0.35879  0.62252  0.01187  1.0000
  C   C55       1.0  0.47031  0.5962400000000001  0.8705000000000003  1.0000
  C   C56       1.0  0.5294100000000003  0.5784999999999999  0.8505100000000002  1.0000
  C   C57       1.0  0.5275  0.58991  0.80848  1.0000
  C   C58       1.0  0.57865  0.56707  0.78729  1.0000
  C   C59       1.0  0.6328900000000001  0.5318100000000001  0.8072300000000002  1.0000
  C   C60       1.0  0.63537  0.5219500000000002  0.8498700000000002  1.0000
  C   C61       1.0  0.58431  0.54505  0.8713  1.0000
  C   C62       1.0  0.68478  0.50518  0.7829500000000001  1.0000
  C   C63       1.0  0.66207  0.47843  0.73472  1.0000
  C   C64       1.0  0.71003  0.45312  0.71066  1.0000
  C   C65       1.0  0.78164  0.45461999999999997  0.73559  1.0000
  C   C66       1.0  0.8060300000000001  0.4815700000000001  0.7838300000000002  1.0000
  C   C67       1.0  0.75683  0.50636  0.80711  1.0000
  C   C68       1.0  0.68625  0.42762999999999995  0.65985  1.0000
  C   C69       1.0  0.6406500000000002  0.46453  0.6346700000000002  1.0000
  C   C70       1.0  0.62026  0.44271  0.58687  1.0000
  C   C71       1.0  0.64373  0.38212  0.56299  1.0000
  C   C72       1.0  0.68799  0.34403  0.5878  1.0000
  C   C73       1.0  0.70953  0.3670100000000001  0.6356200000000002  1.0000
  C   C74       1.0  0.8830799999999999  0.48656999999999995  0.8086500000000002  1.0000
  C   C75       1.0  0.91908  0.54488  0.8480200000000002  1.0000
  C   C76       1.0  0.99277  0.55219  0.8690800000000002  1.0000
  C   C77       1.0  0.03262000000000011  0.50112  0.8514200000000002  1.0000
  C   C78       1.0  0.99674  0.44139  0.8131900000000001  1.0000
  C   C79       1.0  0.92317  0.43433  0.79225  1.0000
  C   C80       1.0  0.3441500000000002  0.3974000000000001  0.9026800000000003  1.0000
  C   C81       1.0  0.35314  0.33818  0.9235000000000001  1.0000
  C   C82       1.0  0.41131000000000006  0.34665  0.96288  1.0000
  C   C83       1.0  0.4169600000000001  0.29440000000000016  0.9851400000000002  1.0000
  C   C84       1.0  0.36469000000000007  0.2322899999999999  0.96866  1.0000
  C   C85       1.0  0.3071400000000001  0.22368000000000002  0.9286300000000002  1.0000
  C   C86       1.0  0.30125  0.2758900000000001  0.9063  1.0000
  C   C87       1.0  0.36908000000000013  0.17801000000000003  0.9933000000000002  1.0000
  C   C88       1.0  0.39674  0.19882  0.04149000000000001  1.0000
  C   C89       1.0  0.39724  0.14816000000000001  0.06530000000000001  1.0000
  C   C90       1.0  0.37057  0.07567  0.04045000000000001  1.0000
  C   C91       1.0  0.34504  0.05327000000000004  0.99222  1.0000
  C   C92       1.0  0.34414  0.10488000000000001  0.96908  1.0000
  C   C93       1.0  0.32287  0.97589  0.96679  1.0000
  C   C94       1.0  0.28431000000000006  0.93064  0.9828900000000003  1.0000
  C   C95       1.0  0.26823  0.85695  0.961  1.0000
  C   C96       1.0  0.29064  0.8266  0.92255  1.0000
  C   C97       1.0  0.32738000000000017  0.8715100000000001  0.9054700000000002  1.0000
  C   C98       1.0  0.3427600000000001  0.9453999999999999  0.9272100000000002  1.0000
  C   C99       1.0  0.42528  0.17087  0.11606  1.0000
  C   C100      1.0  0.49323  0.21345  0.13928  1.0000
  C   C101      1.0  0.51944  0.23503  0.18706000000000006  1.0000
  C   C102      1.0  0.47723  0.21615  0.21264000000000005  1.0000
  C   C103      1.0  0.4091699999999999  0.17384  0.18966  1.0000
  C   C104      1.0  0.38405  0.15052  0.14187000000000005  1.0000
  C   C105      1.0  0.50375  0.24099  0.26379  1.0000
  C   C106      1.0  0.27872  0.74708  0.9025  1.0000
  C   C107      1.0  0.11248000000000004  0.5121400000000003  0.8707100000000001  1.0000
  C   C108      1.0  0.62252  0.35878999999999994  0.51187  1.0000
  C   C109      1.0  0.52969  0.40377  0.1295  1.0000
  C   C110      1.0  0.47058  0.42150000000000004  0.1495  1.0000
  C   C111      1.0  0.4725  0.41009  0.19152000000000005  1.0000
  C   C112      1.0  0.42135  0.43293  0.21271000000000007  1.0000
  C   C113      1.0  0.36711  0.4682  0.19278  1.0000
  C   C114      1.0  0.36463000000000007  0.47806  0.15014000000000005  1.0000
  C   C115      1.0  0.41569000000000017  0.45494999999999997  0.1287  1.0000
  C   C116      1.0  0.31522  0.49482999999999994  0.21705000000000005  1.0000
  C   C117      1.0  0.33793000000000006  0.52157  0.26528000000000007  1.0000
  C   C118      1.0  0.28997  0.54688  0.28934  1.0000
  C   C119      1.0  0.21836  0.54539  0.26441  1.0000
  C   C120      1.0  0.19397  0.51843  0.21617  1.0000
  C   C121      1.0  0.24317  0.49365  0.19289  1.0000
  C   C122      1.0  0.31375000000000003  0.57238  0.34015000000000006  1.0000
  C   C123      1.0  0.35935000000000006  0.53548  0.36534000000000005  1.0000
  C   C124      1.0  0.37974  0.55729  0.41313  1.0000
  C   C125      1.0  0.35627000000000003  0.6178900000000002  0.4370100000000001  1.0000
  C   C126      1.0  0.31201  0.65598  0.4122  1.0000
  C   C127      1.0  0.29047  0.63299  0.36438000000000004  1.0000
  C   C128      1.0  0.11691999999999998  0.51343  0.19135  1.0000
  C   C129      1.0  0.08092000000000002  0.4551299999999999  0.15198  1.0000
  C   C130      1.0  0.007229999999999993  0.44781  0.13092  1.0000
  C   C131      1.0  0.96738  0.49888000000000005  0.14858000000000005  1.0000
  C   C132      1.0  0.003260000000000028  0.55862  0.18681000000000006  1.0000
  C   C133      1.0  0.07683  0.56567  0.20776  1.0000
  C   C134      1.0  0.6558500000000002  0.6026  0.09732000000000003  1.0000
  C   C135      1.0  0.6468600000000001  0.6618300000000001  0.07651000000000002  1.0000
  C   C136      1.0  0.58869  0.65335  0.03713  1.0000
  C   C137      1.0  0.58304  0.7056  0.014860000000000003  1.0000
  C   C138      1.0  0.63531  0.76771  0.03134  1.0000
  C   C139      1.0  0.69286  0.77632  0.07137000000000002  1.0000
  C   C140      1.0  0.69875  0.72411  0.0937  1.0000
  C   C141      1.0  0.63092  0.8219999999999998  0.006700000000000002  1.0000
  C   C142      1.0  0.6032599999999999  0.80118  0.95852  1.0000
  C   C143      1.0  0.60276  0.8518400000000002  0.9347  1.0000
  C   C144      1.0  0.62943  0.92433  0.95955  1.0000
  C   C145      1.0  0.65496  0.9467299999999998  0.007780000000000001  1.0000
  C   C146      1.0  0.65586  0.8951199999999999  0.030920000000000007  1.0000
  C   C147      1.0  0.67713  0.02412  0.03321  1.0000
  C   C148      1.0  0.71569  0.06936  0.01711  1.0000
  C   C149      1.0  0.73177  0.14305  0.039  1.0000
  C   C150      1.0  0.70936  0.1734  0.07745  1.0000
  C   C151      1.0  0.67262  0.12849  0.09453  1.0000
  C   C152      1.0  0.65724  0.05461  0.07279  1.0000
  C   C153      1.0  0.5747200000000001  0.82914  0.8839400000000002  1.0000
  C   C154      1.0  0.50677  0.78656  0.86072  1.0000
  C   C155      1.0  0.48056000000000015  0.76498  0.8129400000000002  1.0000
  C   C156      1.0  0.52277  0.78386  0.78736  1.0000
  C   C157      1.0  0.59083  0.82616  0.81035  1.0000
  C   C158      1.0  0.61595  0.84948  0.8581300000000002  1.0000
  C   C159      1.0  0.49624000000000007  0.75902  0.7362100000000003  1.0000
  C   C160      1.0  0.72128  0.25292  0.09751000000000001  1.0000
  C   C161      1.0  0.88752  0.48786999999999997  0.12929000000000002  1.0000
  C   C162      1.0  0.37748  0.64122  0.48814  1.0000
  C   C163      1.0  0.40377  0.52969  0.62951  1.0000
  C   C164      1.0  0.42150000000000015  0.4705900000000002  0.6495000000000002  1.0000
  C   C165      1.0  0.41009  0.47251  0.69152  1.0000
  C   C166      1.0  0.43293  0.42136  0.71271  1.0000
  C   C167      1.0  0.4682000000000002  0.36711000000000005  0.6927800000000002  1.0000
  C   C168      1.0  0.47806  0.36463  0.65014  1.0000
  C   C169      1.0  0.45495  0.41568999999999995  0.62871  1.0000
  C   C170      1.0  0.49483000000000005  0.3152200000000001  0.7170600000000003  1.0000
  C   C171      1.0  0.52157  0.33794  0.76528  1.0000
  C   C172      1.0  0.54688  0.28997  0.78934  1.0000
  C   C173      1.0  0.54539  0.21837  0.76441  1.0000
  C   C174      1.0  0.5184300000000002  0.1939700000000001  0.7161700000000002  1.0000
  C   C175      1.0  0.49365  0.24318  0.69289  1.0000
  C   C176      1.0  0.57238  0.31376  0.84015  1.0000
  C   C177      1.0  0.5354800000000001  0.3593600000000001  0.8653400000000002  1.0000
  C   C178      1.0  0.55729  0.37975  0.91314  1.0000
  C   C179      1.0  0.61788  0.35628  0.93701  1.0000
  C   C180      1.0  0.6559700000000002  0.31201000000000007  0.9122000000000002  1.0000
  C   C181      1.0  0.63299  0.2904700000000001  0.8643800000000003  1.0000
  C   C182      1.0  0.51343  0.11693000000000002  0.6913500000000001  1.0000
  C   C183      1.0  0.45513  0.08092000000000009  0.6519800000000002  1.0000
  C   C184      1.0  0.44781000000000004  0.007230000000000025  0.6309200000000001  1.0000
  C   C185      1.0  0.49888000000000016  0.9673800000000002  0.6485800000000003  1.0000
  C   C186      1.0  0.55862  0.0032600000000000237  0.68681  1.0000
  C   C187      1.0  0.56567  0.07683999999999999  0.70776  1.0000
  C   C188      1.0  0.6026  0.65586  0.5973300000000001  1.0000
  C   C189      1.0  0.66183  0.64686  0.57651  1.0000
  C   C190      1.0  0.65335  0.58869  0.53713  1.0000
  C   C191      1.0  0.7056  0.58304  0.51486  1.0000
  C   C192      1.0  0.7677199999999998  0.63532  0.53134  1.0000
  C   C193      1.0  0.7763200000000002  0.6928600000000001  0.5713700000000003  1.0000
  C   C194      1.0  0.72411  0.69876  0.59371  1.0000
  C   C195      1.0  0.822  0.63092  0.5067  1.0000
  C   C196      1.0  0.8011800000000001  0.60327  0.4585200000000001  1.0000
  C   C197      1.0  0.85184  0.60276  0.4347  1.0000
  C   C198      1.0  0.92433  0.62944  0.4595500000000001  1.0000
  C   C199      1.0  0.94673  0.65496  0.5077900000000001  1.0000
  C   C200      1.0  0.8951300000000001  0.65587  0.53092  1.0000
  C   C201      1.0  0.02412000000000008  0.6771300000000001  0.5332100000000001  1.0000
  C   C202      1.0  0.06937000000000011  0.7156900000000002  0.5171100000000002  1.0000
  C   C203      1.0  0.14306000000000002  0.73177  0.539  1.0000
  C   C204      1.0  0.17340000000000003  0.7093600000000001  0.57745  1.0000
  C   C205      1.0  0.12848999999999994  0.67262  0.59453  1.0000
  C   C206      1.0  0.05460000000000012  0.65724  0.5727900000000002  1.0000
  C   C207      1.0  0.82914  0.57473  0.3839400000000001  1.0000
  C   C208      1.0  0.78655  0.50677  0.3607200000000001  1.0000
  C   C209      1.0  0.76497  0.48057  0.31294  1.0000
  C   C210      1.0  0.78385  0.52277  0.2873600000000001  1.0000
  C   C211      1.0  0.8261599999999999  0.59083  0.3103500000000001  1.0000
  C   C212      1.0  0.84948  0.61596  0.3581300000000001  1.0000
  C   C213      1.0  0.75901  0.4962500000000001  0.23621000000000006  1.0000
  C   C214      1.0  0.25292  0.7212800000000001  0.59751  1.0000
  C   C215      1.0  0.48786  0.88752  0.6292900000000002  1.0000
  C   C216      1.0  0.6412100000000002  0.37749000000000005  0.9881400000000002  1.0000
  O   O1        1.0  0.5646  0.29979  0.3877  1.0000
  O   O2        1.0  0.39123  0.28538  0.37064  1.0000
  O   O3        1.0  0.45096  0.39532000000000006  0.4187200000000001  1.0000
  O   O4        1.0  0.58563  0.47473000000000004  0.40925  1.0000
  O   O5        1.0  0.6197599999999999  0.41852  0.34723  1.0000
  O   O6        1.0  0.26587  0.57088  0.7828300000000002  1.0000
  O   O7        1.0  0.23569000000000012  0.45719000000000015  0.7846800000000003  1.0000
  O   O8        1.0  0.72092  0.30693  0.37071  1.0000
  O   O9        1.0  0.71074  0.24201999999999999  0.41889  1.0000
  O   O10       1.0  0.56917  0.14258999999999997  0.40445  1.0000
  O   O11       1.0  0.46445  0.1449900000000001  0.3516200000000001  1.0000
  O   O12       1.0  0.40401  0.59595  0.9921  1.0000
  O   O13       1.0  0.2957900000000001  0.6324800000000003  0.9917700000000003  1.0000
  O   O14       1.0  0.29979  0.5646  0.8877  1.0000
  O   O15       1.0  0.2853800000000001  0.39123000000000013  0.8706400000000002  1.0000
  O   O16       1.0  0.39532  0.45095999999999997  0.91872  1.0000
  O   O17       1.0  0.47473000000000004  0.58564  0.90926  1.0000
  O   O18       1.0  0.41852  0.61977  0.84723  1.0000
  O   O19       1.0  0.57088  0.26587  0.2828300000000001  1.0000
  O   O20       1.0  0.45719  0.23568999999999998  0.28468  1.0000
  O   O21       1.0  0.30693  0.7209200000000002  0.8707100000000001  1.0000
  O   O22       1.0  0.24202  0.71074  0.91889  1.0000
  O   O23       1.0  0.14258  0.56918  0.90445  1.0000
  O   O24       1.0  0.14499  0.4644499999999999  0.85162  1.0000
  O   O25       1.0  0.5959500000000001  0.4040100000000001  0.4921000000000001  1.0000
  O   O26       1.0  0.63248  0.29579  0.49177  1.0000
  O   O27       1.0  0.70021  0.43540999999999996  0.11230000000000002  1.0000
  O   O28       1.0  0.71462  0.60877  0.12936  1.0000
  O   O29       1.0  0.60468  0.54904  0.08128  1.0000
  O   O30       1.0  0.52527  0.41436999999999996  0.09075  1.0000
  O   O31       1.0  0.58148  0.38024  0.15277  1.0000
  O   O32       1.0  0.42912000000000017  0.7341300000000001  0.7171800000000003  1.0000
  O   O33       1.0  0.54281  0.76431  0.7153200000000002  1.0000
  O   O34       1.0  0.69307  0.27908  0.12929000000000002  1.0000
  O   O35       1.0  0.75798  0.28926  0.08111  1.0000
  O   O36       1.0  0.85742  0.43083  0.09555  1.0000
  O   O37       1.0  0.85501  0.53556  0.14838  1.0000
  O   O38       1.0  0.40405  0.59599  0.50791  1.0000
  O   O39       1.0  0.36752  0.70421  0.50823  1.0000
  O   O40       1.0  0.43540000000000023  0.70021  0.61231  1.0000
  O   O41       1.0  0.60877  0.7146200000000001  0.6293600000000003  1.0000
  O   O42       1.0  0.54904  0.60468  0.58128  1.0000
  O   O43       1.0  0.41437000000000007  0.52527  0.59075  1.0000
  O   O44       1.0  0.38024000000000013  0.58149  0.6527800000000002  1.0000
  O   O45       1.0  0.73413  0.42912000000000006  0.21717000000000006  1.0000
  O   O46       1.0  0.76431  0.54281  0.21532  1.0000
  O   O47       1.0  0.2790800000000001  0.6930700000000001  0.6292900000000002  1.0000
  O   O48       1.0  0.28926  0.75798  0.58111  1.0000
  O   O49       1.0  0.43082999999999994  0.85741  0.59556  1.0000
  O   O50       1.0  0.53555  0.8550100000000002  0.64838  1.0000
  O   O51       1.0  0.59599  0.40405  0.00791  1.0000
  O   O52       1.0  0.70421  0.36752  0.008230000000000001  1.0000
