data_image0
_chemical_formula_structural       Zn24H160C264N128O64
_chemical_formula_sum              "Zn24 H160 C264 N128 O64"
_cell_length_a       8.97459
_cell_length_b       23.95223
_cell_length_c       38.978339999999996
_cell_angle_alpha    89.91846
_cell_angle_beta     90.0
_cell_angle_gamma    90.0

_symmetry_space_group_name_H-M    'P 1'
_symmetry_Int_Tables_number       1

loop_
  _symmetry_equiv_pos_as_xyz
  'x,y,z'

loop_
  _atom_site_type_symbol
  _atom_site_label
  _atom_site_symmetry_multiplicity
  _atom_site_fract_x
  _atom_site_fract_y
  _atom_site_fract_z
  _atom_site_occupancy
  Zn  Zn1       1.0  0.43302  0.33468999999999993  0.97808  1.0000
  Zn  Zn2       1.0  0.57274  0.17033  0.09965  1.0000
  Zn  Zn3       1.0  0.57974  0.17347  0.85528  1.0000
  Zn  Zn4       1.0  0.43302  0.16532  0.52192  1.0000
  Zn  Zn5       1.0  0.57274  0.32968  0.40035  1.0000
  Zn  Zn6       1.0  0.57974  0.32653999999999994  0.64472  1.0000
  Zn  Zn7       1.0  0.07068  0.8350899999999998  0.02173  1.0000
  Zn  Zn8       1.0  0.92976  0.66865  0.9015299999999999  1.0000
  Zn  Zn9       1.0  0.92245  0.6734699999999999  0.1438  1.0000
  Zn  Zn10      1.0  0.07068  0.66491  0.47827  1.0000
  Zn  Zn11      1.0  0.92976  0.83136  0.59847  1.0000
  Zn  Zn12      1.0  0.92245  0.82653  0.3562  1.0000
  Zn  Zn13      1.0  0.56698  0.66532  0.02192  1.0000
  Zn  Zn14      1.0  0.42726  0.82968  0.90035  1.0000
  Zn  Zn15      1.0  0.42026  0.8265399999999998  0.14472  1.0000
  Zn  Zn16      1.0  0.56698  0.8346899999999998  0.47808  1.0000
  Zn  Zn17      1.0  0.42726  0.67033  0.59965  1.0000
  Zn  Zn18      1.0  0.42026  0.67346  0.35528  1.0000
  Zn  Zn19      1.0  0.92932  0.16492  0.9782699999999999  1.0000
  Zn  Zn20      1.0  0.07024  0.33135999999999993  0.09847  1.0000
  Zn  Zn21      1.0  0.07755  0.32653999999999994  0.8562  1.0000
  Zn  Zn22      1.0  0.92932  0.3350899999999999  0.52173  1.0000
  Zn  Zn23      1.0  0.07024  0.16864  0.40153  1.0000
  Zn  Zn24      1.0  0.07755  0.17347  0.6438  1.0000
  H   H1        1.0  0.53581  0.10649  0.7284  1.0000
  H   H2        1.0  0.4767199999999999  0.1639  0.78125  1.0000
  H   H3        1.0  0.80535  0.0  0.79279  1.0000
  H   H4        1.0  0.70062  0.9148099999999998  0.62075  1.0000
  H   H5        1.0  0.08855  0.8601  0.66674  1.0000
  H   H6        1.0  0.63401  0.9752999999999997  0.67163  1.0000
  H   H7        1.0  0.03911  0.9186799999999998  0.71992  1.0000
  H   H8        1.0  0.73159  0.060489999999999995  0.84299  1.0000
  H   H9        1.0  0.50016  0.4529999999999999  0.98238  1.0000
  H   H10       1.0  0.76577  0.31145999999999996  0.97918  1.0000
  H   H11       1.0  0.47101999999999994  0.08254  0.9069299999999999  1.0000
  H   H12       1.0  0.24206999999999998  0.16724  0.8310200000000001  1.0000
  H   H13       1.0  0.0013  0.36838999999999994  0.98567  1.0000
  H   H14       1.0  0.00587  0.11289  0.8427199999999999  1.0000
  H   H15       1.0  0.24773999999999996  0.02101  0.9198300000000001  1.0000
  H   H16       1.0  0.48041  0.96012  0.91156  1.0000
  H   H17       1.0  0.72584  0.51649  0.9898999999999999  1.0000
  H   H18       1.0  0.76387  0.82605  0.92602  1.0000
  H   H19       1.0  0.69691  0.02809  0.90711  1.0000
  H   H20       1.0  0.9894299999999999  0.88755  0.92278  1.0000
  H   H21       1.0  0.53581  0.39352  0.7716  1.0000
  H   H22       1.0  0.4767199999999999  0.33611  0.71875  1.0000
  H   H23       1.0  0.80535  0.50001  0.70722  1.0000
  H   H24       1.0  0.70062  0.58519  0.87925  1.0000
  H   H25       1.0  0.08855  0.63991  0.83326  1.0000
  H   H26       1.0  0.63401  0.52471  0.8283700000000002  1.0000
  H   H27       1.0  0.03911  0.58133  0.78008  1.0000
  H   H28       1.0  0.73159  0.43952  0.65701  1.0000
  H   H29       1.0  0.50016  0.04701  0.51762  1.0000
  H   H30       1.0  0.76577  0.18855  0.52082  1.0000
  H   H31       1.0  0.47101999999999994  0.41746999999999995  0.59307  1.0000
  H   H32       1.0  0.24206999999999998  0.33277  0.66898  1.0000
  H   H33       1.0  0.0013  0.13162  0.51433  1.0000
  H   H34       1.0  0.00587  0.38711999999999996  0.65728  1.0000
  H   H35       1.0  0.24773999999999996  0.47899999999999987  0.58017  1.0000
  H   H36       1.0  0.48041  0.53989  0.58845  1.0000
  H   H37       1.0  0.72584  0.9835199999999998  0.5101  1.0000
  H   H38       1.0  0.76387  0.6739599999999999  0.57398  1.0000
  H   H39       1.0  0.69691  0.47192  0.59289  1.0000
  H   H40       1.0  0.9894299999999999  0.61245  0.57722  1.0000
  H   H41       1.0  0.96405  0.6066599999999999  0.27114  1.0000
  H   H42       1.0  0.02303  0.66427  0.21824999999999997  1.0000
  H   H43       1.0  0.69501  0.50023  0.20682  1.0000
  H   H44       1.0  0.79854  0.41447  0.37881  1.0000
  H   H45       1.0  0.41071  0.36011  0.33273  1.0000
  H   H46       1.0  0.86486  0.47560999999999987  0.3281  1.0000
  H   H47       1.0  0.4600600000000001  0.41923  0.27965  1.0000
  H   H48       1.0  0.7689  0.56081  0.15656  1.0000
  H   H49       1.0  0.00121  0.9541599999999999  0.01782  1.0000
  H   H50       1.0  0.7384  0.81187  0.0205  1.0000
  H   H51       1.0  0.028450000000000003  0.58246  0.09262  1.0000
  H   H52       1.0  0.25736  0.66691  0.16849  1.0000
  H   H53       1.0  0.50195  0.8682  0.014099999999999998  1.0000
  H   H54       1.0  0.49332  0.61221  0.15702  1.0000
  H   H55       1.0  0.25147  0.52069  0.07992  1.0000
  H   H56       1.0  0.01868  0.46034  0.08829  1.0000
  H   H57       1.0  0.77458  0.017079999999999998  0.01038  1.0000
  H   H58       1.0  0.73626  0.32606  0.07358  1.0000
  H   H59       1.0  0.80162  0.52808  0.09277  1.0000
  H   H60       1.0  0.5102  0.38731  0.07687  1.0000
  H   H61       1.0  0.96405  0.89334  0.22886  1.0000
  H   H62       1.0  0.02303  0.83573  0.28175  1.0000
  H   H63       1.0  0.69501  0.9997699999999999  0.29318  1.0000
  H   H64       1.0  0.79854  0.08553  0.12119  1.0000
  H   H65       1.0  0.41071  0.13989  0.16727  1.0000
  H   H66       1.0  0.86486  0.02439  0.17191  1.0000
  H   H67       1.0  0.4600600000000001  0.08077  0.22034999999999996  1.0000
  H   H68       1.0  0.7689  0.9391899999999999  0.34344  1.0000
  H   H69       1.0  0.00121  0.5458399999999999  0.48218  1.0000
  H   H70       1.0  0.7384  0.6881299999999999  0.4795  1.0000
  H   H71       1.0  0.028450000000000003  0.9175399999999998  0.40738  1.0000
  H   H72       1.0  0.25736  0.8330999999999998  0.33151  1.0000
  H   H73       1.0  0.50195  0.6318  0.48589999999999994  1.0000
  H   H74       1.0  0.49332  0.88779  0.34298  1.0000
  H   H75       1.0  0.25147  0.97931  0.42008  1.0000
  H   H76       1.0  0.01868  0.03966  0.41171  1.0000
  H   H77       1.0  0.77458  0.48292999999999997  0.48962  1.0000
  H   H78       1.0  0.73626  0.17394  0.42641999999999997  1.0000
  H   H79       1.0  0.80162  0.97192  0.40723  1.0000
  H   H80       1.0  0.5102  0.11268999999999997  0.42313000000000006  1.0000
  H   H81       1.0  0.46419  0.89352  0.2716  1.0000
  H   H82       1.0  0.52328  0.83611  0.21875  1.0000
  H   H83       1.0  0.19465  0.0  0.20722  1.0000
  H   H84       1.0  0.29938  0.08519  0.37925  1.0000
  H   H85       1.0  0.91145  0.13991  0.33326  1.0000
  H   H86       1.0  0.36599  0.02471  0.32837  1.0000
  H   H87       1.0  0.9608899999999999  0.08133  0.28008  1.0000
  H   H88       1.0  0.26841  0.93952  0.15701  1.0000
  H   H89       1.0  0.49984  0.54701  0.01762  1.0000
  H   H90       1.0  0.23422999999999997  0.68854  0.02082  1.0000
  H   H91       1.0  0.52898  0.91747  0.09307  1.0000
  H   H92       1.0  0.75793  0.83277  0.16898  1.0000
  H   H93       1.0  0.9987  0.63161  0.01433  1.0000
  H   H94       1.0  0.9941299999999998  0.8871199999999998  0.15728  1.0000
  H   H95       1.0  0.75226  0.9789999999999998  0.08017  1.0000
  H   H96       1.0  0.51959  0.03988  0.08845  1.0000
  H   H97       1.0  0.27416  0.48352  0.0101  1.0000
  H   H98       1.0  0.23612999999999998  0.17395999999999998  0.07398  1.0000
  H   H99       1.0  0.30309  0.97191  0.09289  1.0000
  H   H100      1.0  0.01057  0.11245  0.07722  1.0000
  H   H101      1.0  0.46419  0.60648  0.2284  1.0000
  H   H102      1.0  0.52328  0.6638999999999999  0.28125  1.0000
  H   H103      1.0  0.19465  0.5  0.29278  1.0000
  H   H104      1.0  0.29938  0.41480999999999996  0.12074999999999998  1.0000
  H   H105      1.0  0.91145  0.36008999999999997  0.16674  1.0000
  H   H106      1.0  0.36599  0.4752999999999999  0.17163  1.0000
  H   H107      1.0  0.9608899999999999  0.41867  0.21992  1.0000
  H   H108      1.0  0.26841  0.5604799999999999  0.34299  1.0000
  H   H109      1.0  0.49984  0.953  0.48238  1.0000
  H   H110      1.0  0.23422999999999997  0.81146  0.47918  1.0000
  H   H111      1.0  0.52898  0.58253  0.40693  1.0000
  H   H112      1.0  0.75793  0.66723  0.33102  1.0000
  H   H113      1.0  0.9987  0.86839  0.48567  1.0000
  H   H114      1.0  0.9941299999999998  0.61288  0.34272  1.0000
  H   H115      1.0  0.75226  0.52101  0.4198299999999999  1.0000
  H   H116      1.0  0.51959  0.46012  0.41155  1.0000
  H   H117      1.0  0.27416  0.01648  0.4899  1.0000
  H   H118      1.0  0.23612999999999998  0.32604  0.42602  1.0000
  H   H119      1.0  0.30309  0.52809  0.40711  1.0000
  H   H120      1.0  0.01057  0.38755  0.42278  1.0000
  H   H121      1.0  0.03595  0.3933499999999999  0.72886  1.0000
  H   H122      1.0  0.97697  0.33572999999999986  0.78175  1.0000
  H   H123      1.0  0.30499  0.49978  0.79318  1.0000
  H   H124      1.0  0.20146  0.58554  0.62119  1.0000
  H   H125      1.0  0.58929  0.6399  0.66727  1.0000
  H   H126      1.0  0.13514  0.5244  0.67191  1.0000
  H   H127      1.0  0.53994  0.5807699999999999  0.72035  1.0000
  H   H128      1.0  0.2311  0.4391999999999999  0.84344  1.0000
  H   H129      1.0  0.9987900000000001  0.045849999999999995  0.98218  1.0000
  H   H130      1.0  0.2616  0.18813  0.9794999999999999  1.0000
  H   H131      1.0  0.97155  0.41755  0.90738  1.0000
  H   H132      1.0  0.74264  0.3331  0.83151  1.0000
  H   H133      1.0  0.49805  0.13181  0.9859  1.0000
  H   H134      1.0  0.50668  0.3878  0.84298  1.0000
  H   H135      1.0  0.74853  0.47931  0.92008  1.0000
  H   H136      1.0  0.98132  0.53966  0.91171  1.0000
  H   H137      1.0  0.22542000000000004  0.98293  0.98962  1.0000
  H   H138      1.0  0.26374  0.67394  0.92642  1.0000
  H   H139      1.0  0.19838  0.4719299999999999  0.90723  1.0000
  H   H140      1.0  0.48980000000000007  0.6126899999999998  0.92313  1.0000
  H   H141      1.0  0.03595  0.10666  0.77114  1.0000
  H   H142      1.0  0.97697  0.16428  0.71825  1.0000
  H   H143      1.0  0.30499  0.00022999999999999993  0.70682  1.0000
  H   H144      1.0  0.20146  0.91447  0.87881  1.0000
  H   H145      1.0  0.58929  0.86011  0.83273  1.0000
  H   H146      1.0  0.13514  0.9756099999999998  0.8281  1.0000
  H   H147      1.0  0.53994  0.91923  0.77965  1.0000
  H   H148      1.0  0.2311  0.06080999999999999  0.65656  1.0000
  H   H149      1.0  0.9987900000000001  0.45416  0.51782  1.0000
  H   H150      1.0  0.2616  0.31187999999999994  0.5205  1.0000
  H   H151      1.0  0.97155  0.08246  0.59262  1.0000
  H   H152      1.0  0.74264  0.16690999999999995  0.66849  1.0000
  H   H153      1.0  0.49805  0.3682  0.5141  1.0000
  H   H154      1.0  0.50668  0.11220999999999998  0.65702  1.0000
  H   H155      1.0  0.74853  0.020699999999999993  0.57992  1.0000
  H   H156      1.0  0.98132  0.96035  0.5883  1.0000
  H   H157      1.0  0.22542000000000004  0.51708  0.51038  1.0000
  H   H158      1.0  0.26374  0.8260599999999998  0.57358  1.0000
  H   H159      1.0  0.19838  0.028079999999999997  0.59277  1.0000
  H   H160      1.0  0.48980000000000007  0.88731  0.57687  1.0000
  C   C1        1.0  0.41681  0.27089  0.8803699999999999  1.0000
  C   C2        1.0  0.40062  0.26586  0.07461  1.0000
  C   C3        1.0  0.37806  0.30548  0.90782  1.0000
  C   C4        1.0  0.36799  0.30256  0.04765  1.0000
  C   C5        1.0  0.58047  0.09533999999999997  0.75344  1.0000
  C   C6        1.0  0.54653  0.12671999999999997  0.78249  1.0000
  C   C7        1.0  0.73153  0.0356  0.78952  1.0000
  C   C8        1.0  0.67524  0.0492  0.7569  1.0000
  C   C9        1.0  0.83392  0.9517799999999998  0.69919  1.0000
  C   C10       1.0  0.77194  0.91751  0.64327  1.0000
  C   C11       1.0  0.99115  0.88701  0.66899  1.0000
  C   C12       1.0  0.73573  0.9507199999999999  0.67115  1.0000
  C   C13       1.0  0.96305  0.91893  0.69819  1.0000
  C   C14       1.0  0.69025  0.06868  0.81716  1.0000
  C   C15       1.0  0.28642  0.35638  0.91362  1.0000
  C   C16       1.0  0.34834  0.25676  0.11061  1.0000
  C   C17       1.0  0.37247  0.26498  0.84381  1.0000
  C   C18       1.0  0.28736  0.35647  0.04305  1.0000
  C   C19       1.0  0.61309  0.43664999999999987  0.98397  1.0000
  C   C20       1.0  0.76212  0.35672  0.98179  1.0000
  C   C21       1.0  0.36605  0.08682999999999999  0.89314  1.0000
  C   C22       1.0  0.23786  0.13492  0.8506700000000001  1.0000
  C   C23       1.0  0.89171  0.38799  0.98539  1.0000
  C   C24       1.0  0.10805  0.10456  0.8568899999999999  1.0000
  C   C25       1.0  0.11123  0.06285  0.8819999999999999  1.0000
  C   C26       1.0  0.24337999999999999  0.05358999999999999  0.90044  1.0000
  C   C27       1.0  0.59545  0.9460199999999999  0.91338  1.0000
  C   C28       1.0  0.87676  0.44586  0.98921  1.0000
  C   C29       1.0  0.73558  0.47111  0.98837  1.0000
  C   C30       1.0  0.75275  0.8707299999999999  0.92171  1.0000
  C   C31       1.0  0.85838  0.9614299999999998  0.9129  1.0000
  C   C32       1.0  0.71368  0.98337  0.91059  1.0000
  C   C33       1.0  0.87813  0.9046899999999998  0.92013  1.0000
  C   C34       1.0  0.41681  0.22910999999999995  0.61963  1.0000
  C   C35       1.0  0.40062  0.23413999999999993  0.42539000000000005  1.0000
  C   C36       1.0  0.37806  0.19452999999999995  0.59218  1.0000
  C   C37       1.0  0.36799  0.19744  0.45235000000000003  1.0000
  C   C38       1.0  0.58047  0.40466999999999986  0.74656  1.0000
  C   C39       1.0  0.54653  0.37329  0.71751  1.0000
  C   C40       1.0  0.73153  0.46441  0.71048  1.0000
  C   C41       1.0  0.67524  0.4507999999999999  0.7431  1.0000
  C   C42       1.0  0.83392  0.54823  0.80081  1.0000
  C   C43       1.0  0.77194  0.5825  0.8567299999999999  1.0000
  C   C44       1.0  0.99115  0.613  0.83101  1.0000
  C   C45       1.0  0.73573  0.54928  0.82885  1.0000
  C   C46       1.0  0.96305  0.58108  0.80181  1.0000
  C   C47       1.0  0.69025  0.43133  0.68284  1.0000
  C   C48       1.0  0.28642  0.14362  0.58638  1.0000
  C   C49       1.0  0.34834  0.24323999999999996  0.38939  1.0000
  C   C50       1.0  0.37247  0.23502999999999996  0.65619  1.0000
  C   C51       1.0  0.28736  0.14353  0.45695  1.0000
  C   C52       1.0  0.61309  0.06335  0.51603  1.0000
  C   C53       1.0  0.76212  0.14328  0.51821  1.0000
  C   C54       1.0  0.36605  0.41317999999999994  0.60686  1.0000
  C   C55       1.0  0.23786  0.36509  0.64933  1.0000
  C   C56       1.0  0.89171  0.11202  0.51461  1.0000
  C   C57       1.0  0.10805  0.39543999999999996  0.64312  1.0000
  C   C58       1.0  0.11123  0.43716  0.618  1.0000
  C   C59       1.0  0.24337999999999999  0.44641  0.59956  1.0000
  C   C60       1.0  0.59545  0.5539799999999999  0.58663  1.0000
  C   C61       1.0  0.87676  0.05415  0.51079  1.0000
  C   C62       1.0  0.73558  0.02889  0.51163  1.0000
  C   C63       1.0  0.75275  0.62927  0.57829  1.0000
  C   C64       1.0  0.85838  0.5385799999999998  0.5871  1.0000
  C   C65       1.0  0.71368  0.51664  0.58941  1.0000
  C   C66       1.0  0.87813  0.59531  0.57987  1.0000
  C   C67       1.0  0.08428  0.7712099999999998  0.11958  1.0000
  C   C68       1.0  0.09877  0.7655  0.92537  1.0000
  C   C69       1.0  0.12358000000000001  0.80592  0.09218  1.0000
  C   C70       1.0  0.13192  0.80256  0.9520100000000001  1.0000
  C   C71       1.0  0.91935  0.59562  0.24611  1.0000
  C   C72       1.0  0.95322  0.6271  0.21703999999999998  1.0000
  C   C73       1.0  0.76857  0.53589  0.21006  1.0000
  C   C74       1.0  0.8246  0.5495  0.24267  1.0000
  C   C75       1.0  0.66514  0.45215  0.30045  1.0000
  C   C76       1.0  0.72728  0.41738  0.35628  1.0000
  C   C77       1.0  0.5081  0.38704  0.33051  1.0000
  C   C78       1.0  0.76326  0.45094999999999996  0.3285  1.0000
  C   C79       1.0  0.53605  0.41929  0.30139  1.0000
  C   C80       1.0  0.80987  0.5690399999999999  0.1824  1.0000
  C   C81       1.0  0.21623  0.8565999999999999  0.08636  1.0000
  C   C82       1.0  0.15027  0.75629  0.88937  1.0000
  C   C83       1.0  0.12665  0.76576  0.15629  1.0000
  C   C84       1.0  0.21278  0.85651  0.9559400000000001  1.0000
  C   C85       1.0  0.88871  0.93745  0.01612  1.0000
  C   C86       1.0  0.74128  0.8571799999999998  0.01802  1.0000
  C   C87       1.0  0.13335  0.58661  0.10645  1.0000
  C   C88       1.0  0.26163  0.6345699999999999  0.14891  1.0000
  C   C89       1.0  0.6111  0.88815  0.01446  1.0000
  C   C90       1.0  0.3912  0.60407  0.1428  1.0000
  C   C91       1.0  0.38785  0.5624  0.11775000000000001  1.0000
  C   C92       1.0  0.25582  0.5532599999999999  0.09926  1.0000
  C   C93       1.0  0.90373  0.44619  0.08641  1.0000
  C   C94       1.0  0.62472  0.94612  0.01076  1.0000
  C   C95       1.0  0.76555  0.97165  0.01175  1.0000
  C   C96       1.0  0.7469  0.37073  0.07795  1.0000
  C   C97       1.0  0.64078  0.46124  0.08687  1.0000
  C   C98       1.0  0.78524  0.48336  0.08923  1.0000
  C   C99       1.0  0.62136  0.40454999999999997  0.07957  1.0000
  C   C100      1.0  0.08428  0.72879  0.38042  1.0000
  C   C101      1.0  0.09877  0.73451  0.57463  1.0000
  C   C102      1.0  0.12358000000000001  0.6940799999999998  0.40782  1.0000
  C   C103      1.0  0.13192  0.69745  0.54799  1.0000
  C   C104      1.0  0.91935  0.9043799999999997  0.25389  1.0000
  C   C105      1.0  0.95322  0.8728999999999998  0.28296  1.0000
  C   C106      1.0  0.76857  0.9641099999999998  0.28994  1.0000
  C   C107      1.0  0.8246  0.9504999999999999  0.25733  1.0000
  C   C108      1.0  0.66514  0.04785  0.19955  1.0000
  C   C109      1.0  0.72728  0.08261999999999999  0.14372  1.0000
  C   C110      1.0  0.5081  0.11296  0.16949  1.0000
  C   C111      1.0  0.76326  0.049049999999999996  0.17151  1.0000
  C   C112      1.0  0.53605  0.08072  0.19861  1.0000
  C   C113      1.0  0.80987  0.9309699999999997  0.3176  1.0000
  C   C114      1.0  0.21623  0.6434  0.41364  1.0000
  C   C115      1.0  0.15027  0.74371  0.61063  1.0000
  C   C116      1.0  0.12665  0.73424  0.34371  1.0000
  C   C117      1.0  0.21278  0.6435  0.54407  1.0000
  C   C118      1.0  0.88871  0.56256  0.48388  1.0000
  C   C119      1.0  0.74128  0.64283  0.48198  1.0000
  C   C120      1.0  0.13335  0.9133899999999999  0.39355  1.0000
  C   C121      1.0  0.26163  0.86543  0.35109  1.0000
  C   C122      1.0  0.6111  0.6118499999999999  0.48554  1.0000
  C   C123      1.0  0.3912  0.89593  0.3572  1.0000
  C   C124      1.0  0.38785  0.9376  0.38225  1.0000
  C   C125      1.0  0.25582  0.94674  0.40074  1.0000
  C   C126      1.0  0.90373  0.05381  0.41359  1.0000
  C   C127      1.0  0.62472  0.55388  0.48924  1.0000
  C   C128      1.0  0.76555  0.52835  0.48825  1.0000
  C   C129      1.0  0.7469  0.12927  0.4220499999999999  1.0000
  C   C130      1.0  0.64078  0.03876  0.41313000000000005  1.0000
  C   C131      1.0  0.78524  0.01664  0.41076999999999997  1.0000
  C   C132      1.0  0.62136  0.09544999999999997  0.42042999999999997  1.0000
  C   C133      1.0  0.58319  0.7291099999999999  0.11962999999999999  1.0000
  C   C134      1.0  0.59938  0.7341399999999998  0.9253900000000002  1.0000
  C   C135      1.0  0.62194  0.69453  0.09218  1.0000
  C   C136      1.0  0.63201  0.69744  0.95235  1.0000
  C   C137      1.0  0.41953  0.90467  0.24656  1.0000
  C   C138      1.0  0.45347  0.87328  0.21751  1.0000
  C   C139      1.0  0.26847  0.9644  0.21048  1.0000
  C   C140      1.0  0.32476  0.9508  0.24309999999999998  1.0000
  C   C141      1.0  0.16608  0.048229999999999995  0.30081  1.0000
  C   C142      1.0  0.22806000000000004  0.0825  0.35673  1.0000
  C   C143      1.0  0.00885  0.11299  0.33101  1.0000
  C   C144      1.0  0.26427  0.04928  0.32885  1.0000
  C   C145      1.0  0.03695  0.08108  0.30181  1.0000
  C   C146      1.0  0.30975  0.9313199999999998  0.18284  1.0000
  C   C147      1.0  0.71358  0.64362  0.08638  1.0000
  C   C148      1.0  0.65166  0.7432499999999999  0.8893899999999999  1.0000
  C   C149      1.0  0.62753  0.7350299999999997  0.15619  1.0000
  C   C150      1.0  0.71264  0.64353  0.95695  1.0000
  C   C151      1.0  0.38691  0.56335  0.01603  1.0000
  C   C152      1.0  0.23788  0.64328  0.01821  1.0000
  C   C153      1.0  0.63395  0.9131699999999999  0.10686  1.0000
  C   C154      1.0  0.76214  0.86508  0.14933  1.0000
  C   C155      1.0  0.10829  0.61201  0.01461  1.0000
  C   C156      1.0  0.89195  0.8954399999999998  0.14312  1.0000
  C   C157      1.0  0.88877  0.93715  0.118  1.0000
  C   C158      1.0  0.75662  0.9464099999999999  0.09956  1.0000
  C   C159      1.0  0.40455  0.05398  0.08663  1.0000
  C   C160      1.0  0.12324  0.55415  0.01079  1.0000
  C   C161      1.0  0.26442  0.52889  0.01163  1.0000
  C   C162      1.0  0.24725  0.12927  0.07829  1.0000
  C   C163      1.0  0.14162  0.03858  0.0871  1.0000
  C   C164      1.0  0.28632  0.01664  0.08941  1.0000
  C   C165      1.0  0.12187  0.09530999999999999  0.07987  1.0000
  C   C166      1.0  0.58319  0.77089  0.38037  1.0000
  C   C167      1.0  0.59938  0.7658699999999999  0.57461  1.0000
  C   C168      1.0  0.62194  0.80548  0.40782  1.0000
  C   C169      1.0  0.63201  0.80256  0.54765  1.0000
  C   C170      1.0  0.41953  0.59533  0.25344  1.0000
  C   C171      1.0  0.45347  0.62672  0.28249  1.0000
  C   C172      1.0  0.26847  0.5356  0.28952  1.0000
  C   C173      1.0  0.32476  0.5492  0.2569  1.0000
  C   C174      1.0  0.16608  0.4517699999999999  0.19919  1.0000
  C   C175      1.0  0.22806000000000004  0.41749999999999987  0.14327  1.0000
  C   C176      1.0  0.00885  0.38700999999999997  0.16899  1.0000
  C   C177      1.0  0.26427  0.45072  0.17115  1.0000
  C   C178      1.0  0.03695  0.41893  0.19819  1.0000
  C   C179      1.0  0.30975  0.56868  0.31716  1.0000
  C   C180      1.0  0.71358  0.8563799999999999  0.41361999999999993  1.0000
  C   C181      1.0  0.65166  0.7567599999999999  0.61061  1.0000
  C   C182      1.0  0.62753  0.76497  0.34381  1.0000
  C   C183      1.0  0.71264  0.85647  0.54305  1.0000
  C   C184      1.0  0.38691  0.9366499999999998  0.48397  1.0000
  C   C185      1.0  0.23788  0.85672  0.48179  1.0000
  C   C186      1.0  0.63395  0.58683  0.39314  1.0000
  C   C187      1.0  0.76214  0.63492  0.35067  1.0000
  C   C188      1.0  0.10829  0.88799  0.48539  1.0000
  C   C189      1.0  0.89195  0.60456  0.35689  1.0000
  C   C190      1.0  0.88877  0.56285  0.382  1.0000
  C   C191      1.0  0.75662  0.55359  0.40044  1.0000
  C   C192      1.0  0.40455  0.44601999999999997  0.41337000000000007  1.0000
  C   C193      1.0  0.12324  0.94586  0.4892099999999999  1.0000
  C   C194      1.0  0.26442  0.9711099999999998  0.48837  1.0000
  C   C195      1.0  0.24725  0.37073  0.42171  1.0000
  C   C196      1.0  0.14162  0.46142  0.4129  1.0000
  C   C197      1.0  0.28632  0.48336999999999997  0.41058999999999996  1.0000
  C   C198      1.0  0.12187  0.4046899999999999  0.42012999999999995  1.0000
  C   C199      1.0  0.9157200000000001  0.22878999999999997  0.8804200000000001  1.0000
  C   C200      1.0  0.9012299999999999  0.23451  0.07463  1.0000
  C   C201      1.0  0.87641  0.19408  0.90782  1.0000
  C   C202      1.0  0.86808  0.19745  0.04799  1.0000
  C   C203      1.0  0.08064  0.40439  0.75389  1.0000
  C   C204      1.0  0.04678  0.37291  0.78296  1.0000
  C   C205      1.0  0.23142999999999997  0.46411999999999987  0.78994  1.0000
  C   C206      1.0  0.1754  0.45050999999999997  0.75733  1.0000
  C   C207      1.0  0.33486  0.54785  0.69956  1.0000
  C   C208      1.0  0.27272  0.58262  0.64372  1.0000
  C   C209      1.0  0.4919  0.6129699999999999  0.66949  1.0000
  C   C210      1.0  0.23673999999999998  0.5490499999999999  0.67151  1.0000
  C   C211      1.0  0.4639499999999999  0.58072  0.69861  1.0000
  C   C212      1.0  0.19013  0.4309699999999999  0.8176  1.0000
  C   C213      1.0  0.78377  0.1434  0.9136400000000001  1.0000
  C   C214      1.0  0.84973  0.24370999999999998  0.11063  1.0000
  C   C215      1.0  0.87335  0.23424  0.8437099999999998  1.0000
  C   C216      1.0  0.78722  0.1435  0.04406  1.0000
  C   C217      1.0  0.11129  0.06256  0.98388  1.0000
  C   C218      1.0  0.25872  0.14283  0.98198  1.0000
  C   C219      1.0  0.86665  0.41339999999999993  0.8935500000000001  1.0000
  C   C220      1.0  0.73837  0.36543  0.8510899999999999  1.0000
  C   C221      1.0  0.3889  0.11186  0.98554  1.0000
  C   C222      1.0  0.6088  0.39593000000000006  0.8571999999999999  1.0000
  C   C223      1.0  0.61215  0.4376  0.88225  1.0000
  C   C224      1.0  0.74418  0.44674  0.9007400000000001  1.0000
  C   C225      1.0  0.09627  0.55381  0.9135899999999999  1.0000
  C   C226      1.0  0.37528  0.05388999999999999  0.98924  1.0000
  C   C227      1.0  0.23445  0.02835  0.98825  1.0000
  C   C228      1.0  0.2531  0.62928  0.9220499999999999  1.0000
  C   C229      1.0  0.35922  0.53877  0.91313  1.0000
  C   C230      1.0  0.21476  0.51664  0.9107699999999999  1.0000
  C   C231      1.0  0.37864  0.5954499999999999  0.92043  1.0000
  C   C232      1.0  0.9157200000000001  0.27121  0.61958  1.0000
  C   C233      1.0  0.9012299999999999  0.26548999999999995  0.42536999999999997  1.0000
  C   C234      1.0  0.87641  0.30593  0.59218  1.0000
  C   C235      1.0  0.86808  0.30255  0.45201  1.0000
  C   C236      1.0  0.08064  0.09561999999999997  0.74611  1.0000
  C   C237      1.0  0.04678  0.1271  0.71704  1.0000
  C   C238      1.0  0.23142999999999997  0.03588999999999999  0.71006  1.0000
  C   C239      1.0  0.1754  0.0495  0.74267  1.0000
  C   C240      1.0  0.33486  0.95216  0.80045  1.0000
  C   C241      1.0  0.27272  0.91738  0.85628  1.0000
  C   C242      1.0  0.4919  0.88704  0.83052  1.0000
  C   C243      1.0  0.23673999999999998  0.95096  0.8285  1.0000
  C   C244      1.0  0.4639499999999999  0.9192899999999999  0.80139  1.0000
  C   C245      1.0  0.19013  0.06904  0.6824  1.0000
  C   C246      1.0  0.78377  0.35661  0.58636  1.0000
  C   C247      1.0  0.84973  0.25629  0.38937  1.0000
  C   C248      1.0  0.87335  0.26577  0.65629  1.0000
  C   C249      1.0  0.78721  0.3565  0.45594  1.0000
  C   C250      1.0  0.11129  0.43745  0.51612  1.0000
  C   C251      1.0  0.25872  0.35718  0.51803  1.0000
  C   C252      1.0  0.86665  0.08660999999999999  0.60645  1.0000
  C   C253      1.0  0.73837  0.13458  0.64891  1.0000
  C   C254      1.0  0.3889  0.38815  0.51446  1.0000
  C   C255      1.0  0.6088  0.10408  0.6428  1.0000
  C   C256      1.0  0.61215  0.06239999999999999  0.61775  1.0000
  C   C257      1.0  0.74418  0.053259999999999995  0.59926  1.0000
  C   C258      1.0  0.09627  0.9462  0.58641  1.0000
  C   C259      1.0  0.37528  0.44612  0.51076  1.0000
  C   C260      1.0  0.23445  0.47165999999999997  0.51176  1.0000
  C   C261      1.0  0.2531  0.8707299999999999  0.57795  1.0000
  C   C262      1.0  0.35922  0.96124  0.58687  1.0000
  C   C263      1.0  0.21476  0.98337  0.58923  1.0000
  C   C264      1.0  0.37864  0.9045499999999999  0.57957  1.0000
  N   N1        1.0  0.44754  0.2839  0.02018  1.0000
  N   N2        1.0  0.59948  0.11339  0.81376  1.0000
  N   N3        1.0  0.89776  0.88665  0.64197  1.0000
  N   N4        1.0  0.52718  0.23875999999999997  0.02874  1.0000
  N   N5        1.0  0.49960000000000004  0.22802999999999995  0.06179  1.0000
  N   N6        1.0  0.51821  0.23370999999999995  0.89281  1.0000
  N   N7        1.0  0.45737  0.28641  0.93524  1.0000
  N   N8        1.0  0.54188  0.24278999999999995  0.92616  1.0000
  N   N9        1.0  0.70494  0.01889  0.72646  1.0000
  N   N10       1.0  0.80955  0.98329  0.7295  1.0000
  N   N11       1.0  0.62584  0.38064999999999993  0.98107  1.0000
  N   N12       1.0  0.36468  0.12647  0.86841  1.0000
  N   N13       1.0  0.61346  0.89049  0.91766  1.0000
  N   N14       1.0  0.00856  0.4778  0.99139  1.0000
  N   N15       1.0  0.98962  0.9931799999999997  0.9086799999999999  1.0000
  N   N16       1.0  0.9779399999999999  0.03145  0.88621  1.0000
  N   N17       1.0  0.44754  0.21609999999999996  0.47982  1.0000
  N   N18       1.0  0.59948  0.38662  0.68624  1.0000
  N   N19       1.0  0.89776  0.61335  0.8580299999999998  1.0000
  N   N20       1.0  0.52718  0.26123999999999997  0.47125999999999996  1.0000
  N   N21       1.0  0.49960000000000004  0.27197  0.43821  1.0000
  N   N22       1.0  0.51821  0.2663  0.6072  1.0000
  N   N23       1.0  0.45737  0.21358999999999997  0.56476  1.0000
  N   N24       1.0  0.54188  0.25722  0.57385  1.0000
  N   N25       1.0  0.70494  0.48112  0.77354  1.0000
  N   N26       1.0  0.80955  0.51671  0.77051  1.0000
  N   N27       1.0  0.62584  0.11935999999999997  0.51894  1.0000
  N   N28       1.0  0.36468  0.3735399999999999  0.63159  1.0000
  N   N29       1.0  0.61346  0.60952  0.58234  1.0000
  N   N30       1.0  0.00856  0.022209999999999994  0.50861  1.0000
  N   N31       1.0  0.98962  0.50683  0.59132  1.0000
  N   N32       1.0  0.9779399999999999  0.46855  0.61379  1.0000
  N   N33       1.0  0.05369  0.78416  0.97976  1.0000
  N   N34       1.0  0.9003400000000001  0.61381  0.18577  1.0000
  N   N35       1.0  0.60168  0.38636  0.3575  1.0000
  N   N36       1.0  0.97435  0.73873  0.9716500000000001  1.0000
  N   N37       1.0  0.0009200000000000001  0.7276199999999999  0.93862  1.0000
  N   N38       1.0  0.98436  0.73373  0.10695  1.0000
  N   N39       1.0  0.04594  0.78663  0.06461  1.0000
  N   N40       1.0  0.96192  0.74276  0.07355  1.0000
  N   N41       1.0  0.79475  0.51912  0.27311  1.0000
  N   N42       1.0  0.68948  0.48380999999999996  0.27014  1.0000
  N   N43       1.0  0.87727  0.88136  0.01886  1.0000
  N   N44       1.0  0.13493  0.62622  0.13112  1.0000
  N   N45       1.0  0.88598  0.3906899999999999  0.08205  1.0000
  N   N46       1.0  0.49207999999999996  0.9777199999999998  0.0086  1.0000
  N   N47       1.0  0.50948  0.4928899999999999  0.09107  1.0000
  N   N48       1.0  0.52094  0.53093  0.11362  1.0000
  N   N49       1.0  0.05369  0.71585  0.52024  1.0000
  N   N50       1.0  0.9003400000000001  0.8861899999999998  0.31423  1.0000
  N   N51       1.0  0.60168  0.11363999999999999  0.1425  1.0000
  N   N52       1.0  0.97435  0.76128  0.52835  1.0000
  N   N53       1.0  0.0009200000000000001  0.7723899999999999  0.56138  1.0000
  N   N54       1.0  0.98436  0.7662699999999999  0.39305  1.0000
  N   N55       1.0  0.04594  0.7133699999999997  0.43539000000000005  1.0000
  N   N56       1.0  0.96192  0.7572399999999999  0.42645  1.0000
  N   N57       1.0  0.79475  0.9808799999999999  0.22688999999999998  1.0000
  N   N58       1.0  0.68948  0.01619  0.22986  1.0000
  N   N59       1.0  0.87727  0.61864  0.48113999999999996  1.0000
  N   N60       1.0  0.13493  0.8737799999999998  0.36888  1.0000
  N   N61       1.0  0.88598  0.10930999999999998  0.41795000000000004  1.0000
  N   N62       1.0  0.49207999999999996  0.52229  0.49140000000000006  1.0000
  N   N63       1.0  0.50948  0.00711  0.40893  1.0000
  N   N64       1.0  0.52094  0.96907  0.38638  1.0000
  N   N65       1.0  0.55246  0.7160999999999997  0.9798199999999999  1.0000
  N   N66       1.0  0.40052  0.88662  0.18624  1.0000
  N   N67       1.0  0.10224  0.11335  0.35803  1.0000
  N   N68       1.0  0.47282  0.76124  0.97126  1.0000
  N   N69       1.0  0.5004  0.77198  0.93821  1.0000
  N   N70       1.0  0.48179  0.7663  0.10719000000000001  1.0000
  N   N71       1.0  0.54263  0.7135899999999997  0.06476  1.0000
  N   N72       1.0  0.45812  0.75721  0.07385  1.0000
  N   N73       1.0  0.29506  0.98112  0.27354  1.0000
  N   N74       1.0  0.19045  0.01671  0.27051  1.0000
  N   N75       1.0  0.37416  0.61935  0.01894  1.0000
  N   N76       1.0  0.63532  0.87353  0.13159  1.0000
  N   N77       1.0  0.38654  0.10951  0.08234  1.0000
  N   N78       1.0  0.99144  0.5221999999999999  0.00861  1.0000
  N   N79       1.0  0.01038  0.00683  0.09132  1.0000
  N   N80       1.0  0.02206  0.9685499999999999  0.11379  1.0000
  N   N81       1.0  0.55246  0.78391  0.52018  1.0000
  N   N82       1.0  0.40052  0.61338  0.31376  1.0000
  N   N83       1.0  0.10224  0.38665  0.14197  1.0000
  N   N84       1.0  0.47282  0.73877  0.52874  1.0000
  N   N85       1.0  0.5004  0.7280299999999997  0.56179  1.0000
  N   N86       1.0  0.48179  0.7336999999999998  0.39281  1.0000
  N   N87       1.0  0.54263  0.78641  0.43524  1.0000
  N   N88       1.0  0.45812  0.74279  0.4261599999999999  1.0000
  N   N89       1.0  0.29506  0.51888  0.22646  1.0000
  N   N90       1.0  0.19045  0.4832899999999999  0.22949000000000003  1.0000
  N   N91       1.0  0.37416  0.88065  0.48105999999999993  1.0000
  N   N92       1.0  0.63532  0.6264699999999999  0.36841  1.0000
  N   N93       1.0  0.38654  0.3904899999999999  0.41766  1.0000
  N   N94       1.0  0.99144  0.9777999999999999  0.49139  1.0000
  N   N95       1.0  0.01038  0.49316999999999994  0.40868  1.0000
  N   N96       1.0  0.02206  0.53145  0.38621  1.0000
  N   N97       1.0  0.94631  0.21584999999999993  0.02024  1.0000
  N   N98       1.0  0.09966  0.38619  0.81423  1.0000
  N   N99       1.0  0.39832  0.61364  0.6425  1.0000
  N   N100      1.0  0.02565  0.26128  0.028349999999999997  1.0000
  N   N101      1.0  0.9990799999999999  0.27238999999999997  0.061380000000000004  1.0000
  N   N102      1.0  0.01564  0.26628  0.89305  1.0000
  N   N103      1.0  0.9540600000000001  0.21338  0.9353900000000002  1.0000
  N   N104      1.0  0.03808  0.2572499999999999  0.92646  1.0000
  N   N105      1.0  0.20525  0.48088999999999993  0.72689  1.0000
  N   N106      1.0  0.31052  0.5162  0.72986  1.0000
  N   N107      1.0  0.12272999999999999  0.11864  0.98114  1.0000
  N   N108      1.0  0.86507  0.37379  0.86889  1.0000
  N   N109      1.0  0.11402  0.6093199999999999  0.91795  1.0000
  N   N110      1.0  0.50792  0.02229  0.9913999999999998  1.0000
  N   N111      1.0  0.49052  0.50711  0.90893  1.0000
  N   N112      1.0  0.47905999999999993  0.46906999999999993  0.88638  1.0000
  N   N113      1.0  0.94631  0.28416  0.47976  1.0000
  N   N114      1.0  0.09966  0.11382  0.68577  1.0000
  N   N115      1.0  0.39832  0.8863599999999999  0.8575  1.0000
  N   N116      1.0  0.02565  0.23871999999999993  0.47165  1.0000
  N   N117      1.0  0.9990799999999999  0.22760999999999998  0.43861999999999995  1.0000
  N   N118      1.0  0.01564  0.23372999999999997  0.60695  1.0000
  N   N119      1.0  0.9540600000000001  0.28663  0.56461  1.0000
  N   N120      1.0  0.03808  0.24276  0.57355  1.0000
  N   N121      1.0  0.20525  0.019119999999999995  0.77311  1.0000
  N   N122      1.0  0.31052  0.98381  0.77014  1.0000
  N   N123      1.0  0.12272999999999999  0.38137  0.51886  1.0000
  N   N124      1.0  0.86507  0.12622  0.63112  1.0000
  N   N125      1.0  0.11402  0.8906899999999998  0.58205  1.0000
  N   N126      1.0  0.50792  0.4777199999999999  0.5086  1.0000
  N   N127      1.0  0.49052  0.9928999999999999  0.59107  1.0000
  N   N128      1.0  0.47905999999999993  0.03093  0.61362  1.0000
  O   O1        1.0  0.41185  0.21686999999999998  0.12683  1.0000
  O   O2        1.0  0.44446  0.22871  0.8262899999999999  1.0000
  O   O3        1.0  0.30362  0.38047  0.9425099999999998  1.0000
  O   O4        1.0  0.19956  0.3752599999999999  0.8904300000000002  1.0000
  O   O5        1.0  0.26757  0.29436  0.8316100000000001  1.0000
  O   O6        1.0  0.30395  0.38053  0.01406  1.0000
  O   O7        1.0  0.24449  0.28635  0.12294  1.0000
  O   O8        1.0  0.21448  0.3779199999999999  0.06776  1.0000
  O   O9        1.0  0.41185  0.28313  0.37317  1.0000
  O   O10       1.0  0.44446  0.2713  0.67371  1.0000
  O   O11       1.0  0.30362  0.11952999999999997  0.55749  1.0000
  O   O12       1.0  0.19956  0.12474999999999999  0.60957  1.0000
  O   O13       1.0  0.26757  0.20565  0.66839  1.0000
  O   O14       1.0  0.30395  0.11947  0.4859399999999999  1.0000
  O   O15       1.0  0.24449  0.21365999999999993  0.37706  1.0000
  O   O16       1.0  0.21448  0.12208  0.43224  1.0000
  O   O17       1.0  0.08848  0.71602  0.87334  1.0000
  O   O18       1.0  0.05876  0.72816  0.1736  1.0000
  O   O19       1.0  0.1999  0.8805599999999998  0.057339999999999995  1.0000
  O   O20       1.0  0.30342  0.87526  0.10949  1.0000
  O   O21       1.0  0.22658  0.79721  0.1687  1.0000
  O   O22       1.0  0.19914  0.88065  0.98492  1.0000
  O   O23       1.0  0.2525  0.78642  0.8767699999999999  1.0000
  O   O24       1.0  0.2827  0.8777399999999999  0.9306799999999998  1.0000
  O   O25       1.0  0.08848  0.78399  0.62666  1.0000
  O   O26       1.0  0.05876  0.77184  0.3264  1.0000
  O   O27       1.0  0.1999  0.61944  0.44266  1.0000
  O   O28       1.0  0.30342  0.62474  0.39051  1.0000
  O   O29       1.0  0.22658  0.7027899999999999  0.33131  1.0000
  O   O30       1.0  0.19914  0.61936  0.51508  1.0000
  O   O31       1.0  0.2525  0.7135899999999997  0.62323  1.0000
  O   O32       1.0  0.2827  0.62227  0.56932  1.0000
  O   O33       1.0  0.58815  0.7831399999999998  0.87317  1.0000
  O   O34       1.0  0.55554  0.7712899999999999  0.17371  1.0000
  O   O35       1.0  0.69638  0.6195299999999999  0.05749  1.0000
  O   O36       1.0  0.80044  0.62475  0.10957  1.0000
  O   O37       1.0  0.73243  0.70564  0.16839  1.0000
  O   O38       1.0  0.69605  0.61948  0.9859400000000001  1.0000
  O   O39       1.0  0.75551  0.71366  0.87706  1.0000
  O   O40       1.0  0.78551  0.62209  0.9322400000000001  1.0000
  O   O41       1.0  0.58815  0.71687  0.62683  1.0000
  O   O42       1.0  0.55554  0.72871  0.32629  1.0000
  O   O43       1.0  0.69638  0.8804699999999999  0.44250999999999996  1.0000
  O   O44       1.0  0.80044  0.87525  0.39043  1.0000
  O   O45       1.0  0.73243  0.7943599999999998  0.33161  1.0000
  O   O46       1.0  0.69605  0.88053  0.51406  1.0000
  O   O47       1.0  0.75551  0.7863499999999999  0.62294  1.0000
  O   O48       1.0  0.78551  0.8779199999999998  0.56776  1.0000
  O   O49       1.0  0.91152  0.28397999999999995  0.12666  1.0000
  O   O50       1.0  0.94124  0.27185  0.8264  1.0000
  O   O51       1.0  0.8001  0.11943999999999999  0.94266  1.0000
  O   O52       1.0  0.69658  0.12473999999999998  0.89051  1.0000
  O   O53       1.0  0.77342  0.20279  0.83131  1.0000
  O   O54       1.0  0.80086  0.11935  0.01508  1.0000
  O   O55       1.0  0.7475  0.21358999999999997  0.12323  1.0000
  O   O56       1.0  0.7173  0.12226999999999998  0.06932  1.0000
  O   O57       1.0  0.91152  0.21602  0.37334  1.0000
  O   O58       1.0  0.94124  0.22815999999999997  0.6736  1.0000
  O   O59       1.0  0.8001  0.38055999999999995  0.55734  1.0000
  O   O60       1.0  0.69658  0.37527  0.60949  1.0000
  O   O61       1.0  0.77342  0.29721  0.6687  1.0000
  O   O62       1.0  0.80086  0.38064999999999993  0.48492  1.0000
  O   O63       1.0  0.7475  0.28642  0.37677  1.0000
  O   O64       1.0  0.7173  0.37773  0.43068  1.0000
