data_image0
_chemical_formula_structural       Zn16H224C208N16O64
_chemical_formula_sum              "Zn16 H224 C208 N16 O64"
_cell_length_a       21.93421
_cell_length_b       21.93386
_cell_length_c       24.49348
_cell_angle_alpha    116.4976
_cell_angle_beta     116.50326
_cell_angle_gamma    90.00821

_symmetry_space_group_name_H-M    'P 1'
_symmetry_Int_Tables_number       1

loop_
  _symmetry_equiv_pos_as_xyz
  'x,y,z'

loop_
  _atom_site_type_symbol
  _atom_site_label
  _atom_site_symmetry_multiplicity
  _atom_site_fract_x
  _atom_site_fract_y
  _atom_site_fract_z
  _atom_site_occupancy
  Zn  Zn1       1.0  0.13959000000000005  0.88506  0.8229799999999999  1.0000
  Zn  Zn2       1.0  0.6821999999999999  0.43753999999999993  0.8228599999999999  1.0000
  Zn  Zn3       1.0  0.8850400000000002  0.68231  0.32284999999999997  1.0000
  Zn  Zn4       1.0  0.43763  0.13967000000000002  0.32301  1.0000
  Zn  Zn5       1.0  0.3603300000000001  0.06237999999999999  0.17699  1.0000
  Zn  Zn6       1.0  0.81769  0.61496  0.17715  1.0000
  Zn  Zn7       1.0  0.61495  0.36042  0.67703  1.0000
  Zn  Zn8       1.0  0.06247000000000003  0.8178  0.67714  1.0000
  Zn  Zn9       1.0  0.8604199999999999  0.11495  0.17702  1.0000
  Zn  Zn10      1.0  0.31779999999999997  0.56247  0.17713999999999994  1.0000
  Zn  Zn11      1.0  0.11495999999999999  0.3177  0.67715  1.0000
  Zn  Zn12      1.0  0.56237  0.8603300000000003  0.6769899999999999  1.0000
  Zn  Zn13      1.0  0.63967  0.93763  0.82301  1.0000
  Zn  Zn14      1.0  0.1823099999999999  0.38504999999999984  0.8228499999999997  1.0000
  Zn  Zn15      1.0  0.38505  0.63959  0.32297  1.0000
  Zn  Zn16      1.0  0.9375299999999999  0.18219999999999997  0.3228599999999999  1.0000
  H   H1        1.0  0.12408999999999992  0.9581800000000001  0.95201  1.0000
  H   H2        1.0  0.16557999999999995  0.02421999999999985  0.9482699999999997  1.0000
  H   H3        1.0  0.24489999999999998  0.84771  0.9306599999999999  1.0000
  H   H4        1.0  0.17373000000000002  0.8580100000000002  0.9468699999999999  1.0000
  H   H5        1.0  0.2625799999999999  0.009229999999999922  0.9261899999999997  1.0000
  H   H6        1.0  0.2987800000000001  0.93678  0.92433  1.0000
  H   H7        1.0  0.08902999999999986  0.98389  0.6489899999999997  1.0000
  H   H8        1.0  0.2091600000000001  0.11036999999999991  0.91473  1.0000
  H   H9        1.0  0.11878999999999995  0.08696999999999996  0.8850399999999999  1.0000
  H   H10       1.0  0.16140999999999997  0.17645  0.9231799999999999  1.0000
  H   H11       1.0  0.16486  0.22038000000000002  0.8537  1.0000
  H   H12       1.0  0.04499000000000001  0.09148  0.58672  1.0000
  H   H13       1.0  0.13543000000000005  0.11752  0.61792  1.0000
  H   H14       1.0  0.09524  0.027440000000000003  0.58074  1.0000
  H   H15       1.0  0.82732  0.49342999999999987  0.9512599999999999  1.0000
  H   H16       1.0  0.78259  0.42397999999999997  0.9482999999999999  1.0000
  H   H17       1.0  0.68552  0.5827600000000001  0.9303699999999999  1.0000
  H   H18       1.0  0.77265  0.58823  0.9460299999999999  1.0000
  H   H19       1.0  0.66393  0.41742000000000007  0.9274099999999998  1.0000
  H   H20       1.0  0.6257499999999999  0.48786999999999997  0.9253399999999999  1.0000
  H   H21       1.0  0.56015  0.16583000000000006  0.64922  1.0000
  H   H22       1.0  0.70556  0.3039799999999999  0.9149199999999998  1.0000
  H   H23       1.0  0.76619  0.2976799999999999  0.8849899999999999  1.0000
  H   H24       1.0  0.76168  0.24618  0.92313  1.0000
  H   H25       1.0  0.68881  0.13308000000000006  0.85361  1.0000
  H   H26       1.0  0.54197  0.99589  0.58689  1.0000
  H   H27       1.0  0.48288999999999993  0.0012899999999999672  0.6184099999999999  1.0000
  H   H28       1.0  0.48580000000000007  0.05399999999999999  0.58091  1.0000
  H   H29       1.0  0.9576299999999999  0.82724  0.45103  1.0000
  H   H30       1.0  0.023869999999999985  0.78232  0.4476399999999999  1.0000
  H   H31       1.0  0.8477200000000001  0.6857700000000002  0.43088  1.0000
  H   H32       1.0  0.85797  0.7729  0.44652999999999987  1.0000
  H   H33       1.0  0.009549999999999998  0.6637  0.42677  1.0000
  H   H34       1.0  0.9372799999999999  0.6256700000000001  0.42516  1.0000
  H   H35       1.0  0.9840500000000001  0.56008  0.14912  1.0000
  H   H36       1.0  0.11043000000000001  0.7055  0.41472  1.0000
  H   H37       1.0  0.08688999999999995  0.76607  0.38478999999999997  1.0000
  H   H38       1.0  0.17641999999999997  0.76172  0.42308999999999997  1.0000
  H   H39       1.0  0.22049  0.68885  0.35369  1.0000
  H   H40       1.0  0.09156  0.54184  0.08672999999999999  1.0000
  H   H41       1.0  0.11781  0.48279  0.11828  1.0000
  H   H42       1.0  0.027689999999999996  0.4857  0.08101  1.0000
  H   H43       1.0  0.49384999999999996  0.12422999999999994  0.4522699999999999  1.0000
  H   H44       1.0  0.42428  0.16591  0.44895  1.0000
  H   H45       1.0  0.58258  0.24462999999999993  0.43016  1.0000
  H   H46       1.0  0.58852  0.17345  0.44639  1.0000
  H   H47       1.0  0.41717000000000004  0.26294  0.42684  1.0000
  H   H48       1.0  0.48754999999999993  0.29887  0.4245199999999999  1.0000
  H   H49       1.0  0.1658  0.08905  0.14905  1.0000
  H   H50       1.0  0.30404999999999993  0.20927999999999994  0.4148799999999999  1.0000
  H   H51       1.0  0.29785  0.11884999999999993  0.3852099999999999  1.0000
  H   H52       1.0  0.24626999999999996  0.16149  0.42321  1.0000
  H   H53       1.0  0.13323  0.16477  0.35363  1.0000
  H   H54       1.0  0.9959100000000001  0.045000000000000005  0.08685999999999999  1.0000
  H   H55       1.0  0.001189999999999995  0.13545  0.11807999999999999  1.0000
  H   H56       1.0  0.05392  0.09503  0.08064  1.0000
  H   H57       1.0  0.37577  0.006150000000000004  0.04773  1.0000
  H   H58       1.0  0.33409  0.07572999999999999  0.051049999999999984  1.0000
  H   H59       1.0  0.25538  0.91742  0.06983  1.0000
  H   H60       1.0  0.32654  0.9114800000000001  0.0536  1.0000
  H   H61       1.0  0.23707000000000003  0.08284  0.07316  1.0000
  H   H62       1.0  0.20113000000000003  0.01244  0.07548  1.0000
  H   H63       1.0  0.41094  0.33420000000000005  0.35094  1.0000
  H   H64       1.0  0.29072  0.19595  0.08512  1.0000
  H   H65       1.0  0.38115  0.20216  0.1148  1.0000
  H   H66       1.0  0.33851  0.25374  0.07679  1.0000
  H   H67       1.0  0.33524  0.36678  0.14637  1.0000
  H   H68       1.0  0.45501  0.5041  0.41313  1.0000
  H   H69       1.0  0.36454  0.4988100000000001  0.38191  1.0000
  H   H70       1.0  0.40496999999999994  0.44608  0.41935999999999996  1.0000
  H   H71       1.0  0.67277  0.54238  0.04897  1.0000
  H   H72       1.0  0.71768  0.47613  0.05236  1.0000
  H   H73       1.0  0.81423  0.65228  0.06912  1.0000
  H   H74       1.0  0.7271  0.64203  0.05346999999999998  1.0000
  H   H75       1.0  0.8363100000000001  0.49045000000000005  0.07322999999999999  1.0000
  H   H76       1.0  0.87434  0.56272  0.07484  1.0000
  H   H77       1.0  0.93993  0.51595  0.35087999999999997  1.0000
  H   H78       1.0  0.7945  0.38957  0.08527  1.0000
  H   H79       1.0  0.73393  0.41311  0.11519999999999998  1.0000
  H   H80       1.0  0.7382900000000001  0.32358  0.07689999999999998  1.0000
  H   H81       1.0  0.81116  0.27951  0.14631  1.0000
  H   H82       1.0  0.9581699999999999  0.40843999999999997  0.41326999999999997  1.0000
  H   H83       1.0  0.017219999999999958  0.38220000000000004  0.38173  1.0000
  H   H84       1.0  0.014299999999999936  0.47231  0.41898999999999986  1.0000
  H   H85       1.0  0.54183  0.37591  0.54798  1.0000
  H   H86       1.0  0.47579  0.3344300000000001  0.55172  1.0000
  H   H87       1.0  0.6523  0.2551  0.56933  1.0000
  H   H88       1.0  0.6420000000000002  0.32628  0.55312  1.0000
  H   H89       1.0  0.49078  0.23743  0.57381  1.0000
  H   H90       1.0  0.56322  0.20121999999999995  0.5756599999999998  1.0000
  H   H91       1.0  0.51611  0.4109799999999999  0.8509999999999999  1.0000
  H   H92       1.0  0.3896299999999998  0.2908499999999999  0.5852699999999997  1.0000
  H   H93       1.0  0.41303999999999996  0.38121999999999984  0.6149599999999997  1.0000
  H   H94       1.0  0.32356  0.33859  0.57682  1.0000
  H   H95       1.0  0.27963  0.33515  0.6463  1.0000
  H   H96       1.0  0.40853  0.45502  0.91328  1.0000
  H   H97       1.0  0.3824799999999998  0.36456999999999995  0.8820699999999999  1.0000
  H   H98       1.0  0.4725599999999999  0.40477  0.9192599999999999  1.0000
  H   H99       1.0  0.006579999999999968  0.67269  0.54874  1.0000
  H   H100      1.0  0.07601999999999998  0.7174100000000002  0.5517  1.0000
  H   H101      1.0  0.91725  0.8145  0.56963  1.0000
  H   H102      1.0  0.91178  0.72736  0.55397  1.0000
  H   H103      1.0  0.08259  0.83607  0.57259  1.0000
  H   H104      1.0  0.012130000000000004  0.87426  0.57466  1.0000
  H   H105      1.0  0.33417000000000013  0.9398600000000001  0.85078  1.0000
  H   H106      1.0  0.19602000000000003  0.79445  0.58508  1.0000
  H   H107      1.0  0.20232999999999998  0.7338200000000001  0.6150099999999998  1.0000
  H   H108      1.0  0.25382999999999994  0.73833  0.5768599999999998  1.0000
  H   H109      1.0  0.3669299999999999  0.8111899999999999  0.6463799999999998  1.0000
  H   H110      1.0  0.50412  0.95804  0.91311  1.0000
  H   H111      1.0  0.49872  0.01710999999999997  0.8816  1.0000
  H   H112      1.0  0.4459999999999999  0.014209999999999987  0.9190899999999999  1.0000
  H   H113      1.0  0.87591  0.04183  0.04798  1.0000
  H   H114      1.0  0.83443  0.9757900000000002  0.05173  1.0000
  H   H115      1.0  0.7551  0.15229  0.06934  1.0000
  H   H116      1.0  0.82628  0.142  0.053119999999999994  1.0000
  H   H117      1.0  0.73742  0.99078  0.07380999999999997  1.0000
  H   H118      1.0  0.70122  0.06322  0.07567  1.0000
  H   H119      1.0  0.91098  0.016109999999999996  0.35101  1.0000
  H   H120      1.0  0.7908499999999999  0.88964  0.08527  1.0000
  H   H121      1.0  0.88121  0.91304  0.11495999999999999  1.0000
  H   H122      1.0  0.83859  0.82356  0.07682  1.0000
  H   H123      1.0  0.83514  0.77963  0.1463  1.0000
  H   H124      1.0  0.9550100000000001  0.9085299999999998  0.4132799999999999  1.0000
  H   H125      1.0  0.86457  0.88249  0.38208  1.0000
  H   H126      1.0  0.90477  0.9725600000000001  0.41926  1.0000
  H   H127      1.0  0.17268999999999998  0.50657  0.04874  1.0000
  H   H128      1.0  0.21741  0.57602  0.051699999999999996  1.0000
  H   H129      1.0  0.31449  0.41724  0.06962999999999997  1.0000
  H   H130      1.0  0.22735999999999998  0.41178  0.05396999999999999  1.0000
  H   H131      1.0  0.33607  0.58259  0.07259  1.0000
  H   H132      1.0  0.37425  0.51213  0.07466  1.0000
  H   H133      1.0  0.4398500000000001  0.83417  0.35078  1.0000
  H   H134      1.0  0.29444  0.69602  0.08507999999999998  1.0000
  H   H135      1.0  0.23381  0.70233  0.11501  1.0000
  H   H136      1.0  0.23832  0.75383  0.07686999999999997  1.0000
  H   H137      1.0  0.31119  0.86693  0.14639  1.0000
  H   H138      1.0  0.45803999999999995  0.00411999999999995  0.41310999999999987  1.0000
  H   H139      1.0  0.51711  0.9987200000000002  0.38159  1.0000
  H   H140      1.0  0.5142099999999998  0.94601  0.41908999999999996  1.0000
  H   H141      1.0  0.04237999999999998  0.17277000000000006  0.54897  1.0000
  H   H142      1.0  0.97614  0.21768  0.55236  1.0000
  H   H143      1.0  0.15228  0.31423  0.56912  1.0000
  H   H144      1.0  0.14203  0.2271  0.55347  1.0000
  H   H145      1.0  0.9904499999999998  0.33631  0.5732299999999998  1.0000
  H   H146      1.0  0.06273000000000002  0.37434  0.57484  1.0000
  H   H147      1.0  0.01594999999999995  0.43993000000000004  0.85088  1.0000
  H   H148      1.0  0.8895699999999999  0.29451  0.58528  1.0000
  H   H149      1.0  0.91312  0.23394  0.61521  1.0000
  H   H150      1.0  0.8235800000000001  0.23828999999999995  0.5769099999999999  1.0000
  H   H151      1.0  0.7795100000000001  0.31116  0.6463099999999999  1.0000
  H   H152      1.0  0.90844  0.45816  0.9132599999999998  1.0000
  H   H153      1.0  0.8821899999999999  0.5172199999999999  0.8817199999999998  1.0000
  H   H154      1.0  0.97231  0.5143099999999999  0.9189899999999999  1.0000
  H   H155      1.0  0.50615  0.87578  0.54773  1.0000
  H   H156      1.0  0.57573  0.8340900000000001  0.55105  1.0000
  H   H157      1.0  0.41742  0.75538  0.56983  1.0000
  H   H158      1.0  0.41148999999999997  0.82655  0.5535999999999998  1.0000
  H   H159      1.0  0.5828399999999999  0.7370699999999999  0.5731599999999998  1.0000
  H   H160      1.0  0.51245  0.7011400000000002  0.57548  1.0000
  H   H161      1.0  0.8342100000000001  0.91095  0.85094  1.0000
  H   H162      1.0  0.69595  0.79072  0.58512  1.0000
  H   H163      1.0  0.7021499999999999  0.88115  0.61479  1.0000
  H   H164      1.0  0.7537400000000001  0.83852  0.57678  1.0000
  H   H165      1.0  0.8667799999999999  0.83524  0.64637  1.0000
  H   H166      1.0  0.0040999999999999995  0.95501  0.91313  1.0000
  H   H167      1.0  0.9988099999999999  0.86455  0.8819199999999999  1.0000
  H   H168      1.0  0.9460799999999999  0.9049699999999999  0.9193599999999997  1.0000
  H   H169      1.0  0.62423  0.99386  0.9522699999999998  1.0000
  H   H170      1.0  0.66591  0.9242800000000001  0.94894  1.0000
  H   H171      1.0  0.74463  0.08257999999999995  0.9301599999999999  1.0000
  H   H172      1.0  0.67346  0.08852  0.9464  1.0000
  H   H173      1.0  0.7629299999999999  0.9171699999999999  0.9268299999999998  1.0000
  H   H174      1.0  0.79887  0.98757  0.92452  1.0000
  H   H175      1.0  0.5890599999999999  0.6658099999999999  0.6490599999999997  1.0000
  H   H176      1.0  0.70929  0.80405  0.91488  1.0000
  H   H177      1.0  0.61885  0.7978500000000001  0.8852  1.0000
  H   H178      1.0  0.66149  0.7462700000000001  0.9232099999999999  1.0000
  H   H179      1.0  0.6647600000000001  0.63323  0.85362  1.0000
  H   H180      1.0  0.545  0.49591  0.58687  1.0000
  H   H181      1.0  0.63546  0.5012  0.61809  1.0000
  H   H182      1.0  0.59504  0.55393  0.58064  1.0000
  H   H183      1.0  0.32723  0.45763  0.9510199999999999  1.0000
  H   H184      1.0  0.2823199999999999  0.5238699999999998  0.9476399999999998  1.0000
  H   H185      1.0  0.18576999999999988  0.34772999999999993  0.9308799999999999  1.0000
  H   H186      1.0  0.27289999999999986  0.35798000000000013  0.94652  1.0000
  H   H187      1.0  0.16369000000000003  0.5095600000000002  0.92677  1.0000
  H   H188      1.0  0.12566999999999998  0.43728  0.92516  1.0000
  H   H189      1.0  0.060080000000000015  0.48405000000000004  0.64912  1.0000
  H   H190      1.0  0.20550000000000007  0.61044  0.91473  1.0000
  H   H191      1.0  0.2660699999999999  0.5868999999999999  0.8847999999999999  1.0000
  H   H192      1.0  0.2617199999999999  0.67643  0.9231  1.0000
  H   H193      1.0  0.1888399999999999  0.7204999999999999  0.8536899999999998  1.0000
  H   H194      1.0  0.0418399999999999  0.59157  0.5867299999999998  1.0000
  H   H195      1.0  0.98279  0.6178100000000001  0.61827  1.0000
  H   H196      1.0  0.9857  0.52769  0.5810099999999999  1.0000
  H   H197      1.0  0.45817  0.6240999999999999  0.45201999999999987  1.0000
  H   H198      1.0  0.52421  0.66558  0.44827  1.0000
  H   H199      1.0  0.34770999999999996  0.7449000000000001  0.4306699999999999  1.0000
  H   H200      1.0  0.358  0.67373  0.44687  1.0000
  H   H201      1.0  0.50922  0.76258  0.42619  1.0000
  H   H202      1.0  0.43678  0.79879  0.42433999999999994  1.0000
  H   H203      1.0  0.48389  0.58903  0.149  1.0000
  H   H204      1.0  0.61037  0.70916  0.41473  1.0000
  H   H205      1.0  0.58697  0.61879  0.38504  1.0000
  H   H206      1.0  0.67645  0.66142  0.42318  1.0000
  H   H207      1.0  0.72037  0.66486  0.3537  1.0000
  H   H208      1.0  0.59148  0.54499  0.08672  1.0000
  H   H209      1.0  0.61752  0.63544  0.11793  1.0000
  H   H210      1.0  0.52744  0.59524  0.08074  1.0000
  H   H211      1.0  0.99343  0.32731999999999994  0.45125999999999994  1.0000
  H   H212      1.0  0.92398  0.2826  0.4482999999999999  1.0000
  H   H213      1.0  0.08275  0.18550999999999995  0.4303699999999999  1.0000
  H   H214      1.0  0.08822000000000002  0.27265  0.44603  1.0000
  H   H215      1.0  0.91742  0.16394  0.42741  1.0000
  H   H216      1.0  0.98787  0.12575  0.42534  1.0000
  H   H217      1.0  0.66583  0.06015  0.14921  1.0000
  H   H218      1.0  0.80398  0.20556  0.41492  1.0000
  H   H219      1.0  0.7976799999999998  0.26619  0.38498999999999994  1.0000
  H   H220      1.0  0.74617  0.26168  0.4231299999999999  1.0000
  H   H221      1.0  0.63308  0.18882  0.35362  1.0000
  H   H222      1.0  0.49589  0.04196  0.08689  1.0000
  H   H223      1.0  0.50128  0.9828900000000002  0.11839999999999999  1.0000
  H   H224      1.0  0.554  0.9858  0.08091  1.0000
  C   C1        1.0  0.17528999999999995  0.9876000000000001  0.96862  1.0000
  C   C2        1.0  0.22379999999999992  0.88632  0.9600099999999998  1.0000
  C   C3        1.0  0.2756399999999999  0.9758599999999998  0.9502999999999998  1.0000
  C   C4        1.0  0.11018999999999984  0.97533  0.7590399999999998  1.0000
  C   C5        1.0  0.11929000000000008  0.042400000000000014  0.7578  1.0000
  C   C6        1.0  0.10532999999999988  0.03652999999999988  0.6936699999999998  1.0000
  C   C7        1.0  0.14182999999999996  0.10968999999999988  0.8176699999999998  1.0000
  C   C8        1.0  0.15846000000000005  0.12166000000000009  0.88901  1.0000
  C   C9        1.0  0.14154999999999987  0.22930999999999988  0.7435599999999998  1.0000
  C   C10       1.0  0.13373999999999991  0.16192000000000004  0.74468  1.0000
  C   C11       1.0  0.14819999999999992  0.1677099999999999  0.8089699999999997  1.0000
  C   C12       1.0  0.11204999999999987  0.09455999999999988  0.6850199999999997  1.0000
  C   C13       1.0  0.09635999999999996  0.08197999999999994  0.6137399999999998  1.0000
  C   C14       1.0  0.79306  0.4808299999999998  0.9683499999999998  1.0000
  C   C15       1.0  0.7359  0.5733699999999999  0.9595799999999999  1.0000
  C   C16       1.0  0.6749  0.4747899999999999  0.9512199999999997  1.0000
  C   C17       1.0  0.64846  0.28426999999999997  0.7594199999999999  1.0000
  C   C18       1.0  0.6384899999999999  0.21579999999999988  0.7580299999999999  1.0000
  C   C19       1.0  0.58855  0.15773  0.69388  1.0000
  C   C20       1.0  0.6758599999999999  0.20798999999999995  0.8177699999999999  1.0000
  C   C21       1.0  0.7305199999999998  0.2670199999999999  0.8890799999999998  1.0000
  C   C22       1.0  0.6017299999999999  0.014509999999999973  0.7435399999999999  1.0000
  C   C23       1.0  0.6110199999999999  0.08302999999999987  0.7447399999999998  1.0000
  C   C24       1.0  0.6607800000000001  0.14126000000000005  0.80896  1.0000
  C   C25       1.0  0.57321  0.09104000000000002  0.68515  1.0000
  C   C26       1.0  0.5177099999999999  0.03250999999999993  0.6139999999999999  1.0000
  C   C27       1.0  0.9872599999999998  0.7929  0.46798999999999996  1.0000
  C   C28       1.0  0.8863  0.73609  0.45997  1.0000
  C   C29       1.0  0.97617  0.67476  0.45087  1.0000
  C   C30       1.0  0.9754  0.64845  0.2590899999999999  1.0000
  C   C31       1.0  0.04252  0.63845  0.25788  1.0000
  C   C32       1.0  0.03667999999999996  0.58845  0.19377999999999998  1.0000
  C   C33       1.0  0.10982000000000001  0.6758300000000002  0.31766  1.0000
  C   C34       1.0  0.12167999999999998  0.73047  0.38890999999999987  1.0000
  C   C35       1.0  0.22944  0.6016900000000001  0.24368999999999993  1.0000
  C   C36       1.0  0.16205999999999998  0.61096  0.24473999999999999  1.0000
  C   C37       1.0  0.16784  0.6607699999999999  0.30896999999999997  1.0000
  C   C38       1.0  0.0947  0.57312  0.18512  1.0000
  C   C39       1.0  0.08217  0.51758  0.11394  1.0000
  C   C40       1.0  0.48111999999999994  0.17547999999999994  0.4689999999999999  1.0000
  C   C41       1.0  0.5734  0.22358000000000003  0.4596299999999999  1.0000
  C   C42       1.0  0.47454999999999997  0.27583  0.45065999999999995  1.0000
  C   C43       1.0  0.28428  0.11064  0.25937  1.0000
  C   C44       1.0  0.21584000000000003  0.11946  0.25794  1.0000
  C   C45       1.0  0.15773  0.10533999999999999  0.19375999999999993  1.0000
  C   C46       1.0  0.20812  0.14191  0.31776  1.0000
  C   C47       1.0  0.26714999999999994  0.15856  0.38914999999999994  1.0000
  C   C48       1.0  0.014539999999999994  0.14148000000000002  0.24351  1.0000
  C   C49       1.0  0.08309999999999995  0.13366  0.24468999999999996  1.0000
  C   C50       1.0  0.14139  0.14815  0.30896  1.0000
  C   C51       1.0  0.09103  0.11196  0.18504  1.0000
  C   C52       1.0  0.03246  0.09628  0.1138  1.0000
  C   C53       1.0  0.32452  0.01888  0.031  1.0000
  C   C54       1.0  0.27643  0.9266000000000002  0.04037  1.0000
  C   C55       1.0  0.22418  0.025459999999999993  0.04933999999999999  1.0000
  C   C56       1.0  0.38936  0.21571999999999997  0.24061999999999997  1.0000
  C   C57       1.0  0.38054000000000004  0.28416  0.24206  1.0000
  C   C58       1.0  0.39467  0.34227000000000013  0.30624  1.0000
  C   C59       1.0  0.35809  0.29188  0.18224  1.0000
  C   C60       1.0  0.34145  0.23285  0.11085  1.0000
  C   C61       1.0  0.35852999999999996  0.48545000000000005  0.25649  1.0000
  C   C62       1.0  0.3663399999999999  0.41691000000000006  0.2553099999999999  1.0000
  C   C63       1.0  0.35184999999999994  0.35861000000000004  0.19104  1.0000
  C   C64       1.0  0.38804  0.40897  0.31496  1.0000
  C   C65       1.0  0.4037199999999999  0.46753999999999996  0.3861899999999999  1.0000
  C   C66       1.0  0.7071  0.51275  0.03201  1.0000
  C   C67       1.0  0.76391  0.6137  0.04003  1.0000
  C   C68       1.0  0.8252399999999998  0.52383  0.04913  1.0000
  C   C69       1.0  0.85156  0.5246100000000001  0.24089999999999998  1.0000
  C   C70       1.0  0.8615500000000001  0.4574800000000001  0.24212  1.0000
  C   C71       1.0  0.91156  0.4633300000000001  0.30623  1.0000
  C   C72       1.0  0.8241699999999997  0.39018  0.18234  1.0000
  C   C73       1.0  0.7695400000000001  0.37832000000000005  0.11108999999999998  1.0000
  C   C74       1.0  0.8983099999999998  0.27056  0.2563  1.0000
  C   C75       1.0  0.88904  0.33793999999999996  0.2552499999999999  1.0000
  C   C76       1.0  0.83923  0.33216  0.19103  1.0000
  C   C77       1.0  0.9268899999999999  0.4053  0.3148699999999999  1.0000
  C   C78       1.0  0.98242  0.4178299999999999  0.3860599999999999  1.0000
  C   C79       1.0  0.5124099999999999  0.32470999999999994  0.5313799999999999  1.0000
  C   C80       1.0  0.61369  0.27621  0.53999  1.0000
  C   C81       1.0  0.52415  0.22436999999999993  0.5496899999999999  1.0000
  C   C82       1.0  0.52467  0.38982  0.74096  1.0000
  C   C83       1.0  0.4575999999999999  0.3807099999999999  0.7421899999999998  1.0000
  C   C84       1.0  0.4634599999999999  0.3946699999999999  0.8063199999999999  1.0000
  C   C85       1.0  0.39030999999999993  0.35817999999999994  0.6823199999999999  1.0000
  C   C86       1.0  0.37835  0.34154  0.61099  1.0000
  C   C87       1.0  0.2707  0.35846  0.75644  1.0000
  C   C88       1.0  0.3380799999999999  0.36627  0.7553199999999999  1.0000
  C   C89       1.0  0.3323  0.35181  0.69103  1.0000
  C   C90       1.0  0.4054400000000001  0.38795  0.81498  1.0000
  C   C91       1.0  0.41802  0.40364999999999995  0.8862599999999999  1.0000
  C   C92       1.0  0.019179999999999996  0.7069500000000002  0.53165  1.0000
  C   C93       1.0  0.9266400000000001  0.7641100000000001  0.54042  1.0000
  C   C94       1.0  0.02520999999999998  0.82511  0.54878  1.0000
  C   C95       1.0  0.21574000000000002  0.85155  0.74058  1.0000
  C   C96       1.0  0.2842099999999999  0.8615200000000001  0.74197  1.0000
  C   C97       1.0  0.34228000000000003  0.91146  0.8061299999999999  1.0000
  C   C98       1.0  0.29202  0.8241500000000002  0.68223  1.0000
  C   C99       1.0  0.23299  0.76949  0.61092  1.0000
  C   C100      1.0  0.4855  0.89828  0.75646  1.0000
  C   C101      1.0  0.4169699999999999  0.8889900000000001  0.7552499999999999  1.0000
  C   C102      1.0  0.35875  0.8392200000000001  0.69103  1.0000
  C   C103      1.0  0.40896999999999994  0.9268  0.8148399999999998  1.0000
  C   C104      1.0  0.4674899999999999  0.9823  0.8859999999999999  1.0000
  C   C105      1.0  0.82471  0.012410000000000001  0.03138  1.0000
  C   C106      1.0  0.7761999999999999  0.11369  0.03999  1.0000
  C   C107      1.0  0.72437  0.024150000000000005  0.0497  1.0000
  C   C108      1.0  0.8898100000000001  0.024669999999999987  0.24095999999999998  1.0000
  C   C109      1.0  0.88071  0.95761  0.24219999999999997  1.0000
  C   C110      1.0  0.89467  0.9634700000000002  0.30633  1.0000
  C   C111      1.0  0.85817  0.8903100000000003  0.18233  1.0000
  C   C112      1.0  0.84154  0.8783500000000001  0.11098999999999999  1.0000
  C   C113      1.0  0.8584599999999999  0.7707  0.2564399999999999  1.0000
  C   C114      1.0  0.86627  0.83808  0.2553199999999999  1.0000
  C   C115      1.0  0.8518  0.8323  0.19103  1.0000
  C   C116      1.0  0.88795  0.90545  0.31498  1.0000
  C   C117      1.0  0.9036399999999999  0.9180300000000002  0.3862599999999999  1.0000
  C   C118      1.0  0.20695  0.51918  0.03164999999999999  1.0000
  C   C119      1.0  0.2641  0.4266400000000001  0.04042  1.0000
  C   C120      1.0  0.32510999999999995  0.52522  0.04877999999999998  1.0000
  C   C121      1.0  0.35155  0.71574  0.24058  1.0000
  C   C122      1.0  0.36150999999999994  0.78421  0.24196999999999994  1.0000
  C   C123      1.0  0.41145  0.84228  0.30612  1.0000
  C   C124      1.0  0.32414  0.7920200000000001  0.18223  1.0000
  C   C125      1.0  0.26948  0.7329900000000001  0.11092  1.0000
  C   C126      1.0  0.39827  0.9855000000000002  0.25646  1.0000
  C   C127      1.0  0.38899  0.91698  0.25526  1.0000
  C   C128      1.0  0.33922  0.85875  0.19104  1.0000
  C   C129      1.0  0.4268  0.9089700000000001  0.31484  1.0000
  C   C130      1.0  0.48228999999999994  0.9675  0.3859999999999999  1.0000
  C   C131      1.0  0.01274  0.2071  0.53201  1.0000
  C   C132      1.0  0.11369999999999998  0.26391999999999993  0.5400299999999999  1.0000
  C   C133      1.0  0.023830000000000004  0.3252500000000001  0.54913  1.0000
  C   C134      1.0  0.02461  0.35156  0.74091  1.0000
  C   C135      1.0  0.9574800000000001  0.36155  0.7421199999999998  1.0000
  C   C136      1.0  0.96333  0.41155999999999987  0.8062199999999998  1.0000
  C   C137      1.0  0.8901800000000001  0.32416999999999996  0.6823399999999998  1.0000
  C   C138      1.0  0.8783199999999999  0.26954  0.61109  1.0000
  C   C139      1.0  0.7705600000000001  0.39832000000000006  0.7563  1.0000
  C   C140      1.0  0.83794  0.38905  0.7552499999999999  1.0000
  C   C141      1.0  0.8321600000000001  0.33923  0.69103  1.0000
  C   C142      1.0  0.9053099999999997  0.42688999999999994  0.8148699999999999  1.0000
  C   C143      1.0  0.91783  0.48241999999999996  0.8860599999999997  1.0000
  C   C144      1.0  0.51888  0.8245300000000001  0.531  1.0000
  C   C145      1.0  0.4266  0.77643  0.54037  1.0000
  C   C146      1.0  0.52546  0.7241799999999999  0.5493399999999999  1.0000
  C   C147      1.0  0.71573  0.88937  0.74063  1.0000
  C   C148      1.0  0.78417  0.88054  0.74206  1.0000
  C   C149      1.0  0.8422799999999999  0.8946699999999999  0.8062399999999997  1.0000
  C   C150      1.0  0.7918799999999998  0.8581000000000001  0.6822399999999997  1.0000
  C   C151      1.0  0.73285  0.84145  0.61085  1.0000
  C   C152      1.0  0.98546  0.8585300000000001  0.75649  1.0000
  C   C153      1.0  0.9169100000000001  0.86634  0.75531  1.0000
  C   C154      1.0  0.8586099999999999  0.85186  0.69104  1.0000
  C   C155      1.0  0.9089799999999999  0.88804  0.8149599999999998  1.0000
  C   C156      1.0  0.96755  0.9037199999999999  0.8861999999999999  1.0000
  C   C157      1.0  0.6754799999999999  0.9811300000000001  0.9689899999999999  1.0000
  C   C158      1.0  0.7235799999999999  0.07340999999999993  0.9596299999999998  1.0000
  C   C159      1.0  0.77582  0.9745500000000001  0.9506599999999998  1.0000
  C   C160      1.0  0.6106399999999998  0.7842800000000001  0.7593699999999998  1.0000
  C   C161      1.0  0.61947  0.7158500000000001  0.75794  1.0000
  C   C162      1.0  0.60534  0.65774  0.69376  1.0000
  C   C163      1.0  0.64191  0.70812  0.81776  1.0000
  C   C164      1.0  0.65856  0.7671600000000001  0.8891399999999999  1.0000
  C   C165      1.0  0.64148  0.51455  0.7435099999999998  1.0000
  C   C166      1.0  0.63366  0.5831  0.7446899999999997  1.0000
  C   C167      1.0  0.6481499999999999  0.6413899999999999  0.8089499999999997  1.0000
  C   C168      1.0  0.61196  0.59104  0.68504  1.0000
  C   C169      1.0  0.5962799999999999  0.53246  0.6138099999999999  1.0000
  C   C170      1.0  0.29289999999999994  0.48725999999999997  0.9679899999999999  1.0000
  C   C171      1.0  0.23609  0.38631000000000004  0.95997  1.0000
  C   C172      1.0  0.1747599999999999  0.47618  0.9508699999999999  1.0000
  C   C173      1.0  0.14844999999999992  0.47540000000000004  0.7591  1.0000
  C   C174      1.0  0.13844999999999996  0.5425199999999999  0.7578699999999999  1.0000
  C   C175      1.0  0.08844999999999992  0.53668  0.6937699999999999  1.0000
  C   C176      1.0  0.17582999999999993  0.60982  0.81766  1.0000
  C   C177      1.0  0.23046999999999987  0.62169  0.8889099999999998  1.0000
  C   C178      1.0  0.10168999999999992  0.7294499999999999  0.7436999999999998  1.0000
  C   C179      1.0  0.11095999999999993  0.6620700000000002  0.7447399999999998  1.0000
  C   C180      1.0  0.1607799999999999  0.6678499999999999  0.8089699999999997  1.0000
  C   C181      1.0  0.07311999999999996  0.5946999999999999  0.6851199999999998  1.0000
  C   C182      1.0  0.01758000000000002  0.58218  0.61394  1.0000
  C   C183      1.0  0.4875999999999999  0.6753  0.4686199999999999  1.0000
  C   C184      1.0  0.38630999999999993  0.7238  0.4600099999999999  1.0000
  C   C185      1.0  0.47586  0.77564  0.4503  1.0000
  C   C186      1.0  0.47533  0.61019  0.25903  1.0000
  C   C187      1.0  0.5424  0.61929  0.2578  1.0000
  C   C188      1.0  0.53654  0.60534  0.19368  1.0000
  C   C189      1.0  0.60969  0.64183  0.31767  1.0000
  C   C190      1.0  0.62165  0.6584600000000002  0.38901  1.0000
  C   C191      1.0  0.7293  0.64155  0.24356  1.0000
  C   C192      1.0  0.66192  0.63374  0.24468  1.0000
  C   C193      1.0  0.6676999999999998  0.6482  0.30896999999999997  1.0000
  C   C194      1.0  0.59456  0.61206  0.18502  1.0000
  C   C195      1.0  0.58198  0.59636  0.11374  1.0000
  C   C196      1.0  0.98083  0.29305999999999993  0.46835  1.0000
  C   C197      1.0  0.07336  0.2359  0.45957999999999993  1.0000
  C   C198      1.0  0.97479  0.17489  0.45122  1.0000
  C   C199      1.0  0.78427  0.14844999999999997  0.2594199999999999  1.0000
  C   C200      1.0  0.7157899999999999  0.13848999999999997  0.2580299999999999  1.0000
  C   C201      1.0  0.65772  0.08855  0.19387  1.0000
  C   C202      1.0  0.7079799999999999  0.17585999999999996  0.31776999999999994  1.0000
  C   C203      1.0  0.76701  0.23052000000000003  0.38908  1.0000
  C   C204      1.0  0.5145  0.10172999999999999  0.24354  1.0000
  C   C205      1.0  0.58303  0.11101999999999997  0.24474999999999994  1.0000
  C   C206      1.0  0.6412499999999999  0.16077999999999998  0.30896999999999997  1.0000
  C   C207      1.0  0.59103  0.07321  0.18515999999999996  1.0000
  C   C208      1.0  0.53251  0.01769999999999999  0.11398999999999998  1.0000
  N   N1        1.0  0.20803999999999995  0.93653  0.93288  1.0000
  N   N2        1.0  0.72454  0.4962  0.93291  1.0000
  N   N3        1.0  0.9364999999999999  0.72451  0.43282  1.0000
  N   N4        1.0  0.49624  0.20809  0.43299  1.0000
  N   N5        1.0  0.29192  0.0037600000000000008  0.06701  1.0000
  N   N6        1.0  0.7755000000000001  0.5635  0.06717999999999999  1.0000
  N   N7        1.0  0.56348  0.29196  0.56711  1.0000
  N   N8        1.0  0.003810000000000015  0.77547  0.56709  1.0000
  N   N9        1.0  0.7919600000000001  0.06348  0.06711  1.0000
  N   N10       1.0  0.27546  0.50381  0.06709  1.0000
  N   N11       1.0  0.06350000000000003  0.2755  0.56718  1.0000
  N   N12       1.0  0.5037599999999999  0.79192  0.5670099999999998  1.0000
  N   N13       1.0  0.7080899999999998  0.9962499999999999  0.9329899999999999  1.0000
  N   N14       1.0  0.2244999999999999  0.4365099999999999  0.9328199999999999  1.0000
  N   N15       1.0  0.43652  0.70805  0.43289  1.0000
  N   N16       1.0  0.9962000000000001  0.22453999999999993  0.4329099999999999  1.0000
  O   O1        1.0  0.14902999999999997  0.97556  0.8165  1.0000
  O   O2        1.0  0.10590999999999993  0.22813999999999995  0.6850999999999999  1.0000
  O   O3        1.0  0.06462999999999991  0.92188  0.7014899999999997  1.0000
  O   O4        1.0  0.18298  0.28392999999999996  0.80261  1.0000
  O   O5        1.0  0.66656  0.34113000000000004  0.8169899999999999  1.0000
  O   O6        1.0  0.57955  0.9575199999999998  0.6850499999999999  1.0000
  O   O7        1.0  0.63662  0.2808  0.70207  1.0000
  O   O8        1.0  0.61836  0.018469999999999938  0.8023099999999999  1.0000
  O   O9        1.0  0.9756899999999997  0.66684  0.3165999999999999  1.0000
  O   O10       1.0  0.22841  0.57938  0.18531999999999998  1.0000
  O   O11       1.0  0.92181  0.63629  0.20148  1.0000
  O   O12       1.0  0.28388  0.61856  0.30268  1.0000
  O   O13       1.0  0.34117  0.14996  0.3169  1.0000
  O   O14       1.0  0.95754  0.10573999999999996  0.18499999999999994  1.0000
  O   O15       1.0  0.2808  0.06495  0.20214  1.0000
  O   O16       1.0  0.018519999999999995  0.18292000000000003  0.30241  1.0000
  O   O17       1.0  0.35004  0.15883  0.1831  1.0000
  O   O18       1.0  0.39426  0.54247  0.31499999999999995  1.0000
  O   O19       1.0  0.43506  0.2192  0.29786  1.0000
  O   O20       1.0  0.31708  0.48147  0.19758999999999996  1.0000
  O   O21       1.0  0.83316  0.52431  0.1834  1.0000
  O   O22       1.0  0.92062  0.27160000000000006  0.31468  1.0000
  O   O23       1.0  0.86371  0.57819  0.29851  1.0000
  O   O24       1.0  0.88145  0.21612  0.19731999999999997  1.0000
  O   O25       1.0  0.52445  0.35097  0.6835  1.0000
  O   O26       1.0  0.27185999999999994  0.39410000000000006  0.8148899999999998  1.0000
  O   O27       1.0  0.57813  0.43538  0.7985  1.0000
  O   O28       1.0  0.21608  0.3170200000000001  0.69738  1.0000
  O   O29       1.0  0.15887999999999994  0.83345  0.6829999999999999  1.0000
  O   O30       1.0  0.5425  0.92046  0.81495  1.0000
  O   O31       1.0  0.21920999999999988  0.8633800000000001  0.7979199999999997  1.0000
  O   O32       1.0  0.48154  0.88165  0.69769  1.0000
  O   O33       1.0  0.8509699999999999  0.024449999999999996  0.18349  1.0000
  O   O34       1.0  0.89409  0.7718700000000001  0.3149  1.0000
  O   O35       1.0  0.93538  0.07813000000000003  0.2985  1.0000
  O   O36       1.0  0.81702  0.71608  0.19738999999999995  1.0000
  O   O37       1.0  0.33344  0.6588799999999999  0.18300999999999998  1.0000
  O   O38       1.0  0.42045  0.04248999999999996  0.3149399999999999  1.0000
  O   O39       1.0  0.36338  0.7192100000000001  0.29793  1.0000
  O   O40       1.0  0.38164  0.9815400000000001  0.19768999999999995  1.0000
  O   O41       1.0  0.02430999999999996  0.33317  0.6833999999999999  1.0000
  O   O42       1.0  0.7716000000000001  0.42063  0.8146799999999998  1.0000
  O   O43       1.0  0.07819000000000007  0.36371999999999993  0.79851  1.0000
  O   O44       1.0  0.71612  0.38145  0.69731  1.0000
  O   O45       1.0  0.65883  0.85004  0.6831  1.0000
  O   O46       1.0  0.042469999999999994  0.89426  0.815  1.0000
  O   O47       1.0  0.7191999999999998  0.9350599999999999  0.7978499999999997  1.0000
  O   O48       1.0  0.98148  0.81709  0.6975899999999999  1.0000
  O   O49       1.0  0.6499599999999999  0.84118  0.8168899999999998  1.0000
  O   O50       1.0  0.6057399999999998  0.45753999999999995  0.6849999999999998  1.0000
  O   O51       1.0  0.56495  0.7808  0.70214  1.0000
  O   O52       1.0  0.68292  0.51853  0.80241  1.0000
  O   O53       1.0  0.16683999999999996  0.4757  0.8166  1.0000
  O   O54       1.0  0.07938  0.72841  0.68532  1.0000
  O   O55       1.0  0.13628999999999988  0.42181999999999986  0.7014899999999997  1.0000
  O   O56       1.0  0.11855999999999994  0.7838799999999999  0.8026799999999997  1.0000
  O   O57       1.0  0.47555  0.64903  0.3165  1.0000
  O   O58       1.0  0.72814  0.60591  0.18511  1.0000
  O   O59       1.0  0.42186999999999997  0.5646299999999999  0.20148999999999995  1.0000
  O   O60       1.0  0.78393  0.68299  0.30262  1.0000
  O   O61       1.0  0.8411199999999999  0.16655999999999996  0.3169899999999999  1.0000
  O   O62       1.0  0.45751  0.07955000000000001  0.18505  1.0000
  O   O63       1.0  0.7808  0.13663000000000003  0.20207  1.0000
  O   O64       1.0  0.51846  0.11835999999999995  0.3023099999999999  1.0000
