data_image0
_chemical_formula_structural       Ag20H160C180N80
_chemical_formula_sum              "Ag20 H160 C180 N80"
_cell_length_a       15.16972
_cell_length_b       15.43157
_cell_length_c       28.548999999999996
_cell_angle_alpha    90.02178
_cell_angle_beta     97.21106
_cell_angle_gamma    89.98729000000002

_symmetry_space_group_name_H-M    'P 1'
_symmetry_Int_Tables_number       1

loop_
  _symmetry_equiv_pos_as_xyz
  'x,y,z'

loop_
  _atom_site_type_symbol
  _atom_site_label
  _atom_site_symmetry_multiplicity
  _atom_site_fract_x
  _atom_site_fract_y
  _atom_site_fract_z
  _atom_site_occupancy
  Ag  Ag1       1.0  0.801  0.10493  0.23733999999999997  1.0000
  Ag  Ag2       1.0  0.18386  0.08202  0.40987  1.0000
  Ag  Ag3       1.0  0.40719999999999995  0.36263  0.27898  1.0000
  Ag  Ag4       1.0  0.06969  0.36047  0.07612  1.0000
  Ag  Ag5       1.0  0.6220499999999998  0.90561  0.0124  1.0000
  Ag  Ag6       1.0  0.69929  0.60458  0.26267  1.0000
  Ag  Ag7       1.0  0.31649  0.5822  0.09  1.0000
  Ag  Ag8       1.0  0.09309999999999997  0.86237  0.22103  1.0000
  Ag  Ag9       1.0  0.43026  0.85998  0.42392  1.0000
  Ag  Ag10      1.0  0.8785199999999995  0.40553  0.48764  1.0000
  Ag  Ag11      1.0  0.199  0.89507  0.76266  1.0000
  Ag  Ag12      1.0  0.8161399999999998  0.91799  0.5901399999999999  1.0000
  Ag  Ag13      1.0  0.5928  0.63737  0.72102  1.0000
  Ag  Ag14      1.0  0.93031  0.63954  0.92388  1.0000
  Ag  Ag15      1.0  0.37795  0.09439  0.9876  1.0000
  Ag  Ag16      1.0  0.3007099999999999  0.39542  0.7373299999999998  1.0000
  Ag  Ag17      1.0  0.68351  0.4178  0.91  1.0000
  Ag  Ag18      1.0  0.9069  0.13764000000000004  0.77897  1.0000
  Ag  Ag19      1.0  0.56974  0.14002  0.57608  1.0000
  Ag  Ag20      1.0  0.12147999999999998  0.59447  0.51236  1.0000
  H   H1        1.0  0.8421899999999998  0.08597  0.35086999999999996  1.0000
  H   H2        1.0  0.07845999999999997  0.39348  0.18704  1.0000
  H   H3        1.0  0.010009999999999988  0.01564  0.44567  1.0000
  H   H4        1.0  0.90109  0.06024  0.43185  1.0000
  H   H5        1.0  0.39061  0.35902  0.16917  1.0000
  H   H6        1.0  0.4628599999999998  0.09481  0.38423  1.0000
  H   H7        1.0  0.35853  0.04039  0.37316  1.0000
  H   H8        1.0  0.7351999999999997  0.92672  0.18919999999999998  1.0000
  H   H9        1.0  0.7215299999999998  0.22578  0.15692  1.0000
  H   H10       1.0  0.73142  0.2299  0.09521  1.0000
  H   H11       1.0  0.19212999999999994  0.38241  0.25753  1.0000
  H   H12       1.0  0.7220700000000001  0.88165  0.37799  1.0000
  H   H13       1.0  0.25138  0.41759  0.06222  1.0000
  H   H14       1.0  0.35745  0.37723  0.08677  1.0000
  H   H15       1.0  0.10375  0.21982  0.16738  1.0000
  H   H16       1.0  0.47258999999999995  0.24691000000000005  0.36757999999999996  1.0000
  H   H17       1.0  0.80427  0.91066  0.30853  1.0000
  H   H18       1.0  0.5040799999999999  0.0549  0.22640999999999994  1.0000
  H   H19       1.0  0.6047399999999999  0.04882  0.20052  1.0000
  H   H20       1.0  0.45428  0.18924  0.24479  1.0000
  H   H21       1.0  0.75518  0.30164  0.2653  1.0000
  H   H22       1.0  0.52518  0.12435  0.46434  1.0000
  H   H23       1.0  0.6263199999999999  0.3990000000000001  0.27366  1.0000
  H   H24       1.0  0.006989999999999989  0.20753  0.23212999999999995  1.0000
  H   H25       1.0  0.13615  0.03981  0.30473  1.0000
  H   H26       1.0  0.8778299999999999  0.23051  0.06844  1.0000
  H   H27       1.0  0.39393  0.22871  0.07354  1.0000
  H   H28       1.0  0.004039999999999986  0.05302  0.24402  1.0000
  H   H29       1.0  0.6624199999999999  0.86609  0.11299  1.0000
  H   H30       1.0  0.6765699999999998  0.11025  0.05091  1.0000
  H   H31       1.0  0.24299999999999994  0.04534  0.51632  1.0000
  H   H32       1.0  0.8760199999999999  0.21213  0.44634  1.0000
  H   H33       1.0  0.15113999999999994  0.26858  0.35579  1.0000
  H   H34       1.0  0.50476  0.0183  0.31237  1.0000
  H   H35       1.0  0.19543  0.25667  0.47327  1.0000
  H   H36       1.0  0.08034999999999998  0.16668  0.02958  1.0000
  H   H37       1.0  0.37924  0.07143  0.57507  1.0000
  H   H38       1.0  0.24322  0.39766  0.34151  1.0000
  H   H39       1.0  0.09071  0.37979  0.48003  1.0000
  H   H40       1.0  0.19512  0.05202  0.02414  1.0000
  H   H41       1.0  0.6582999999999998  0.58523  0.14909999999999998  1.0000
  H   H42       1.0  0.42172  0.89357  0.31321  1.0000
  H   H43       1.0  0.4905599999999999  0.51587  0.05424  1.0000
  H   H44       1.0  0.59947  0.56051  0.06818  1.0000
  H   H45       1.0  0.10957999999999997  0.8586  0.33088  1.0000
  H   H46       1.0  0.03739999999999999  0.5952  0.11573  1.0000
  H   H47       1.0  0.14169  0.54076  0.12683  1.0000
  H   H48       1.0  0.7652099999999998  0.42653  0.31084  1.0000
  H   H49       1.0  0.7781999999999996  0.7255  0.34295  1.0000
  H   H50       1.0  0.76839  0.72987  0.40469  1.0000
  H   H51       1.0  0.3082999999999999  0.8816  0.24267999999999998  1.0000
  H   H52       1.0  0.77852  0.38127  0.12207  1.0000
  H   H53       1.0  0.24865  0.91731  0.43793  1.0000
  H   H54       1.0  0.14252  0.87715  0.41332  1.0000
  H   H55       1.0  0.39609  0.71921  0.33254  1.0000
  H   H56       1.0  0.02769  0.74731  0.13219  1.0000
  H   H57       1.0  0.69648  0.4101  0.19163  1.0000
  H   H58       1.0  0.9964599999999998  0.55471  0.27372  1.0000
  H   H59       1.0  0.89571  0.5485  0.2995  1.0000
  H   H60       1.0  0.046089999999999985  0.68896  0.25513  1.0000
  H   H61       1.0  0.74507  0.80122  0.23497  1.0000
  H   H62       1.0  0.97501  0.62426  0.0357  1.0000
  H   H63       1.0  0.8737399999999999  0.89861  0.22637  1.0000
  H   H64       1.0  0.49286  0.70674  0.26783  1.0000
  H   H65       1.0  0.36419  0.54029  0.19521  1.0000
  H   H66       1.0  0.62188  0.73085  0.4315  1.0000
  H   H67       1.0  0.10585999999999997  0.72885  0.42639  1.0000
  H   H68       1.0  0.49638  0.55232  0.25591  1.0000
  H   H69       1.0  0.83781  0.36606  0.3870799999999999  1.0000
  H   H70       1.0  0.82325  0.61035  0.44914  1.0000
  H   H71       1.0  0.25714  0.5451  0.98368  1.0000
  H   H72       1.0  0.6245199999999997  0.71215  0.053709999999999994  1.0000
  H   H73       1.0  0.3492799999999999  0.76834  0.14439  1.0000
  H   H74       1.0  0.9956799999999998  0.51822  0.18758  1.0000
  H   H75       1.0  0.30514  0.757  0.02686  1.0000
  H   H76       1.0  0.4192899999999999  0.66653  0.47082  1.0000
  H   H77       1.0  0.12098999999999997  0.57127  0.92494  1.0000
  H   H78       1.0  0.25742  0.89763  0.15871  1.0000
  H   H79       1.0  0.4099  0.88001  0.02013  1.0000
  H   H80       1.0  0.30447  0.5519  0.47602  1.0000
  H   H81       1.0  0.15780999999999995  0.91403  0.64913  1.0000
  H   H82       1.0  0.92154  0.60653  0.81296  1.0000
  H   H83       1.0  0.98999  0.98437  0.55433  1.0000
  H   H84       1.0  0.09891  0.93976  0.56815  1.0000
  H   H85       1.0  0.60939  0.64099  0.83083  1.0000
  H   H86       1.0  0.53714  0.90519  0.61577  1.0000
  H   H87       1.0  0.64147  0.95961  0.6268399999999998  1.0000
  H   H88       1.0  0.2648  0.07328  0.8108  1.0000
  H   H89       1.0  0.2784699999999999  0.77423  0.84308  1.0000
  H   H90       1.0  0.2685799999999999  0.7701  0.90479  1.0000
  H   H91       1.0  0.80787  0.61759  0.74247  1.0000
  H   H92       1.0  0.27793  0.11836  0.62202  1.0000
  H   H93       1.0  0.7486299999999998  0.58242  0.93778  1.0000
  H   H94       1.0  0.64255  0.62277  0.91323  1.0000
  H   H95       1.0  0.89625  0.78018  0.83262  1.0000
  H   H96       1.0  0.52741  0.75309  0.63243  1.0000
  H   H97       1.0  0.19573  0.08935  0.69147  1.0000
  H   H98       1.0  0.4959199999999999  0.9451  0.77359  1.0000
  H   H99       1.0  0.39526  0.95119  0.79948  1.0000
  H   H100      1.0  0.54572  0.81076  0.75521  1.0000
  H   H101      1.0  0.24481999999999995  0.69836  0.7347  1.0000
  H   H102      1.0  0.47481999999999996  0.87566  0.53566  1.0000
  H   H103      1.0  0.37368  0.60101  0.72634  1.0000
  H   H104      1.0  0.9930099999999997  0.79247  0.76787  1.0000
  H   H105      1.0  0.86385  0.9602  0.69528  1.0000
  H   H106      1.0  0.12216999999999997  0.7695  0.93156  1.0000
  H   H107      1.0  0.60607  0.7713  0.92646  1.0000
  H   H108      1.0  0.99596  0.94698  0.75598  1.0000
  H   H109      1.0  0.33758  0.13391  0.88701  1.0000
  H   H110      1.0  0.32343  0.88975  0.94909  1.0000
  H   H111      1.0  0.7569999999999998  0.95467  0.48368  1.0000
  H   H112      1.0  0.12397999999999998  0.78787  0.55366  1.0000
  H   H113      1.0  0.8488599999999998  0.73142  0.64421  1.0000
  H   H114      1.0  0.49524  0.9817  0.68764  1.0000
  H   H115      1.0  0.80457  0.74334  0.52673  1.0000
  H   H116      1.0  0.9196499999999997  0.83332  0.97042  1.0000
  H   H117      1.0  0.62076  0.92858  0.42493  1.0000
  H   H118      1.0  0.75678  0.60234  0.65849  1.0000
  H   H119      1.0  0.9092899999999998  0.62021  0.51997  1.0000
  H   H120      1.0  0.8048799999999998  0.94798  0.97586  1.0000
  H   H121      1.0  0.3416999999999999  0.41477  0.8509  1.0000
  H   H122      1.0  0.57828  0.10643  0.6867899999999999  1.0000
  H   H123      1.0  0.50944  0.48413  0.94576  1.0000
  H   H124      1.0  0.4005299999999999  0.4395  0.93182  1.0000
  H   H125      1.0  0.89042  0.14141  0.66912  1.0000
  H   H126      1.0  0.9626  0.4048  0.88427  1.0000
  H   H127      1.0  0.85831  0.45925000000000005  0.87317  1.0000
  H   H128      1.0  0.23478999999999994  0.57347  0.68916  1.0000
  H   H129      1.0  0.2218  0.27451000000000003  0.65705  1.0000
  H   H130      1.0  0.23161  0.27013  0.59531  1.0000
  H   H131      1.0  0.6916999999999998  0.11841  0.7573199999999999  1.0000
  H   H132      1.0  0.22148  0.61873  0.87793  1.0000
  H   H133      1.0  0.75135  0.0827  0.56207  1.0000
  H   H134      1.0  0.85748  0.12285  0.58668  1.0000
  H   H135      1.0  0.60391  0.28079  0.66746  1.0000
  H   H136      1.0  0.97231  0.25269  0.8678099999999997  1.0000
  H   H137      1.0  0.30352  0.5899  0.80837  1.0000
  H   H138      1.0  0.0035399999999999976  0.4453  0.72628  1.0000
  H   H139      1.0  0.10428999999999995  0.4515  0.7004999999999999  1.0000
  H   H140      1.0  0.9539099999999996  0.31105  0.7448699999999998  1.0000
  H   H141      1.0  0.25493  0.19879  0.76503  1.0000
  H   H142      1.0  0.024989999999999995  0.37574  0.9643  1.0000
  H   H143      1.0  0.12626  0.10139  0.77363  1.0000
  H   H144      1.0  0.5071399999999999  0.29326  0.73217  1.0000
  H   H145      1.0  0.63581  0.45971  0.80479  1.0000
  H   H146      1.0  0.37811999999999996  0.26915  0.5685  1.0000
  H   H147      1.0  0.89414  0.27115  0.57361  1.0000
  H   H148      1.0  0.50362  0.44768  0.7440899999999999  1.0000
  H   H149      1.0  0.16218999999999997  0.63394  0.61292  1.0000
  H   H150      1.0  0.17675  0.38965  0.55087  1.0000
  H   H151      1.0  0.74286  0.4549  0.01632  1.0000
  H   H152      1.0  0.37547999999999987  0.28785  0.94629  1.0000
  H   H153      1.0  0.6507199999999997  0.23167  0.85561  1.0000
  H   H154      1.0  0.004320000000000015  0.48179  0.81242  1.0000
  H   H155      1.0  0.69486  0.243  0.97314  1.0000
  H   H156      1.0  0.58071  0.33348  0.52918  1.0000
  H   H157      1.0  0.87901  0.42873  0.07506  1.0000
  H   H158      1.0  0.7425799999999999  0.10238  0.84129  1.0000
  H   H159      1.0  0.5901  0.12  0.97988  1.0000
  H   H160      1.0  0.6955299999999999  0.4481  0.52398  1.0000
  C   C1        1.0  0.90787  0.07449000000000001  0.34046  1.0000
  C   C2        1.0  0.14861  0.38846  0.18306  1.0000
  C   C3        1.0  0.97122  0.0683  0.42684  1.0000
  C   C4        1.0  0.32088999999999995  0.36826  0.17331  1.0000
  C   C5        1.0  0.3932299999999999  0.09639  0.39101  1.0000
  C   C6        1.0  0.724  0.96688  0.1578  1.0000
  C   C7        1.0  0.75496  0.19699  0.12854  1.0000
  C   C8        1.0  0.38902  0.0879  0.44318  1.0000
  C   C9        1.0  0.9803299999999996  0.0629  0.37478  1.0000
  C   C10       1.0  0.34976  0.17983  0.3728  1.0000
  C   C11       1.0  0.21131  0.38181  0.22208  1.0000
  C   C12       1.0  0.005339999999999999  0.15439  0.44698  1.0000
  C   C13       1.0  0.6913199999999999  0.91868  0.34773999999999994  1.0000
  C   C14       1.0  0.28555  0.36711  0.08510999999999999  1.0000
  C   C15       1.0  0.03164  0.2187  0.15943  1.0000
  C   C16       1.0  0.25863  0.37622  0.13382  1.0000
  C   C17       1.0  0.40039  0.25162  0.36426  1.0000
  C   C18       1.0  0.7368700000000001  0.9343000000000001  0.30936  1.0000
  C   C19       1.0  0.5761099999999998  0.06588  0.23274999999999998  1.0000
  C   C20       1.0  0.5927  0.1605  0.24434  1.0000
  C   C21       1.0  0.52179  0.21464  0.24955  1.0000
  C   C22       1.0  0.68759  0.27645  0.261  1.0000
  C   C23       1.0  0.4622399999999998  0.10591  0.47605  1.0000
  C   C24       1.0  0.61663  0.33039  0.26573  1.0000
  C   C25       1.0  0.9781  0.21044  0.19523999999999994  1.0000
  C   C26       1.0  0.73093  0.10214  0.12394  1.0000
  C   C27       1.0  0.07008999999999999  0.04861  0.31498  1.0000
  C   C28       1.0  0.61688  0.00932  0.27278  1.0000
  C   C29       1.0  0.85377  0.20975  0.14044  1.0000
  C   C30       1.0  0.90772  0.22296  0.10499  1.0000
  C   C31       1.0  0.32389  0.21501000000000003  0.06278  1.0000
  C   C32       1.0  0.26045  0.27908  0.06498  1.0000
  C   C33       1.0  0.9971799999999997  0.05723  0.28145  1.0000
  C   C34       1.0  0.6829099999999999  0.93365  0.11592  1.0000
  C   C35       1.0  0.69064  0.06828  0.08153  1.0000
  C   C36       1.0  0.30670999999999987  0.06193  0.50492  1.0000
  C   C37       1.0  0.94764  0.22236  0.45248  1.0000
  C   C38       1.0  0.2231199999999999  0.2633  0.35752  1.0000
  C   C39       1.0  0.57189  0.9933  0.31175  1.0000
  C   C40       1.0  0.12376999999999996  0.24657  0.4678999999999999  1.0000
  C   C41       1.0  0.15082999999999988  0.181  0.03797  1.0000
  C   C42       1.0  0.38005  0.07814  0.53719  1.0000
  C   C43       1.0  0.27382  0.33469  0.34952  1.0000
  C   C44       1.0  0.06619  0.31447  0.47186  1.0000
  C   C45       1.0  0.21391  0.11745  0.03551  1.0000
  C   C46       1.0  0.59261  0.57396  0.15951  1.0000
  C   C47       1.0  0.35158  0.88833  0.31715  1.0000
  C   C48       1.0  0.5293  0.56848  0.07313999999999998  1.0000
  C   C49       1.0  0.17931  0.86779  0.32679  1.0000
  C   C50       1.0  0.10701  0.59673  0.10895  1.0000
  C   C51       1.0  0.7762  0.46672  0.34226  1.0000
  C   C52       1.0  0.74486  0.6968500000000001  0.37139  1.0000
  C   C53       1.0  0.11121  0.58802  0.0568  1.0000
  C   C54       1.0  0.52009  0.5629  0.12518  1.0000
  C   C55       1.0  0.15047  0.6801700000000002  0.12714  1.0000
  C   C56       1.0  0.289  0.88122  0.2781  1.0000
  C   C57       1.0  0.49516  0.65455  0.05303  1.0000
  C   C58       1.0  0.8093099999999996  0.41824000000000006  0.15233  1.0000
  C   C59       1.0  0.21441999999999994  0.86694  0.41499  1.0000
  C   C60       1.0  0.46819  0.71813  0.34051  1.0000
  C   C61       1.0  0.24146  0.87602  0.36632  1.0000
  C   C62       1.0  0.0999  0.75204  0.13564  1.0000
  C   C63       1.0  0.7638299999999998  0.4338  0.19076  1.0000
  C   C64       1.0  0.92442  0.56562  0.26731  1.0000
  C   C65       1.0  0.90772  0.6602  0.25571  1.0000
  C   C66       1.0  0.9785599999999998  0.71436  0.25043  1.0000
  C   C67       1.0  0.81268  0.77606  0.23913  1.0000
  C   C68       1.0  0.03792999999999999  0.60581  0.02394  1.0000
  C   C69       1.0  0.88356  0.83004  0.23433  1.0000
  C   C70       1.0  0.52175  0.70995  0.3047  1.0000
  C   C71       1.0  0.76894  0.60202  0.37609  1.0000
  C   C72       1.0  0.4303  0.54873  0.18496  1.0000
  C   C73       1.0  0.8837399999999999  0.50899  0.22727  1.0000
  C   C74       1.0  0.64605  0.7096  0.35951  1.0000
  C   C75       1.0  0.59208  0.72279  0.39496  1.0000
  C   C76       1.0  0.17585999999999993  0.71498  0.43721999999999994  1.0000
  C   C77       1.0  0.23941  0.77893  0.4350899999999999  1.0000
  C   C78       1.0  0.50328  0.55673  0.21848999999999996  1.0000
  C   C79       1.0  0.8172299999999998  0.4336  0.38417  1.0000
  C   C80       1.0  0.80917  0.56827  0.41854  1.0000
  C   C81       1.0  0.19343999999999997  0.56178  0.99508  1.0000
  C   C82       1.0  0.55291  0.72246  0.04758  1.0000
  C   C83       1.0  0.27727  0.7633  0.1426  1.0000
  C   C84       1.0  0.92864  0.49304  0.18825999999999996  1.0000
  C   C85       1.0  0.37680999999999987  0.74685  0.03217  1.0000
  C   C86       1.0  0.34884  0.68079  0.4622499999999999  1.0000
  C   C87       1.0  0.12006000000000003  0.57787  0.96282  1.0000
  C   C88       1.0  0.22666  0.83477  0.15063  1.0000
  C   C89       1.0  0.4344499999999999  0.81467  0.028229999999999995  1.0000
  C   C90       1.0  0.28568  0.61732  0.46462999999999993  1.0000
  C   C91       1.0  0.09213000000000003  0.92551  0.65954  1.0000
  C   C92       1.0  0.85139  0.61155  0.81694  1.0000
  C   C93       1.0  0.028779999999999976  0.93171  0.57316  1.0000
  C   C94       1.0  0.67911  0.63174  0.82669  1.0000
  C   C95       1.0  0.6067699999999998  0.9036100000000001  0.60899  1.0000
  C   C96       1.0  0.276  0.033120000000000004  0.8422  1.0000
  C   C97       1.0  0.24504  0.80301  0.87146  1.0000
  C   C98       1.0  0.6109799999999997  0.91211  0.55682  1.0000
  C   C99       1.0  0.019669999999999993  0.93711  0.62522  1.0000
  C   C100      1.0  0.65024  0.82017  0.6272  1.0000
  C   C101      1.0  0.78869  0.6182  0.7779199999999998  1.0000
  C   C102      1.0  0.9946599999999998  0.84562  0.55302  1.0000
  C   C103      1.0  0.3086799999999999  0.08133  0.65226  1.0000
  C   C104      1.0  0.71445  0.63289  0.91489  1.0000
  C   C105      1.0  0.9683599999999998  0.7813  0.84057  1.0000
  C   C106      1.0  0.7413699999999999  0.62379  0.8661799999999998  1.0000
  C   C107      1.0  0.5996099999999998  0.74839  0.63574  1.0000
  C   C108      1.0  0.26313  0.0657  0.69064  1.0000
  C   C109      1.0  0.4238899999999999  0.93412  0.7672499999999999  1.0000
  C   C110      1.0  0.4072999999999999  0.83951  0.75566  1.0000
  C   C111      1.0  0.47821  0.78536  0.75045  1.0000
  C   C112      1.0  0.3124099999999999  0.72356  0.739  1.0000
  C   C113      1.0  0.5377599999999998  0.8941  0.52395  1.0000
  C   C114      1.0  0.38337  0.66961  0.73428  1.0000
  C   C115      1.0  0.02190000000000001  0.78956  0.80476  1.0000
  C   C116      1.0  0.26907  0.89787  0.87606  1.0000
  C   C117      1.0  0.9299100000000001  0.9514  0.68502  1.0000
  C   C118      1.0  0.38312  0.99069  0.72722  1.0000
  C   C119      1.0  0.14623  0.79026  0.85956  1.0000
  C   C120      1.0  0.09227999999999995  0.77704  0.89501  1.0000
  C   C121      1.0  0.67611  0.78499  0.93722  1.0000
  C   C122      1.0  0.7395499999999998  0.72092  0.93502  1.0000
  C   C123      1.0  0.0028200000000000026  0.94278  0.71855  1.0000
  C   C124      1.0  0.31709  0.06636  0.88408  1.0000
  C   C125      1.0  0.30936  0.93173  0.91847  1.0000
  C   C126      1.0  0.69329  0.9380700000000001  0.49508  1.0000
  C   C127      1.0  0.052359999999999976  0.77764  0.54752  1.0000
  C   C128      1.0  0.7768799999999999  0.7367  0.64248  1.0000
  C   C129      1.0  0.4281099999999999  0.0067  0.68825  1.0000
  C   C130      1.0  0.8762299999999997  0.75344  0.5321  1.0000
  C   C131      1.0  0.8491699999999998  0.81901  0.9620299999999999  1.0000
  C   C132      1.0  0.61995  0.92186  0.46281  1.0000
  C   C133      1.0  0.7261799999999999  0.66532  0.6504799999999998  1.0000
  C   C134      1.0  0.93381  0.68553  0.52814  1.0000
  C   C135      1.0  0.78609  0.88255  0.96449  1.0000
  C   C136      1.0  0.40739  0.42605  0.84049  1.0000
  C   C137      1.0  0.64842  0.11168  0.68285  1.0000
  C   C138      1.0  0.4707  0.43152  0.92686  1.0000
  C   C139      1.0  0.82069  0.13221  0.6732099999999999  1.0000
  C   C140      1.0  0.89299  0.40328  0.89105  1.0000
  C   C141      1.0  0.2238  0.53328  0.65774  1.0000
  C   C142      1.0  0.2551399999999999  0.30315  0.6286199999999998  1.0000
  C   C143      1.0  0.8887899999999997  0.41198  0.9432  1.0000
  C   C144      1.0  0.47990999999999995  0.4371  0.8748299999999999  1.0000
  C   C145      1.0  0.84953  0.31983  0.87286  1.0000
  C   C146      1.0  0.711  0.11878  0.7219  1.0000
  C   C147      1.0  0.50484  0.34545  0.9469699999999999  1.0000
  C   C148      1.0  0.19068999999999997  0.58176  0.8476699999999999  1.0000
  C   C149      1.0  0.78558  0.13306  0.58502  1.0000
  C   C150      1.0  0.53181  0.28187  0.65949  1.0000
  C   C151      1.0  0.75854  0.12398  0.63368  1.0000
  C   C152      1.0  0.9000999999999996  0.24796  0.86437  1.0000
  C   C153      1.0  0.23616999999999994  0.5662  0.80925  1.0000
  C   C154      1.0  0.07558  0.43439  0.73269  1.0000
  C   C155      1.0  0.09228  0.33981  0.74429  1.0000
  C   C156      1.0  0.02143999999999996  0.28564  0.74957  1.0000
  C   C157      1.0  0.18732  0.22394  0.76087  1.0000
  C   C158      1.0  0.96207  0.3942  0.97606  1.0000
  C   C159      1.0  0.11643999999999999  0.16997  0.76567  1.0000
  C   C160      1.0  0.4782499999999999  0.29006  0.6953  1.0000
  C   C161      1.0  0.23106000000000002  0.39799  0.62391  1.0000
  C   C162      1.0  0.5697  0.45127  0.81504  1.0000
  C   C163      1.0  0.11625999999999997  0.49101  0.77273  1.0000
  C   C164      1.0  0.35395  0.2904  0.6405  1.0000
  C   C165      1.0  0.40791999999999995  0.27721  0.60504  1.0000
  C   C166      1.0  0.8241399999999998  0.28503  0.56278  1.0000
  C   C167      1.0  0.76059  0.22107  0.56491  1.0000
  C   C168      1.0  0.49672  0.44327  0.78151  1.0000
  C   C169      1.0  0.18277  0.5664  0.61583  1.0000
  C   C170      1.0  0.19083  0.43173  0.58146  1.0000
  C   C171      1.0  0.80656  0.43822  0.00493  1.0000
  C   C172      1.0  0.44709  0.27754  0.95242  1.0000
  C   C173      1.0  0.7227299999999998  0.2367  0.8574  1.0000
  C   C174      1.0  0.07135999999999998  0.50696  0.81174  1.0000
  C   C175      1.0  0.62319  0.25316  0.96783  1.0000
  C   C176      1.0  0.65116  0.31921  0.53775  1.0000
  C   C177      1.0  0.8799399999999998  0.42214  0.03719  1.0000
  C   C178      1.0  0.77334  0.16523  0.84937  1.0000
  C   C179      1.0  0.56555  0.18533  0.97177  1.0000
  C   C180      1.0  0.71432  0.38268  0.53537  1.0000
  N   N1        1.0  0.7000599999999999  0.97907  0.27101  1.0000
  N   N2        1.0  0.91335  0.07067  0.29323  1.0000
  N   N3        1.0  0.7489699999999998  0.05151  0.16319  1.0000
  N   N4        1.0  0.06386  0.04892  0.36243  1.0000
  N   N5        1.0  0.17012999999999995  0.39032  0.13767  1.0000
  N   N6        1.0  0.17273  0.26465  0.04971  1.0000
  N   N7        1.0  0.53091  0.30081  0.25991  1.0000
  N   N8        1.0  0.6783399999999998  0.19052  0.24994  1.0000
  N   N9        1.0  0.88832  0.20546  0.18658  1.0000
  N   N10       1.0  0.3003299999999999  0.37443  0.21845  1.0000
  N   N11       1.0  0.09566999999999998  0.16352  0.45749  1.0000
  N   N12       1.0  0.2587399999999999  0.18266  0.36627  1.0000
  N   N13       1.0  0.66482  0.98374  0.07626  1.0000
  N   N14       1.0  0.30921  0.0648  0.45720999999999995  1.0000
  N   N15       1.0  0.60766  0.94717  0.34951  1.0000
  N   N16       1.0  0.36436  0.32976  0.34954  1.0000
  N   N17       1.0  0.97577  0.30348  0.4663899999999999  1.0000
  N   N18       1.0  0.46026  0.10033  0.52336  1.0000
  N   N19       1.0  0.9973999999999997  0.22773  0.11346  1.0000
  N   N20       1.0  0.30349  0.13396  0.0454  1.0000
  N   N21       1.0  0.80063  0.47861  0.2291  1.0000
  N   N22       1.0  0.58717  0.56987  0.20674  1.0000
  N   N23       1.0  0.7512  0.55132  0.33683  1.0000
  N   N24       1.0  0.43649  0.54925  0.1375  1.0000
  N   N25       1.0  0.32993  0.89036  0.36251  1.0000
  N   N26       1.0  0.32706  0.7644500000000001  0.45048  1.0000
  N   N27       1.0  0.96932  0.80052  0.24005  1.0000
  N   N28       1.0  0.82205  0.69015  0.25017  1.0000
  N   N29       1.0  0.6115500000000001  0.70517  0.31336  1.0000
  N   N30       1.0  0.19997  0.87368  0.28167  1.0000
  N   N31       1.0  0.4048399999999999  0.6637400000000001  0.04249  1.0000
  N   N32       1.0  0.24146999999999993  0.68281  0.13375  1.0000
  N   N33       1.0  0.8351699999999997  0.48379  0.42383  1.0000
  N   N34       1.0  0.19101  0.56481  0.042789999999999995  1.0000
  N   N35       1.0  0.89291  0.44679  0.15052  1.0000
  N   N36       1.0  0.13607  0.83011  0.15048  1.0000
  N   N37       1.0  0.52486  0.8036  0.03368  1.0000
  N   N38       1.0  0.03979999999999996  0.59997  0.9766299999999999  1.0000
  N   N39       1.0  0.50238  0.72727  0.38648  1.0000
  N   N40       1.0  0.19613  0.63394  0.45463  1.0000
  N   N41       1.0  0.29994  0.02094  0.72899  1.0000
  N   N42       1.0  0.08664999999999995  0.92933  0.70677  1.0000
  N   N43       1.0  0.25103  0.94849  0.83681  1.0000
  N   N44       1.0  0.93614  0.95109  0.63757  1.0000
  N   N45       1.0  0.8298699999999999  0.60969  0.86233  1.0000
  N   N46       1.0  0.82727  0.73535  0.95029  1.0000
  N   N47       1.0  0.4690899999999998  0.69919  0.7400899999999999  1.0000
  N   N48       1.0  0.32165999999999995  0.80948  0.75006  1.0000
  N   N49       1.0  0.11167999999999999  0.79454  0.81342  1.0000
  N   N50       1.0  0.69967  0.62558  0.78155  1.0000
  N   N51       1.0  0.9043299999999997  0.8364800000000001  0.54251  1.0000
  N   N52       1.0  0.74126  0.81734  0.63373  1.0000
  N   N53       1.0  0.33518  0.01626  0.92375  1.0000
  N   N54       1.0  0.69079  0.9352  0.54279  1.0000
  N   N55       1.0  0.39234  0.05283  0.65049  1.0000
  N   N56       1.0  0.6356399999999999  0.67024  0.6504599999999999  1.0000
  N   N57       1.0  0.02422999999999999  0.69652  0.53361  1.0000
  N   N58       1.0  0.53974  0.89968  0.47664  1.0000
  N   N59       1.0  0.002599999999999951  0.77228  0.8865399999999998  1.0000
  N   N60       1.0  0.69651  0.8660400000000001  0.9546  1.0000
  N   N61       1.0  0.19937  0.52139  0.7709  1.0000
  N   N62       1.0  0.4128299999999999  0.43013000000000007  0.7932599999999999  1.0000
  N   N63       1.0  0.24879999999999997  0.44868000000000013  0.6631699999999998  1.0000
  N   N64       1.0  0.56351  0.45075  0.8625  1.0000
  N   N65       1.0  0.67007  0.10965  0.63749  1.0000
  N   N66       1.0  0.6729399999999998  0.23555  0.54952  1.0000
  N   N67       1.0  0.03067999999999998  0.19949  0.7599499999999999  1.0000
  N   N68       1.0  0.17795  0.30985000000000007  0.74983  1.0000
  N   N69       1.0  0.38845  0.29484  0.68664  1.0000
  N   N70       1.0  0.80003  0.12633  0.71833  1.0000
  N   N71       1.0  0.59516  0.33626  0.95751  1.0000
  N   N72       1.0  0.7585299999999998  0.31719  0.86625  1.0000
  N   N73       1.0  0.16483000000000003  0.51621  0.57617  1.0000
  N   N74       1.0  0.80899  0.43519  0.95721  1.0000
  N   N75       1.0  0.10709000000000003  0.55321  0.84948  1.0000
  N   N76       1.0  0.86393  0.1699  0.84952  1.0000
  N   N77       1.0  0.47514  0.19641  0.96632  1.0000
  N   N78       1.0  0.9602  0.40003  0.02337  1.0000
  N   N79       1.0  0.49762  0.27274  0.6135199999999998  1.0000
  N   N80       1.0  0.8038699999999998  0.36606  0.54537  1.0000
