data_image0
_chemical_formula_structural       Cd8H160C208N16O48
_chemical_formula_sum              "Cd8 H160 C208 N16 O48"
_cell_length_a       14.00014
_cell_length_b       22.65875
_cell_length_c       22.658750000000005
_cell_angle_alpha    89.98786
_cell_angle_beta     90.0
_cell_angle_gamma    90.0

_space_group_name_H-M_alt    "P 1"
_space_group_IT_number       1

loop_
  _space_group_symop_operation_xyz
  'x, y, z'

loop_
  _atom_site_type_symbol
  _atom_site_label
  _atom_site_symmetry_multiplicity
  _atom_site_fract_x
  _atom_site_fract_y
  _atom_site_fract_z
  _atom_site_occupancy
  Cd  Cd1       1.0  0.93682  0.22684  0.01918  1.0000
  Cd  Cd2       1.0  0.8137299999999997  0.27322  0.51928  1.0000
  Cd  Cd3       1.0  0.68627  0.48071  0.72678  1.0000
  Cd  Cd4       1.0  0.56319  0.98082  0.7731599999999998  1.0000
  Cd  Cd5       1.0  0.43681  0.77316  0.98082  1.0000
  Cd  Cd6       1.0  0.31372999999999995  0.72678  0.48072  1.0000
  Cd  Cd7       1.0  0.18627  0.51928  0.27322  1.0000
  Cd  Cd8       1.0  0.06319  0.01918  0.22684  1.0000
  H   H1        1.0  0.8740599999999998  0.13665  0.9113099999999998  1.0000
  H   H2        1.0  0.8910499999999998  0.14299  0.14049  1.0000
  H   H3        1.0  0.84161  0.14905  0.80406  1.0000
  H   H4        1.0  0.9062899999999998  0.32299  0.10552999999999998  1.0000
  H   H5        1.0  0.89914  0.3394  0.74483  1.0000
  H   H6        1.0  0.85086  0.16051999999999997  0.24469  1.0000
  H   H7        1.0  0.03315  0.2905499999999999  0.9181499999999999  1.0000
  H   H8        1.0  0.8437199999999998  0.17711  0.60552  1.0000
  H   H9        1.0  0.71674  0.20936999999999997  0.41811999999999994  1.0000
  H   H10       1.0  0.90827  0.35096  0.30406  1.0000
  H   H11       1.0  0.74287  0.18932999999999997  0.31113  1.0000
  H   H12       1.0  0.8591  0.35707  0.64059  1.0000
  H   H13       1.0  0.8862  0.1516  0.70903  1.0000
  H   H14       1.0  0.00705  0.31066  0.8111399999999999  1.0000
  H   H15       1.0  0.86383  0.34839  0.20903999999999998  1.0000
  H   H16       1.0  0.8758099999999998  0.36332  0.4112799999999999  1.0000
  H   H17       1.0  0.59372  0.89447  0.67701  1.0000
  H   H18       1.0  0.59174  0.69594  0.64904  1.0000
  H   H19       1.0  0.63618  0.79096  0.65161  1.0000
  H   H20       1.0  0.49295  0.18885999999999997  0.68934  1.0000
  H   H21       1.0  0.6242  0.5887099999999998  0.63667  1.0000
  H   H22       1.0  0.6138099999999997  0.29097  0.8484  1.0000
  H   H23       1.0  0.64915  0.7552999999999999  0.83948  1.0000
  H   H24       1.0  0.62595  0.08868999999999999  0.8633499999999998  1.0000
  H   H25       1.0  0.65629  0.39448  0.82288  1.0000
  H   H26       1.0  0.78327  0.58187  0.7906199999999999  1.0000
  H   H27       1.0  0.6583899999999999  0.19593999999999998  0.85095  1.0000
  H   H28       1.0  0.60087  0.25517  0.66059  1.0000
  H   H29       1.0  0.7571399999999998  0.68887  0.8106699999999999  1.0000
  H   H30       1.0  0.64091  0.35940999999999995  0.64293  1.0000
  H   H31       1.0  0.4668499999999999  0.08184999999999999  0.70945  1.0000
  H   H32       1.0  0.60896  0.8594999999999998  0.8570099999999999  1.0000
  H   H33       1.0  0.40629  0.677  0.89447  1.0000
  H   H34       1.0  0.24286  0.81067  0.68887  1.0000
  H   H35       1.0  0.3591  0.64292  0.35941  1.0000
  H   H36       1.0  0.38619999999999993  0.8484  0.29097  1.0000
  H   H37       1.0  0.37581  0.6366699999999998  0.58871  1.0000
  H   H38       1.0  0.53315  0.7094499999999999  0.08185  1.0000
  H   H39       1.0  0.40827  0.64904  0.69594  1.0000
  H   H40       1.0  0.21673999999999993  0.7906199999999998  0.58188  1.0000
  H   H41       1.0  0.36382  0.6516099999999999  0.79096  1.0000
  H   H42       1.0  0.39105  0.8570099999999999  0.85951  1.0000
  H   H43       1.0  0.35085  0.83948  0.75531  1.0000
  H   H44       1.0  0.34161  0.85095  0.19594  1.0000
  H   H45       1.0  0.50706  0.6893399999999998  0.18886  1.0000
  H   H46       1.0  0.37406  0.86335  0.08869  1.0000
  H   H47       1.0  0.34372  0.8228799999999998  0.39448  1.0000
  H   H48       1.0  0.39914  0.66059  0.25517  1.0000
  H   H49       1.0  0.96685  0.9181499999999999  0.29055  1.0000
  H   H50       1.0  0.25714  0.31112999999999996  0.18933  1.0000
  H   H51       1.0  0.15839  0.8040599999999999  0.14905  1.0000
  H   H52       1.0  0.28326  0.41811999999999994  0.20938  1.0000
  H   H53       1.0  0.14915  0.24468999999999996  0.16052  1.0000
  H   H54       1.0  0.10895  0.14049  0.14299  1.0000
  H   H55       1.0  0.13618  0.20903999999999998  0.34839  1.0000
  H   H56       1.0  0.12595  0.91131  0.13665  1.0000
  H   H57       1.0  0.12419  0.41128  0.36332999999999993  1.0000
  H   H58       1.0  0.15627999999999997  0.60552  0.17712  1.0000
  H   H59       1.0  0.10087  0.74483  0.33941  1.0000
  H   H60       1.0  0.09173999999999999  0.30406  0.35096  1.0000
  H   H61       1.0  0.1409  0.64059  0.35706999999999994  1.0000
  H   H62       1.0  0.09371  0.10552999999999997  0.32299  1.0000
  H   H63       1.0  0.11379999999999998  0.70903  0.1516  1.0000
  H   H64       1.0  0.9929499999999999  0.81114  0.31066  1.0000
  H   H65       1.0  0.78722  0.4369  0.09568999999999998  1.0000
  H   H66       1.0  0.8442099999999998  0.47192  0.30962  1.0000
  H   H67       1.0  0.28578  0.20021999999999998  0.06483  1.0000
  H   H68       1.0  0.48157999999999995  0.42885999999999996  0.05503999999999999  1.0000
  H   H69       1.0  0.32412  0.41745999999999994  0.08705  1.0000
  H   H70       1.0  0.44611  0.24274999999999994  0.091  1.0000
  H   H71       1.0  0.62883  0.46674  0.08745  1.0000
  H   H72       1.0  0.6496199999999999  0.38875999999999994  0.08216  1.0000
  H   H73       1.0  0.68092  0.44149  0.27419  1.0000
  H   H74       1.0  0.16725  0.37429999999999997  0.05887  1.0000
  H   H75       1.0  0.9478599999999999  0.46735  0.13211  1.0000
  H   H76       1.0  0.4645599999999999  0.43866  0.13274  1.0000
  H   H77       1.0  0.58255  0.12548  0.55917  1.0000
  H   H78       1.0  0.06901  0.05840999999999999  0.77452  1.0000
  H   H79       1.0  0.30412  0.25747  0.5908  1.0000
  H   H80       1.0  0.10015  0.11102  0.58237  1.0000
  H   H81       1.0  0.80248  0.03265  0.63227  1.0000
  H   H82       1.0  0.9629599999999998  0.06304  0.59598  1.0000
  H   H83       1.0  0.2858  0.061489999999999996  0.6325  1.0000
  H   H84       1.0  0.12137  0.03309  0.58768  1.0000
  H   H85       1.0  0.42547  0.08265  0.58694  1.0000
  H   H86       1.0  0.90599  0.02797  0.80985  1.0000
  H   H87       1.0  0.4645599999999999  0.29981  0.56482  1.0000
  H   H88       1.0  0.2682  0.07126  0.55484  1.0000
  H   H89       1.0  0.69753  0.36773  0.96734  1.0000
  H   H90       1.0  0.43099  0.22546999999999998  0.94158  1.0000
  H   H91       1.0  0.91745  0.44082999999999994  0.8745199999999999  1.0000
  H   H92       1.0  0.2318  0.4451599999999999  0.9287399999999999  1.0000
  H   H93       1.0  0.37862999999999997  0.41231  0.9669  1.0000
  H   H94       1.0  0.19589  0.4091999999999999  0.74253  1.0000
  H   H95       1.0  0.03544  0.43517999999999996  0.70019  1.0000
  H   H96       1.0  0.53704  0.40402  0.9369599999999999  1.0000
  H   H97       1.0  0.21421  0.3675  0.93851  1.0000
  H   H98       1.0  0.5940099999999998  0.19014999999999999  0.97203  1.0000
  H   H99       1.0  0.39985  0.41763  0.88898  1.0000
  H   H100      1.0  0.07454  0.4130599999999999  0.9173499999999999  1.0000
  H   H101      1.0  0.87118  0.9125499999999999  0.53326  1.0000
  H   H102      1.0  0.01842  0.94496  0.57114  1.0000
  H   H103      1.0  0.03544  0.86726  0.56134  1.0000
  H   H104      1.0  0.05389999999999999  0.909  0.7572499999999999  1.0000
  H   H105      1.0  0.7127799999999999  0.9043099999999998  0.5631  1.0000
  H   H106      1.0  0.17587999999999998  0.9129399999999998  0.58254  1.0000
  H   H107      1.0  0.33275  0.94113  0.6257  1.0000
  H   H108      1.0  0.85038  0.91784  0.61124  1.0000
  H   H109      1.0  0.8190799999999998  0.72581  0.55851  1.0000
  H   H110      1.0  0.55215  0.8678899999999999  0.53265  1.0000
  H   H111      1.0  0.21423  0.9351699999999998  0.7997799999999999  1.0000
  H   H112      1.0  0.65579  0.69038  0.52808  1.0000
  H   H113      1.0  0.14962  0.61124  0.91784  1.0000
  H   H114      1.0  0.78578  0.79978  0.93517  1.0000
  H   H115      1.0  0.34421  0.52808  0.69038  1.0000
  H   H116      1.0  0.66725  0.6257  0.9411299999999999  1.0000
  H   H117      1.0  0.28722  0.56309  0.90431  1.0000
  H   H118      1.0  0.96457  0.56134  0.86726  1.0000
  H   H119      1.0  0.12883  0.53326  0.9125499999999999  1.0000
  H   H120      1.0  0.98159  0.57114  0.9449599999999999  1.0000
  H   H121      1.0  0.82412  0.58254  0.91295  1.0000
  H   H122      1.0  0.9461099999999999  0.7572399999999998  0.9089999999999999  1.0000
  H   H123      1.0  0.18092  0.5584999999999999  0.7258100000000001  1.0000
  H   H124      1.0  0.44786  0.5326399999999999  0.86789  1.0000
  H   H125      1.0  0.62137  0.9669  0.41232  1.0000
  H   H126      1.0  0.30247  0.9673399999999999  0.36772999999999995  1.0000
  H   H127      1.0  0.7682  0.92874  0.44516  1.0000
  H   H128      1.0  0.80412  0.74253  0.40920000000000006  1.0000
  H   H129      1.0  0.60015  0.88898  0.41763  1.0000
  H   H130      1.0  0.96457  0.7001799999999999  0.43517999999999996  1.0000
  H   H131      1.0  0.92547  0.91735  0.41306  1.0000
  H   H132      1.0  0.7858  0.93851  0.3675  1.0000
  H   H133      1.0  0.56901  0.9415799999999999  0.22548  1.0000
  H   H134      1.0  0.46296  0.93696  0.40402  1.0000
  H   H135      1.0  0.40599  0.97203  0.19015  1.0000
  H   H136      1.0  0.08255  0.8745199999999999  0.44082999999999994  1.0000
  H   H137      1.0  0.51842  0.05504  0.42886  1.0000
  H   H138      1.0  0.15579  0.30961  0.47192  1.0000
  H   H139      1.0  0.21278  0.09568999999999998  0.4369  1.0000
  H   H140      1.0  0.37117  0.08745  0.46674  1.0000
  H   H141      1.0  0.5539  0.091  0.24275  1.0000
  H   H142      1.0  0.6758899999999999  0.08704999999999999  0.41746  1.0000
  H   H143      1.0  0.53544  0.13274  0.43866  1.0000
  H   H144      1.0  0.31908  0.27418999999999993  0.44149  1.0000
  H   H145      1.0  0.052149999999999995  0.13211  0.46734999999999993  1.0000
  H   H146      1.0  0.35038  0.08216  0.38875999999999994  1.0000
  H   H147      1.0  0.71423  0.06483  0.20022  1.0000
  H   H148      1.0  0.83276  0.05887  0.3743  1.0000
  H   H149      1.0  0.03704  0.5959799999999998  0.06304  1.0000
  H   H150      1.0  0.57454  0.58694  0.08265  1.0000
  H   H151      1.0  0.87863  0.58768  0.0331  1.0000
  H   H152      1.0  0.93099  0.77452  0.05842  1.0000
  H   H153      1.0  0.71421  0.6325  0.06149  1.0000
  H   H154      1.0  0.7318  0.55484  0.07126  1.0000
  H   H155      1.0  0.6958899999999999  0.5908  0.25747  1.0000
  H   H156      1.0  0.19753  0.63227  0.03266  1.0000
  H   H157      1.0  0.09401  0.80985  0.027970000000000002  1.0000
  H   H158      1.0  0.53544  0.56482  0.29981  1.0000
  H   H159      1.0  0.8998599999999999  0.58237  0.11102  1.0000
  H   H160      1.0  0.41745  0.55917  0.12548  1.0000
  C   C1        1.0  0.86129  0.1981  0.21558999999999998  1.0000
  C   C2        1.0  0.89346  0.28856  0.13812  1.0000
  C   C3        1.0  0.88874  0.30189  0.7156599999999999  1.0000
  C   C4        1.0  0.86547  0.31205999999999995  0.65695  1.0000
  C   C5        1.0  0.88467  0.18799  0.15688  1.0000
  C   C6        1.0  0.97638  0.27132  0.83118  1.0000
  C   C7        1.0  0.85353  0.25627  0.23621999999999999  1.0000
  C   C8        1.0  0.99242  0.26018  0.89064  1.0000
  C   C9        1.0  0.8295999999999998  0.26824  0.29842  1.0000
  C   C10       1.0  0.77357  0.22863999999999998  0.33119  1.0000
  C   C11       1.0  0.8566399999999998  0.21149  0.63814  1.0000
  C   C12       1.0  0.87032  0.30232  0.1961  1.0000
  C   C13       1.0  0.9038299999999998  0.17373  0.88698  1.0000
  C   C14       1.0  0.92038  0.23172  0.79843  1.0000
  C   C15       1.0  0.87973  0.19767999999999997  0.69611  1.0000
  C   C16       1.0  0.8646999999999998  0.31864999999999993  0.32725  1.0000
  C   C17       1.0  0.84613  0.3262  0.38699  1.0000
  C   C18       1.0  0.75757  0.23975999999999995  0.39066  1.0000
  C   C19       1.0  0.8852299999999999  0.18131  0.8272499999999999  1.0000
  C   C20       1.0  0.89649  0.24368999999999993  0.73624  1.0000
  C   C21       1.0  0.57963  0.20156  0.7682799999999999  1.0000
  C   C22       1.0  0.52363  0.16882  0.72867  1.0000
  C   C23       1.0  0.61534  0.8431199999999999  0.81201  1.0000
  C   C24       1.0  0.62969  0.8038999999999998  0.69768  1.0000
  C   C25       1.0  0.63531  0.67275  0.68135  1.0000
  C   C26       1.0  0.59617  0.11301  0.82627  1.0000
  C   C27       1.0  0.63454  0.34304  0.68794  1.0000
  C   C28       1.0  0.50759  0.10936  0.7398199999999999  1.0000
  C   C29       1.0  0.62027  0.30388  0.8023199999999999  1.0000
  C   C30       1.0  0.61126  0.28432999999999997  0.69811  1.0000
  C   C31       1.0  0.65387  0.61301  0.6738  1.0000
  C   C32       1.0  0.64336  0.36186  0.7884999999999999  1.0000
  C   C33       1.0  0.72644  0.66881  0.77136  1.0000
  C   C34       1.0  0.67041  0.70158  0.73176  1.0000
  C   C35       1.0  0.63872  0.7844099999999998  0.8018999999999998  1.0000
  C   C36       1.0  0.60352  0.26376  0.7563  1.0000
  C   C37       1.0  0.60654  0.86187  0.7114399999999999  1.0000
  C   C38       1.0  0.74244  0.60934  0.76024  1.0000
  C   C39       1.0  0.61478  0.17274  0.81869  1.0000
  C   C40       1.0  0.64648  0.76378  0.74373  1.0000
  C   C41       1.0  0.38467  0.81201  0.84312  1.0000
  C   C42       1.0  0.25757  0.76024  0.60934  1.0000
  C   C43       1.0  0.35352  0.74373  0.76378  1.0000
  C   C44       1.0  0.42037  0.76828  0.20156  1.0000
  C   C45       1.0  0.38523  0.81869  0.17275  1.0000
  C   C46       1.0  0.39649  0.7563  0.26376  1.0000
  C   C47       1.0  0.39346  0.71144  0.86188  1.0000
  C   C48       1.0  0.27356  0.77135  0.66881  1.0000
  C   C49       1.0  0.34613  0.6738  0.61301  1.0000
  C   C50       1.0  0.40382999999999997  0.82627  0.11301  1.0000
  C   C51       1.0  0.37031999999999987  0.69768  0.8039  1.0000
  C   C52       1.0  0.47638  0.72867  0.16882  1.0000
  C   C53       1.0  0.35664  0.7885  0.36186  1.0000
  C   C54       1.0  0.49241  0.73982  0.10935999999999998  1.0000
  C   C55       1.0  0.3647  0.68135  0.67275  1.0000
  C   C56       1.0  0.38874  0.69811  0.28434  1.0000
  C   C57       1.0  0.36547  0.68794  0.34305  1.0000
  C   C58       1.0  0.36129  0.8018999999999997  0.78441  1.0000
  C   C59       1.0  0.3296  0.73176  0.70158  1.0000
  C   C60       1.0  0.3797299999999999  0.80232  0.30389  1.0000
  C   C61       1.0  0.10352  0.73624  0.24369999999999997  1.0000
  C   C62       1.0  0.1704  0.29842  0.26824  1.0000
  C   C63       1.0  0.11533  0.15687999999999996  0.18799  1.0000
  C   C64       1.0  0.24243  0.39065999999999995  0.23976  1.0000
  C   C65       1.0  0.12969  0.19609999999999997  0.30232  1.0000
  C   C66       1.0  0.14335999999999993  0.63814  0.21149999999999997  1.0000
  C   C67       1.0  0.12027  0.69611  0.19768  1.0000
  C   C68       1.0  0.13531  0.32724  0.31865  1.0000
  C   C69       1.0  0.22643999999999997  0.33119  0.22864  1.0000
  C   C70       1.0  0.15387  0.38699  0.3262  1.0000
  C   C71       1.0  0.13871  0.21559  0.1981  1.0000
  C   C72       1.0  0.09617  0.88698  0.17373  1.0000
  C   C73       1.0  0.11126  0.7156599999999999  0.30189  1.0000
  C   C74       1.0  0.11477  0.82725  0.18131  1.0000
  C   C75       1.0  0.13454  0.6569499999999999  0.31206  1.0000
  C   C76       1.0  0.02361999999999999  0.8311799999999999  0.27133  1.0000
  C   C77       1.0  0.10654  0.13812  0.28856  1.0000
  C   C78       1.0  0.00759  0.89064  0.26018  1.0000
  C   C79       1.0  0.07963  0.79843  0.23172  1.0000
  C   C80       1.0  0.14648  0.23621999999999999  0.25627  1.0000
  C   C81       1.0  0.7236  0.43819999999999987  0.18307  1.0000
  C   C82       1.0  0.79831  0.44535  0.14236  1.0000
  C   C83       1.0  0.74016  0.44715  0.24366  1.0000
  C   C84       1.0  0.8303299999999999  0.4640799999999999  0.26299  1.0000
  C   C85       1.0  0.61  0.4233  0.10589  1.0000
  C   C86       1.0  0.00317  0.48999999999999994  0.24242  1.0000
  C   C87       1.0  0.38407  0.27087  0.08439  1.0000
  C   C88       1.0  0.5039  0.41351  0.09906  1.0000
  C   C89       1.0  0.2955399999999999  0.24765  0.06933  1.0000
  C   C90       1.0  0.88842  0.46207  0.16258  1.0000
  C   C91       1.0  0.22903999999999994  0.34598999999999996  0.06546  1.0000
  C   C92       1.0  0.39560999999999996  0.33234  0.08987  1.0000
  C   C93       1.0  0.12118  0.26089  0.04243  1.0000
  C   C94       1.0  0.90565  0.4719  0.22268  1.0000
  C   C95       1.0  0.2169  0.28495  0.05902  1.0000
  C   C96       1.0  0.31732  0.37007  0.08104  1.0000
  C   C97       1.0  0.14013  0.07659  0.60606  1.0000
  C   C98       1.0  0.62957  0.23897999999999994  0.54321  1.0000
  C   C99       1.0  0.43251  0.13003  0.58095  1.0000
  C   C100      1.0  0.02681  0.06167999999999999  0.68335  1.0000
  C   C101      1.0  0.0099  0.05272  0.7438999999999999  1.0000
  C   C102      1.0  0.91963  0.03581  0.7632  1.0000
  C   C103      1.0  0.3543  0.16779  0.58975  1.0000
  C   C104      1.0  0.8618  0.03788  0.66284  1.0000
  C   C105      1.0  0.24612  0.08656  0.59892  1.0000
  C   C106      1.0  0.52095  0.154  0.56559  1.0000
  C   C107      1.0  0.95202  0.05456  0.64265  1.0000
  C   C108      1.0  0.7461499999999999  0.010109999999999997  0.7424099999999999  1.0000
  C   C109      1.0  0.36602  0.22923999999999997  0.58424  1.0000
  C   C110      1.0  0.53341  0.21505999999999997  0.55925  1.0000
  C   C111      1.0  0.45472  0.25238  0.56931  1.0000
  C   C112      1.0  0.8441499999999997  0.028039999999999995  0.7229  1.0000
  C   C113      1.0  0.65586  0.2771  0.97196  1.0000
  C   C114      1.0  0.97905  0.43441  0.8459999999999999  1.0000
  C   C115      1.0  0.47319  0.31665  0.9383199999999999  1.0000
  C   C116      1.0  0.75386  0.25758  0.9898899999999999  1.0000
  C   C117      1.0  0.96659  0.4407499999999999  0.78493  1.0000
  C   C118      1.0  0.63821  0.33715999999999996  0.96212  1.0000
  C   C119      1.0  0.3598699999999999  0.39394  0.92341  1.0000
  C   C120      1.0  0.4901  0.2561  0.9472799999999999  1.0000
  C   C121      1.0  0.1457  0.41024999999999995  0.8322099999999999  1.0000
  C   C122      1.0  0.54799  0.35734  0.94544  1.0000
  C   C123      1.0  0.87044  0.45678  0.76102  1.0000
  C   C124      1.0  0.58038  0.23679999999999995  0.96419  1.0000
  C   C125      1.0  0.13398  0.41576  0.77075  1.0000
  C   C126      1.0  0.25388  0.40107999999999994  0.9134399999999999  1.0000
  C   C127      1.0  0.06749  0.41905  0.8699699999999999  1.0000
  C   C128      1.0  0.045279999999999994  0.4306899999999999  0.7476199999999998  1.0000
  C   C129      1.0  0.11593  0.9155999999999999  0.72913  1.0000
  C   C130      1.0  0.9961  0.9009399999999997  0.58649  1.0000
  C   C131      1.0  0.37882  0.95757  0.7391100000000002  1.0000
  C   C132      1.0  0.10439  0.9101199999999999  0.66766  1.0000
  C   C133      1.0  0.27096  0.9345399999999998  0.65401  1.0000
  C   C134      1.0  0.7017  0.8576399999999998  0.55465  1.0000
  C   C135      1.0  0.75984  0.75634  0.55285  1.0000
  C   C136      1.0  0.7764  0.81693  0.5618  1.0000
  C   C137      1.0  0.20446  0.93066  0.75235  1.0000
  C   C138      1.0  0.89  0.8940999999999998  0.5767  1.0000
  C   C139      1.0  0.49684  0.75758  0.51  1.0000
  C   C140      1.0  0.2831  0.9409799999999999  0.7150499999999999  1.0000
  C   C141      1.0  0.66968  0.73701  0.53592  1.0000
  C   C142      1.0  0.59435  0.77732  0.5281  1.0000
  C   C143      1.0  0.61158  0.8374199999999998  0.53793  1.0000
  C   C144      1.0  0.18269  0.91896  0.62993  1.0000
  C   C145      1.0  0.79554  0.75235  0.9306699999999999  1.0000
  C   C146      1.0  0.81732  0.62993  0.91896  1.0000
  C   C147      1.0  0.24015999999999996  0.55285  0.7563399999999999  1.0000
  C   C148      1.0  0.62119  0.7391  0.9575699999999999  1.0000
  C   C149      1.0  0.0039  0.5864899999999998  0.9009399999999999  1.0000
  C   C150      1.0  0.7290399999999998  0.6540099999999999  0.9345399999999999  1.0000
  C   C151      1.0  0.33032  0.53592  0.7370099999999999  1.0000
  C   C152      1.0  0.50317  0.51  0.7575799999999999  1.0000
  C   C153      1.0  0.7169  0.7150499999999999  0.94098  1.0000
  C   C154      1.0  0.10999999999999999  0.5767  0.89411  1.0000
  C   C155      1.0  0.2236  0.5618  0.81693  1.0000
  C   C156      1.0  0.38842  0.53793  0.83742  1.0000
  C   C157      1.0  0.40565  0.5281  0.77732  1.0000
  C   C158      1.0  0.29831  0.55465  0.8576399999999998  1.0000
  C   C159      1.0  0.89561  0.6676599999999999  0.9101300000000001  1.0000
  C   C160      1.0  0.88408  0.72913  0.91561  1.0000
  C   C161      1.0  0.3618  0.96212  0.33716  1.0000
  C   C162      1.0  0.64013  0.92341  0.39394  1.0000
  C   C163      1.0  0.24615  0.98989  0.25759  1.0000
  C   C164      1.0  0.7461299999999998  0.91344  0.40108  1.0000
  C   C165      1.0  0.85431  0.83221  0.41025  1.0000
  C   C166      1.0  0.86603  0.77075  0.41576  1.0000
  C   C167      1.0  0.02095  0.846  0.43441  1.0000
  C   C168      1.0  0.41963  0.9641899999999999  0.23679999999999998  1.0000
  C   C169      1.0  0.5099  0.9472799999999999  0.2561  1.0000
  C   C170      1.0  0.34413999999999995  0.9719599999999999  0.2771  1.0000
  C   C171      1.0  0.9325199999999998  0.86997  0.41905  1.0000
  C   C172      1.0  0.03341  0.78493  0.44075  1.0000
  C   C173      1.0  0.45202  0.94544  0.35735  1.0000
  C   C174      1.0  0.9547199999999998  0.74762  0.43069  1.0000
  C   C175      1.0  0.52681  0.9383199999999998  0.31665  1.0000
  C   C176      1.0  0.12957  0.7610199999999998  0.45679  1.0000
  C   C177      1.0  0.6044  0.08986999999999999  0.33234  1.0000
  C   C178      1.0  0.61593  0.08439  0.27087  1.0000
  C   C179      1.0  0.9968399999999997  0.24242  0.49  1.0000
  C   C180      1.0  0.09434999999999998  0.22268  0.47189999999999993  1.0000
  C   C181      1.0  0.39  0.10589  0.4233  1.0000
  C   C182      1.0  0.11158  0.16257999999999997  0.46207  1.0000
  C   C183      1.0  0.70447  0.06933  0.24765  1.0000
  C   C184      1.0  0.20169  0.14235999999999996  0.44535  1.0000
  C   C185      1.0  0.25984  0.24366  0.44715  1.0000
  C   C186      1.0  0.2764  0.18307  0.4382  1.0000
  C   C187      1.0  0.7831  0.05902  0.28495  1.0000
  C   C188      1.0  0.4960999999999999  0.09905999999999997  0.41351  1.0000
  C   C189      1.0  0.77097  0.06546  0.34599  1.0000
  C   C190      1.0  0.68269  0.08104  0.37007  1.0000
  C   C191      1.0  0.8788199999999998  0.04243  0.26089  1.0000
  C   C192      1.0  0.16967999999999994  0.26299  0.46407999999999994  1.0000
  C   C193      1.0  0.97319  0.68335  0.06167999999999999  1.0000
  C   C194      1.0  0.25385  0.74241  0.01011  1.0000
  C   C195      1.0  0.47905  0.56559  0.154  1.0000
  C   C196      1.0  0.75388  0.59892  0.08656  1.0000
  C   C197      1.0  0.54528  0.56931  0.25238  1.0000
  C   C198      1.0  0.13821  0.66284  0.03788  1.0000
  C   C199      1.0  0.6457  0.58975  0.16779  1.0000
  C   C200      1.0  0.08037  0.7632  0.03581  1.0000
  C   C201      1.0  0.85987  0.60606  0.07659  1.0000
  C   C202      1.0  0.04797999999999999  0.64265  0.05456  1.0000
  C   C203      1.0  0.56749  0.58095  0.13003  1.0000
  C   C204      1.0  0.3704299999999999  0.54321  0.23898  1.0000
  C   C205      1.0  0.99011  0.7439  0.05272  1.0000
  C   C206      1.0  0.15586  0.7229  0.02804  1.0000
  C   C207      1.0  0.63398  0.58424  0.22924999999999998  1.0000
  C   C208      1.0  0.46659  0.55925  0.21507  1.0000
  N   N1        1.0  0.90059  0.23244  0.11865  1.0000
  N   N2        1.0  0.95621  0.21249999999999997  0.91841  1.0000
  N   N3        1.0  0.7938699999999997  0.28739  0.41846  1.0000
  N   N4        1.0  0.8495999999999999  0.26763  0.6187  1.0000
  N   N5        1.0  0.59941  0.88135  0.76755  1.0000
  N   N6        1.0  0.6504  0.3813  0.7323699999999999  1.0000
  N   N7        1.0  0.70613  0.58154  0.71261  1.0000
  N   N8        1.0  0.5438  0.08159  0.7875  1.0000
  N   N9        1.0  0.40059  0.76755  0.88135  1.0000
  N   N10       1.0  0.3496  0.73237  0.3812999999999999  1.0000
  N   N11       1.0  0.45621  0.7874999999999999  0.08159  1.0000
  N   N12       1.0  0.29386999999999996  0.71261  0.58154  1.0000
  N   N13       1.0  0.20613  0.41846  0.28739  1.0000
  N   N14       1.0  0.0438  0.91841  0.21249999999999997  1.0000
  N   N15       1.0  0.09941  0.11864999999999999  0.23245  1.0000
  N   N16       1.0  0.15039999999999995  0.6187  0.26763  1.0000
  O   O1        1.0  0.10459999999999998  0.20569999999999994  0.0478  1.0000
  O   O2        1.0  0.06694  0.49737  0.20252999999999996  1.0000
  O   O3        1.0  0.48553  0.35118  0.10408  1.0000
  O   O4        1.0  0.05796  0.29781  0.02413  1.0000
  O   O5        1.0  0.6326099999999999  0.42257  0.16779  1.0000
  O   O6        1.0  0.0194  0.4969099999999999  0.2976  1.0000
  O   O7        1.0  0.6465899999999998  0.29422  0.54778  1.0000
  O   O8        1.0  0.11797  0.07729  0.66808  1.0000
  O   O9        1.0  0.68251  0.00266  0.70242  1.0000
  O   O10       1.0  0.72913  0.003319999999999999  0.79755  1.0000
  O   O11       1.0  0.693  0.20172  0.52615  1.0000
  O   O12       1.0  0.26445  0.14889  0.60399  1.0000
  O   O13       1.0  0.8174899999999999  0.29757  0.99733  1.0000
  O   O14       1.0  0.77088  0.20245  0.99668  1.0000
  O   O15       1.0  0.85342  0.45221999999999996  0.70577  1.0000
  O   O16       1.0  0.8070099999999999  0.4738399999999999  0.79828  1.0000
  O   O17       1.0  0.23555  0.3960099999999999  0.8510999999999999  1.0000
  O   O18       1.0  0.38202999999999987  0.33191999999999994  0.9226999999999999  1.0000
  O   O19       1.0  0.4806  0.7023999999999999  0.50308  1.0000
  O   O20       1.0  0.8674  0.8322  0.57743  1.0000
  O   O21       1.0  0.01447  0.89591  0.64882  1.0000
  O   O22       1.0  0.3954  0.9521999999999998  0.7943  1.0000
  O   O23       1.0  0.44204  0.97587  0.70219  1.0000
  O   O24       1.0  0.43306  0.79747  0.50262  1.0000
  O   O25       1.0  0.56694  0.50262  0.79747  1.0000
  O   O26       1.0  0.6046099999999999  0.7943  0.9522  1.0000
  O   O27       1.0  0.5194  0.50308  0.7024  1.0000
  O   O28       1.0  0.98553  0.64882  0.89592  1.0000
  O   O29       1.0  0.13261  0.5774299999999999  0.8322099999999999  1.0000
  O   O30       1.0  0.55797  0.70219  0.97587  1.0000
  O   O31       1.0  0.14658999999999994  0.70577  0.45222  1.0000
  O   O32       1.0  0.76445  0.8511  0.39601  1.0000
  O   O33       1.0  0.22912  0.99668  0.20245  1.0000
  O   O34       1.0  0.18251  0.99733  0.29758  1.0000
  O   O35       1.0  0.19299  0.7982799999999999  0.47385  1.0000
  O   O36       1.0  0.6179799999999999  0.9227  0.33192  1.0000
  O   O37       1.0  0.36739  0.16779  0.42257  1.0000
  O   O38       1.0  0.51448  0.10408  0.35118  1.0000
  O   O39       1.0  0.93306  0.20252999999999993  0.4973699999999999  1.0000
  O   O40       1.0  0.9420399999999999  0.02413  0.29781  1.0000
  O   O41       1.0  0.9805999999999999  0.2976  0.49691  1.0000
  O   O42       1.0  0.8954  0.0478  0.2057  1.0000
  O   O43       1.0  0.3534199999999999  0.54778  0.29422  1.0000
  O   O44       1.0  0.7355499999999998  0.60399  0.1489  1.0000
  O   O45       1.0  0.30701  0.52615  0.20172  1.0000
  O   O46       1.0  0.27088  0.7975499999999998  0.0033199999999999996  1.0000
  O   O47       1.0  0.31749  0.7024199999999999  0.00267  1.0000
  O   O48       1.0  0.88203  0.66808  0.0773  1.0000
