data_image0
_chemical_formula_structural       Zn8H144C248N8O32
_chemical_formula_sum              "Zn8 H144 C248 N8 O32"
_cell_length_a       15.65833
_cell_length_b       16.14027
_cell_length_c       21.562150000000003
_cell_angle_alpha    89.99555999999998
_cell_angle_beta     90.0243
_cell_angle_gamma    94.11837999999999

_space_group_name_H-M_alt    "P 1"
_space_group_IT_number       1

loop_
  _space_group_symop_operation_xyz
  'x, y, z'

loop_
  _atom_site_type_symbol
  _atom_site_label
  _atom_site_symmetry_multiplicity
  _atom_site_fract_x
  _atom_site_fract_y
  _atom_site_fract_z
  _atom_site_occupancy
  Zn  Zn1       1.0  0.19444000000000006  0.05185  0.23642  1.0000
  Zn  Zn2       1.0  0.6734900000000003  0.56502  0.7447399999999998  1.0000
  Zn  Zn3       1.0  0.80599  0.4484  0.73655  1.0000
  Zn  Zn4       1.0  0.32647  0.93521  0.24478  1.0000
  Zn  Zn5       1.0  0.80556  0.94815  0.7635799999999999  1.0000
  Zn  Zn6       1.0  0.32651  0.43497  0.25526  1.0000
  Zn  Zn7       1.0  0.19401000000000004  0.5516  0.26345  1.0000
  Zn  Zn8       1.0  0.67353  0.06478000000000003  0.75522  1.0000
  H   H1        1.0  0.02162  0.04682  0.17925  1.0000
  H   H2        1.0  0.90264  0.14217  0.16569  1.0000
  H   H3        1.0  0.06429000000000001  0.3324000000000001  0.258  1.0000
  H   H4        1.0  0.17522  0.22825  0.26938  1.0000
  H   H5        1.0  0.83143  0.33521  0.33364  1.0000
  H   H6        1.0  0.76191  0.36134  0.43582  1.0000
  H   H7        1.0  0.66189  0.4724700000000001  0.4457499999999999  1.0000
  H   H8        1.0  0.63098  0.56062  0.35338  1.0000
  H   H9        1.0  0.96515  0.47078  0.17219  1.0000
  H   H10       1.0  0.011000000000000003  0.61411  0.13578  1.0000
  H   H11       1.0  0.9116600000000002  0.72585  0.14274  1.0000
  H   H12       1.0  0.7651000000000003  0.6970700000000002  0.18838  1.0000
  H   H13       1.0  0.7394  0.28642  0.14048  1.0000
  H   H14       1.0  0.59814  0.27603  0.08517  1.0000
  H   H15       1.0  0.49668  0.3857  0.09957  1.0000
  H   H16       1.0  0.53626  0.50831  0.16726  1.0000
  H   H17       1.0  0.4456100000000001  0.6582300000000002  0.30345  1.0000
  H   H18       1.0  0.34369000000000005  0.77129  0.30604  1.0000
  H   H19       1.0  0.50331  0.9241900000000002  0.19546  1.0000
  H   H20       1.0  0.61218  0.81875  0.18838  1.0000
  H   H21       1.0  0.31684  0.26101  0.34218  1.0000
  H   H22       1.0  0.39601  0.35249  0.4163  1.0000
  H   H23       1.0  0.54023  0.14735  0.47386  1.0000
  H   H24       1.0  0.46048  0.056840000000000016  0.39806  1.0000
  H   H25       1.0  0.42362  0.39276  0.5122  1.0000
  H   H26       1.0  0.50403  0.4754400000000001  0.59309  1.0000
  H   H27       1.0  0.71775  0.32636  0.57049  1.0000
  H   H28       1.0  0.63956  0.24472000000000005  0.48802000000000006  1.0000
  H   H29       1.0  0.9323000000000002  0.5223900000000002  0.9104199999999999  1.0000
  H   H30       1.0  0.019209999999999994  0.59793  0.9917699999999999  1.0000
  H   H31       1.0  0.89148  0.81962  0.95078  1.0000
  H   H32       1.0  0.8027300000000003  0.74204  0.87221  1.0000
  H   H33       1.0  0.12779  0.69197  0.0108  1.0000
  H   H34       1.0  0.21486  0.76982  0.09007  1.0000
  H   H35       1.0  0.0058599999999999885  0.92087  0.12707  1.0000
  H   H36       1.0  0.91749  0.84272  0.04879  1.0000
  H   H37       1.0  0.97827  0.45317  0.67924  1.0000
  H   H38       1.0  0.09726  0.35785  0.6657  1.0000
  H   H39       1.0  0.93572  0.1676  0.75799  1.0000
  H   H40       1.0  0.82481  0.27176  0.76936  1.0000
  H   H41       1.0  0.16858000000000006  0.16478  0.8336  1.0000
  H   H42       1.0  0.23812  0.13862  0.9358099999999999  1.0000
  H   H43       1.0  0.33815  0.0275  0.94579  1.0000
  H   H44       1.0  0.36904  0.93937  0.85343  1.0000
  H   H45       1.0  0.0348  0.02922  0.67217  1.0000
  H   H46       1.0  0.98893  0.8858700000000003  0.63578  1.0000
  H   H47       1.0  0.0883  0.77415  0.64275  1.0000
  H   H48       1.0  0.23490000000000003  0.8029400000000002  0.6884  1.0000
  H   H49       1.0  0.26059  0.21361  0.64046  1.0000
  H   H50       1.0  0.4018  0.22396000000000005  0.58517  1.0000
  H   H51       1.0  0.50324  0.11426  0.59959  1.0000
  H   H52       1.0  0.46369000000000005  0.99167  0.66728  1.0000
  H   H53       1.0  0.55432  0.8418400000000003  0.8034  1.0000
  H   H54       1.0  0.65634  0.7289  0.80609  1.0000
  H   H55       1.0  0.49663  0.57585  0.69552  1.0000
  H   H56       1.0  0.38775  0.68126  0.68838  1.0000
  H   H57       1.0  0.68335  0.23913000000000006  0.8420299999999998  1.0000
  H   H58       1.0  0.60428  0.14753  0.9161399999999998  1.0000
  H   H59       1.0  0.46006000000000014  0.35267  0.97374  1.0000
  H   H60       1.0  0.53978  0.4432500000000001  0.89796  1.0000
  H   H61       1.0  0.57653  0.10718  0.01205  1.0000
  H   H62       1.0  0.49602  0.02488  0.09312  1.0000
  H   H63       1.0  0.2826900000000001  0.17431000000000005  0.07025  1.0000
  H   H64       1.0  0.36074  0.25545  0.98747  1.0000
  H   H65       1.0  0.06771000000000002  0.9776200000000003  0.41039  1.0000
  H   H66       1.0  0.9808500000000002  0.90209  0.4917099999999999  1.0000
  H   H67       1.0  0.10853  0.68039  0.45078  1.0000
  H   H68       1.0  0.19721  0.7579900000000002  0.37223  1.0000
  H   H69       1.0  0.8721800000000001  0.80805  0.51063  1.0000
  H   H70       1.0  0.7852  0.73037  0.58992  1.0000
  H   H71       1.0  0.9941  0.57922  0.62708  1.0000
  H   H72       1.0  0.08249  0.65721  0.54876  1.0000
  H   H73       1.0  0.9783800000000004  0.95317  0.82075  1.0000
  H   H74       1.0  0.09736  0.85782  0.83431  1.0000
  H   H75       1.0  0.93571  0.6676  0.742  1.0000
  H   H76       1.0  0.82478  0.77175  0.73062  1.0000
  H   H77       1.0  0.16857  0.66479  0.66636  1.0000
  H   H78       1.0  0.23809  0.63866  0.56418  1.0000
  H   H79       1.0  0.3381  0.5275200000000002  0.55424  1.0000
  H   H80       1.0  0.36901  0.43938  0.64661  1.0000
  H   H81       1.0  0.03485  0.52922  0.82781  1.0000
  H   H82       1.0  0.989  0.38589  0.8642200000000001  1.0000
  H   H83       1.0  0.08834  0.27415  0.85726  1.0000
  H   H84       1.0  0.23489  0.30293  0.81162  1.0000
  H   H85       1.0  0.2606  0.71358  0.85952  1.0000
  H   H86       1.0  0.40186  0.72396  0.91482  1.0000
  H   H87       1.0  0.50332  0.61429  0.90042  1.0000
  H   H88       1.0  0.4637400000000001  0.4916900000000001  0.83274  1.0000
  H   H89       1.0  0.55439  0.34177  0.69655  1.0000
  H   H90       1.0  0.65631  0.22871  0.69396  1.0000
  H   H91       1.0  0.49668  0.07581  0.80454  1.0000
  H   H92       1.0  0.38782  0.18124000000000007  0.81162  1.0000
  H   H93       1.0  0.68316  0.73898  0.65782  1.0000
  H   H94       1.0  0.60399  0.6475100000000003  0.5837  1.0000
  H   H95       1.0  0.45976  0.85264  0.52614  1.0000
  H   H96       1.0  0.53951  0.94316  0.60194  1.0000
  H   H97       1.0  0.5763800000000002  0.60724  0.48779999999999996  1.0000
  H   H98       1.0  0.49597  0.52456  0.40691  1.0000
  H   H99       1.0  0.28225  0.67363  0.42951000000000006  1.0000
  H   H100      1.0  0.3604400000000001  0.75527  0.51198  1.0000
  H   H101      1.0  0.06769  0.47760000000000014  0.08958  1.0000
  H   H102      1.0  0.9807900000000003  0.40206  0.00823  1.0000
  H   H103      1.0  0.10852  0.18038  0.04920999999999999  1.0000
  H   H104      1.0  0.19727  0.25796  0.12779  1.0000
  H   H105      1.0  0.87221  0.30803  0.9891900000000001  1.0000
  H   H106      1.0  0.78514  0.23017000000000007  0.90993  1.0000
  H   H107      1.0  0.99414  0.07913000000000003  0.87293  1.0000
  H   H108      1.0  0.08251000000000003  0.15728  0.9512100000000001  1.0000
  H   H109      1.0  0.021730000000000006  0.54682  0.32076  1.0000
  H   H110      1.0  0.9027400000000001  0.6421500000000002  0.3343  1.0000
  H   H111      1.0  0.06428  0.8324  0.24199999999999997  1.0000
  H   H112      1.0  0.17519  0.72824  0.23063  1.0000
  H   H113      1.0  0.83142  0.8352100000000002  0.1664  1.0000
  H   H114      1.0  0.7618800000000001  0.8613800000000001  0.06418  1.0000
  H   H115      1.0  0.66185  0.9725  0.0542  1.0000
  H   H116      1.0  0.63096  0.06062  0.14656  1.0000
  H   H117      1.0  0.96519  0.97078  0.32783  1.0000
  H   H118      1.0  0.011070000000000002  0.11413  0.36422  1.0000
  H   H119      1.0  0.9117  0.22585  0.35725  1.0000
  H   H120      1.0  0.7651000000000002  0.19706000000000007  0.3116  1.0000
  H   H121      1.0  0.73941  0.78639  0.35954  1.0000
  H   H122      1.0  0.5982  0.77604  0.41483  1.0000
  H   H123      1.0  0.49676  0.88574  0.40041  1.0000
  H   H124      1.0  0.53631  0.00833  0.33272  1.0000
  H   H125      1.0  0.44568  0.15816000000000005  0.1966  1.0000
  H   H126      1.0  0.34366000000000013  0.2711  0.19391  1.0000
  H   H127      1.0  0.50337  0.42415  0.30448  1.0000
  H   H128      1.0  0.61225  0.31873  0.31162  1.0000
  H   H129      1.0  0.31664  0.7608700000000003  0.15797  1.0000
  H   H130      1.0  0.3957200000000001  0.85247  0.08386  1.0000
  H   H131      1.0  0.53994  0.64733  0.02625  1.0000
  H   H132      1.0  0.46022  0.55675  0.10204  1.0000
  H   H133      1.0  0.42347000000000007  0.89282  0.98795  1.0000
  H   H134      1.0  0.50398  0.97512  0.90687  1.0000
  H   H135      1.0  0.71731  0.82569  0.9297499999999999  1.0000
  H   H136      1.0  0.63926  0.74455  0.01253  1.0000
  H   H137      1.0  0.9322900000000001  0.02238  0.58961  1.0000
  H   H138      1.0  0.01915  0.0979  0.50828  1.0000
  H   H139      1.0  0.89147  0.31961  0.54922  1.0000
  H   H140      1.0  0.80278  0.24201  0.62776  1.0000
  H   H141      1.0  0.12782  0.19195  0.48937  1.0000
  H   H142      1.0  0.2148  0.26963  0.41007999999999994  1.0000
  H   H143      1.0  0.0059000000000000025  0.42078  0.37291  1.0000
  H   H144      1.0  0.9175100000000003  0.34278  0.45124  1.0000
  C   C1        1.0  0.027290000000000002  0.11057  0.1959  1.0000
  C   C2        1.0  0.96227  0.16369  0.18826  1.0000
  C   C3        1.0  0.9742  0.24486  0.21193000000000004  1.0000
  C   C4        1.0  0.05263000000000001  0.26937  0.24066000000000004  1.0000
  C   C5        1.0  0.11410000000000001  0.21229000000000006  0.24676  1.0000
  C   C6        1.0  0.9096000000000002  0.30169  0.21035  1.0000
  C   C7        1.0  0.85798  0.3541  0.21471  1.0000
  C   C8        1.0  0.79973  0.41913  0.22028000000000003  1.0000
  C   C9        1.0  0.76824  0.43167  0.2872  1.0000
  C   C10       1.0  0.78756  0.38413  0.33854  1.0000
  C   C11       1.0  0.74888  0.39935  0.39571  1.0000
  C   C12       1.0  0.69246  0.4622100000000001  0.40131999999999995  1.0000
  C   C13       1.0  0.67456  0.5112  0.34978  1.0000
  C   C14       1.0  0.71233  0.49541  0.29291  1.0000
  C   C15       1.0  0.69508  0.53918  0.23104  1.0000
  C   C16       1.0  0.78362  0.56806  0.20415  1.0000
  C   C17       1.0  0.8395900000000002  0.50448  0.19903  1.0000
  C   C18       1.0  0.92166  0.52027  0.175  1.0000
  C   C19       1.0  0.947  0.60067  0.15453  1.0000
  C   C20       1.0  0.89088  0.66381  0.15878  1.0000
  C   C21       1.0  0.80893  0.64805  0.18414  1.0000
  C   C22       1.0  0.7169  0.4041500000000001  0.18193  1.0000
  C   C23       1.0  0.6952  0.33513  0.14498  1.0000
  C   C24       1.0  0.61587  0.3294600000000001  0.11442  1.0000
  C   C25       1.0  0.55901  0.39146  0.12212  1.0000
  C   C26       1.0  0.58104  0.46086  0.15949  1.0000
  C   C27       1.0  0.66064  0.46735  0.1883  1.0000
  C   C28       1.0  0.63847  0.60599  0.23665  1.0000
  C   C29       1.0  0.5931600000000002  0.66392  0.24056000000000002  1.0000
  C   C30       1.0  0.53691  0.72875  0.24513  1.0000
  C   C31       1.0  0.46064  0.71665  0.27953  1.0000
  C   C32       1.0  0.40405  0.77884  0.28099  1.0000
  C   C33       1.0  0.49377  0.8646000000000003  0.21895  1.0000
  C   C34       1.0  0.5538200000000002  0.80558  0.21504999999999996  1.0000
  C   C35       1.0  0.33956  0.09913  0.31606  1.0000
  C   C36       1.0  0.38448  0.15297  0.36416  1.0000
  C   C37       1.0  0.36548  0.23594  0.37119  1.0000
  C   C38       1.0  0.41029  0.28754  0.41359000000000007  1.0000
  C   C39       1.0  0.4754000000000001  0.25732  0.45051  1.0000
  C   C40       1.0  0.49229  0.17310000000000006  0.44443999999999995  1.0000
  C   C41       1.0  0.4475  0.12178  0.40203  1.0000
  C   C42       1.0  0.52455  0.31091  0.49526000000000003  1.0000
  C   C43       1.0  0.48839  0.37834  0.52429  1.0000
  C   C44       1.0  0.53306  0.42463  0.56991  1.0000
  C   C45       1.0  0.61526  0.40475  0.58794  1.0000
  C   C46       1.0  0.65331  0.34023  0.55722  1.0000
  C   C47       1.0  0.60883  0.29426  0.51154  1.0000
  C   C48       1.0  0.65959  0.44659  0.64226  1.0000
  C   C49       1.0  0.81454  0.58289  0.83447  1.0000
  C   C50       1.0  0.86257  0.62744  0.8859500000000001  1.0000
  C   C51       1.0  0.9239300000000001  0.5874600000000002  0.91998  1.0000
  C   C52       1.0  0.9729400000000002  0.63033  0.9650700000000001  1.0000
  C   C53       1.0  0.96253  0.71477  0.97707  1.0000
  C   C54       1.0  0.89968  0.754  0.9433400000000001  1.0000
  C   C55       1.0  0.84996  0.71087  0.8988300000000001  1.0000
  C   C56       1.0  0.01577000000000001  0.76124  0.023670000000000004  1.0000
  C   C57       1.0  0.10014  0.7414500000000002  0.03658  1.0000
  C   C58       1.0  0.14967  0.78554  0.08094  1.0000
  C   C59       1.0  0.11627000000000003  0.8509  0.11375  1.0000
  C   C60       1.0  0.03225000000000003  0.87098  0.10111  1.0000
  C   C61       1.0  0.9829800000000002  0.82705  0.05689  1.0000
  C   C62       1.0  0.16757  0.8993500000000002  0.16192  1.0000
  C   C63       1.0  0.97265  0.38942  0.69588  1.0000
  C   C64       1.0  0.03766  0.3363  0.68826  1.0000
  C   C65       1.0  0.02576  0.25513  0.71192  1.0000
  C   C66       1.0  0.9473600000000002  0.23062  0.74065  1.0000
  C   C67       1.0  0.8859  0.2877  0.74675  1.0000
  C   C68       1.0  0.09037  0.19830000000000006  0.71033  1.0000
  C   C69       1.0  0.14201  0.14591  0.71467  1.0000
  C   C70       1.0  0.20028  0.08089  0.72025  1.0000
  C   C71       1.0  0.23179  0.06835  0.78719  1.0000
  C   C72       1.0  0.21246000000000007  0.11587000000000003  0.8385199999999999  1.0000
  C   C73       1.0  0.25116  0.10063  0.8957  1.0000
  C   C74       1.0  0.30758  0.03777  0.90134  1.0000
  C   C75       1.0  0.32547  0.98879  0.84981  1.0000
  C   C76       1.0  0.28771000000000013  0.00461  0.7929200000000001  1.0000
  C   C77       1.0  0.30493  0.9608500000000002  0.73105  1.0000
  C   C78       1.0  0.21638000000000002  0.93196  0.70414  1.0000
  C   C79       1.0  0.16039000000000003  0.9955400000000001  0.699  1.0000
  C   C80       1.0  0.0783  0.97973  0.67498  1.0000
  C   C81       1.0  0.05295  0.89932  0.65452  1.0000
  C   C82       1.0  0.10909  0.8362  0.65878  1.0000
  C   C83       1.0  0.19106  0.85196  0.68414  1.0000
  C   C84       1.0  0.28309  0.09588  0.68192  1.0000
  C   C85       1.0  0.30478  0.1649  0.64498  1.0000
  C   C86       1.0  0.38408  0.17054  0.61442  1.0000
  C   C87       1.0  0.44093  0.10852  0.62213  1.0000
  C   C88       1.0  0.41892  0.039140000000000015  0.65951  1.0000
  C   C89       1.0  0.33935  0.03267  0.68832  1.0000
  C   C90       1.0  0.36152  0.8940500000000002  0.73667  1.0000
  C   C91       1.0  0.4068  0.83609  0.74054  1.0000
  C   C92       1.0  0.46304  0.77127  0.74511  1.0000
  C   C93       1.0  0.53932  0.7834000000000002  0.77951  1.0000
  C   C94       1.0  0.59596  0.72127  0.7810199999999999  1.0000
  C   C95       1.0  0.50618  0.63544  0.71899  1.0000
  C   C96       1.0  0.44612  0.69444  0.71505  1.0000
  C   C97       1.0  0.66054  0.40096  0.8159599999999999  1.0000
  C   C98       1.0  0.61574  0.34712  0.86408  1.0000
  C   C99       1.0  0.63471  0.26413  0.87104  1.0000
  C   C100      1.0  0.58999  0.21249000000000007  0.9134200000000001  1.0000
  C   C101      1.0  0.52488  0.24271  0.95028  1.0000
  C   C102      1.0  0.50796  0.32694  0.94429  1.0000
  C   C103      1.0  0.5527  0.37829  0.9019100000000001  1.0000
  C   C104      1.0  0.47571000000000013  0.18916  0.99497  1.0000
  C   C105      1.0  0.5118000000000003  0.12174  0.02409  1.0000
  C   C106      1.0  0.4671  0.07566  0.06979  1.0000
  C   C107      1.0  0.3851  0.09598000000000002  0.08788  1.0000
  C   C108      1.0  0.3470300000000001  0.1603  0.05691  1.0000
  C   C109      1.0  0.39145  0.20599  0.01112  1.0000
  C   C110      1.0  0.34073  0.05478  0.14243  1.0000
  C   C111      1.0  0.18548000000000003  0.91715  0.33446  1.0000
  C   C112      1.0  0.13745  0.87259  0.38593999999999995  1.0000
  C   C113      1.0  0.07609000000000002  0.9125500000000002  0.41994  1.0000
  C   C114      1.0  0.02706000000000002  0.8696700000000003  0.4650099999999999  1.0000
  C   C115      1.0  0.03749  0.78524  0.47703999999999996  1.0000
  C   C116      1.0  0.10029000000000002  0.7460000000000002  0.44331  1.0000
  C   C117      1.0  0.15001000000000006  0.78915  0.39884  1.0000
  C   C118      1.0  0.98428  0.73881  0.52365  1.0000
  C   C119      1.0  0.89989  0.7586200000000002  0.53647  1.0000
  C   C120      1.0  0.85035  0.71456  0.58082  1.0000
  C   C121      1.0  0.88369  0.6491800000000002  0.61368  1.0000
  C   C122      1.0  0.9677  0.62908  0.60109  1.0000
  C   C123      1.0  0.017020000000000004  0.67295  0.55687  1.0000
  C   C124      1.0  0.83246  0.60079  0.66193  1.0000
  C   C125      1.0  0.9727100000000001  0.88942  0.8041000000000001  1.0000
  C   C126      1.0  0.03773000000000002  0.8363100000000002  0.8117299999999998  1.0000
  C   C127      1.0  0.0258  0.75514  0.78807  1.0000
  C   C128      1.0  0.94737  0.73063  0.7593299999999998  1.0000
  C   C129      1.0  0.8859  0.78771  0.7532400000000001  1.0000
  C   C130      1.0  0.0904  0.69831  0.7896499999999999  1.0000
  C   C131      1.0  0.14202  0.64589  0.7852799999999999  1.0000
  C   C132      1.0  0.20027  0.58087  0.77972  1.0000
  C   C133      1.0  0.23176  0.56833  0.71279  1.0000
  C   C134      1.0  0.21244000000000007  0.6158700000000003  0.66146  1.0000
  C   C135      1.0  0.25112  0.60064  0.60429  1.0000
  C   C136      1.0  0.30754  0.53779  0.59868  1.0000
  C   C137      1.0  0.32544  0.48879  0.65022  1.0000
  C   C138      1.0  0.28767  0.50459  0.70709  1.0000
  C   C139      1.0  0.30492  0.46082  0.76896  1.0000
  C   C140      1.0  0.21638000000000007  0.43194  0.7958499999999998  1.0000
  C   C141      1.0  0.16041  0.4955200000000001  0.8009699999999998  1.0000
  C   C142      1.0  0.07834000000000002  0.4797300000000001  0.825  1.0000
  C   C143      1.0  0.052990000000000016  0.39933  0.8454699999999999  1.0000
  C   C144      1.0  0.10912  0.33619  0.84121  1.0000
  C   C145      1.0  0.19107000000000005  0.35195  0.8158600000000001  1.0000
  C   C146      1.0  0.28310000000000013  0.59585  0.81807  1.0000
  C   C147      1.0  0.3048000000000001  0.66487  0.85501  1.0000
  C   C148      1.0  0.38412  0.67054  0.88558  1.0000
  C   C149      1.0  0.44099  0.60854  0.87788  1.0000
  C   C150      1.0  0.41896  0.53914  0.8405000000000001  1.0000
  C   C151      1.0  0.3393600000000001  0.5326500000000002  0.8117  1.0000
  C   C152      1.0  0.36153  0.394  0.7633500000000001  1.0000
  C   C153      1.0  0.40684  0.33608  0.7594400000000001  1.0000
  C   C154      1.0  0.4630900000000001  0.27125  0.75487  1.0000
  C   C155      1.0  0.53936  0.28334  0.72047  1.0000
  C   C156      1.0  0.59595  0.22115000000000007  0.71901  1.0000
  C   C157      1.0  0.50622  0.13539  0.78105  1.0000
  C   C158      1.0  0.44618  0.19442  0.78495  1.0000
  C   C159      1.0  0.66044  0.90087  0.68394  1.0000
  C   C160      1.0  0.61552  0.8470300000000001  0.63583  1.0000
  C   C161      1.0  0.63452  0.76406  0.62881  1.0000
  C   C162      1.0  0.58971  0.7124600000000002  0.5864  1.0000
  C   C163      1.0  0.5246  0.74268  0.54949  1.0000
  C   C164      1.0  0.5077  0.8269  0.55556  1.0000
  C   C165      1.0  0.5525  0.87822  0.59797  1.0000
  C   C166      1.0  0.47545  0.68909  0.50474  1.0000
  C   C167      1.0  0.51161  0.62166  0.4757100000000001  1.0000
  C   C168      1.0  0.46693  0.57537  0.43009000000000003  1.0000
  C   C169      1.0  0.3847400000000001  0.59525  0.41204999999999997  1.0000
  C   C170      1.0  0.34668  0.65977  0.44277  1.0000
  C   C171      1.0  0.39117  0.70574  0.48845  1.0000
  C   C172      1.0  0.34041  0.55341  0.35774  1.0000
  C   C173      1.0  0.18546  0.41711  0.16553  1.0000
  C   C174      1.0  0.13743  0.37255  0.11405  1.0000
  C   C175      1.0  0.07606  0.41254  0.08002  1.0000
  C   C176      1.0  0.02705  0.36967  0.03493  1.0000
  C   C177      1.0  0.03746  0.28523  0.02293  1.0000
  C   C178      1.0  0.10032  0.246  0.05666  1.0000
  C   C179      1.0  0.15004  0.28913  0.10116000000000001  1.0000
  C   C180      1.0  0.9842300000000003  0.23876  0.9763300000000001  1.0000
  C   C181      1.0  0.89986  0.25855  0.96342  1.0000
  C   C182      1.0  0.85033  0.21446  0.91905  1.0000
  C   C183      1.0  0.88373  0.14909  0.88625  1.0000
  C   C184      1.0  0.96775  0.12902  0.89888  1.0000
  C   C185      1.0  0.01702  0.17295  0.94311  1.0000
  C   C186      1.0  0.8324300000000002  0.10065  0.83808  1.0000
  C   C187      1.0  0.02735  0.61058  0.30412  1.0000
  C   C188      1.0  0.96234  0.66369  0.31174  1.0000
  C   C189      1.0  0.97424  0.74487  0.28808  1.0000
  C   C190      1.0  0.05264  0.76938  0.25934  1.0000
  C   C191      1.0  0.1141  0.71229  0.25325  1.0000
  C   C192      1.0  0.90963  0.8017  0.28966  1.0000
  C   C193      1.0  0.85799  0.85409  0.28532  1.0000
  C   C194      1.0  0.79972  0.9191  0.27975  1.0000
  C   C195      1.0  0.76821  0.93165  0.21281  1.0000
  C   C196      1.0  0.78754  0.88413  0.16148  1.0000
  C   C197      1.0  0.74884  0.89937  0.10429  1.0000
  C   C198      1.0  0.69242  0.96222  0.09866000000000001  1.0000
  C   C199      1.0  0.67453  0.0112  0.15019  1.0000
  C   C200      1.0  0.71229  0.9953799999999999  0.20708000000000001  1.0000
  C   C201      1.0  0.69507  0.039140000000000015  0.26894  1.0000
  C   C202      1.0  0.78362  0.06804  0.29586  1.0000
  C   C203      1.0  0.8396  0.00446  0.301  1.0000
  C   C204      1.0  0.9217000000000002  0.02027  0.32502  1.0000
  C   C205      1.0  0.94705  0.10068  0.34548  1.0000
  C   C206      1.0  0.89091  0.1638  0.34121  1.0000
  C   C207      1.0  0.80894  0.14803  0.31586  1.0000
  C   C208      1.0  0.71691  0.90412  0.31808  1.0000
  C   C209      1.0  0.6952200000000001  0.8351000000000002  0.35502  1.0000
  C   C210      1.0  0.61592  0.8294500000000002  0.38558  1.0000
  C   C211      1.0  0.55906  0.89147  0.37787  1.0000
  C   C212      1.0  0.58108  0.96086  0.34048  1.0000
  C   C213      1.0  0.66065  0.96733  0.31168  1.0000
  C   C214      1.0  0.63848  0.10594  0.26333  1.0000
  C   C215      1.0  0.5932  0.16391  0.25946  1.0000
  C   C216      1.0  0.53696  0.22872  0.25489  1.0000
  C   C217      1.0  0.4606800000000002  0.21659  0.22048  1.0000
  C   C218      1.0  0.40404  0.27873  0.21898000000000004  1.0000
  C   C219      1.0  0.49382  0.36455  0.28101  1.0000
  C   C220      1.0  0.55387  0.30556  0.28495  1.0000
  C   C221      1.0  0.33946000000000004  0.5990400000000002  0.18404  1.0000
  C   C222      1.0  0.38426  0.65288  0.13591  1.0000
  C   C223      1.0  0.3652900000000001  0.7358600000000001  0.12896  1.0000
  C   C224      1.0  0.41001  0.78751  0.08657  1.0000
  C   C225      1.0  0.47512  0.75729  0.04971  1.0000
  C   C226      1.0  0.49204000000000003  0.67306  0.0557  1.0000
  C   C227      1.0  0.4473  0.62171  0.09808999999999998  1.0000
  C   C228      1.0  0.52429  0.81084  0.00502  1.0000
  C   C229      1.0  0.4882  0.8782600000000003  0.9759  1.0000
  C   C230      1.0  0.5329  0.92434  0.9302  1.0000
  C   C231      1.0  0.6149000000000002  0.9040200000000003  0.91211  1.0000
  C   C232      1.0  0.65297  0.8397  0.9430899999999999  1.0000
  C   C233      1.0  0.60855  0.79401  0.98888  1.0000
  C   C234      1.0  0.65927  0.94521  0.85757  1.0000
  C   C235      1.0  0.81452  0.08285  0.66554  1.0000
  C   C236      1.0  0.86255  0.12741  0.61406  1.0000
  C   C237      1.0  0.9239100000000002  0.08745  0.58005  1.0000
  C   C238      1.0  0.9729400000000002  0.13032  0.53499  1.0000
  C   C239      1.0  0.96251  0.21476  0.52295  1.0000
  C   C240      1.0  0.89971  0.254  0.55669  1.0000
  C   C241      1.0  0.84999  0.21084  0.60116  1.0000
  C   C242      1.0  0.01572  0.26119  0.47635  1.0000
  C   C243      1.0  0.10011  0.24138  0.46353  1.0000
  C   C244      1.0  0.1496500000000001  0.28543000000000013  0.41917  1.0000
  C   C245      1.0  0.11631  0.35082  0.38632  1.0000
  C   C246      1.0  0.0323  0.37092  0.39891  1.0000
  C   C247      1.0  0.9829800000000002  0.32705  0.44312000000000007  1.0000
  C   C248      1.0  0.16754  0.39921  0.33807  1.0000
  N   N1        1.0  0.1016  0.13381  0.22511  1.0000
  N   N2        1.0  0.41951  0.85163  0.25059  1.0000
  N   N3        1.0  0.89838  0.36618  0.7251  1.0000
  N   N4        1.0  0.58047  0.64848  0.75064  1.0000
  N   N5        1.0  0.8984  0.86619  0.77489  1.0000
  N   N6        1.0  0.58049  0.14836  0.7494100000000001  1.0000
  N   N7        1.0  0.10162  0.63381  0.2749  1.0000
  N   N8        1.0  0.41953  0.35152  0.24936  1.0000
  O   O1        1.0  0.27703  0.12879  0.28756  1.0000
  O   O2        1.0  0.36803  0.02817  0.30643  1.0000
  O   O3        1.0  0.61849  0.49973  0.67174  1.0000
  O   O4        1.0  0.7331  0.42356  0.6563  1.0000
  O   O5        1.0  0.75374  0.62024  0.8095500000000001  1.0000
  O   O6        1.0  0.83926  0.5124800000000003  0.8185600000000001  1.0000
  O   O7        1.0  0.13004  0.9583  0.18771000000000002  1.0000
  O   O8        1.0  0.24237000000000003  0.87871  0.17473  1.0000
  O   O9        1.0  0.7230100000000003  0.37129  0.7874099999999999  1.0000
  O   O10       1.0  0.63206  0.47193  0.8063900000000002  1.0000
  O   O11       1.0  0.3811  0.00074  0.17161  1.0000
  O   O12       1.0  0.26786  0.07922  0.15673  1.0000
  O   O13       1.0  0.24626999999999996  0.87979  0.30955  1.0000
  O   O14       1.0  0.16077  0.98754  0.31851  1.0000
  O   O15       1.0  0.8701200000000002  0.54198  0.68782  1.0000
  O   O16       1.0  0.75763  0.62135  0.67472  1.0000
  O   O17       1.0  0.7229700000000001  0.8712  0.71244  1.0000
  O   O18       1.0  0.63197  0.97183  0.69357  1.0000
  O   O19       1.0  0.38151  0.50027  0.32826  1.0000
  O   O20       1.0  0.2669  0.57644  0.3437  1.0000
  O   O21       1.0  0.24626000000000003  0.37975  0.19045  1.0000
  O   O22       1.0  0.16074000000000005  0.48752  0.18144  1.0000
  O   O23       1.0  0.86996  0.04169  0.81229  1.0000
  O   O24       1.0  0.75762  0.12129  0.82527  1.0000
  O   O25       1.0  0.27699  0.62871  0.21258  1.0000
  O   O26       1.0  0.36794  0.52807  0.19360999999999998  1.0000
  O   O27       1.0  0.6189  0.9992600000000001  0.82839  1.0000
  O   O28       1.0  0.73214  0.92078  0.84327  1.0000
  O   O29       1.0  0.75373  0.12021  0.69045  1.0000
  O   O30       1.0  0.83923  0.01245  0.68149  1.0000
  O   O31       1.0  0.12988  0.45801  0.31218  1.0000
  O   O32       1.0  0.24237  0.37865  0.32528  1.0000
