data_image0
_chemical_formula_structural       Cu16H176C256O64
_chemical_formula_sum              "Cu16 H176 C256 O64"
_cell_length_a       18.95697
_cell_length_b       18.95697
_cell_length_c       36.36499
_cell_angle_alpha    90.0
_cell_angle_beta     90.0
_cell_angle_gamma    90.0

_symmetry_space_group_name_H-M    'P 1'
_symmetry_Int_Tables_number       1

loop_
  _symmetry_equiv_pos_as_xyz
  'x,y,z'

loop_
  _atom_site_type_symbol
  _atom_site_label
  _atom_site_symmetry_multiplicity
  _atom_site_fract_x
  _atom_site_fract_y
  _atom_site_fract_z
  _atom_site_occupancy
  Cu  Cu1       1.0  0.20498  0.79502  0.22912  1.0000
  Cu  Cu2       1.0  0.26358  0.73642  0.28062  1.0000
  Cu  Cu3       1.0  0.79502  0.20498  0.22912  1.0000
  Cu  Cu4       1.0  0.73642  0.26358  0.28062  1.0000
  Cu  Cu5       1.0  0.70498  0.70498  0.7291199999999998  1.0000
  Cu  Cu6       1.0  0.7635799999999998  0.7635799999999998  0.78062  1.0000
  Cu  Cu7       1.0  0.29502  0.29502  0.7291199999999998  1.0000
  Cu  Cu8       1.0  0.23642  0.23642  0.78062  1.0000
  Cu  Cu9       1.0  0.29502  0.29502  0.27088  1.0000
  Cu  Cu10      1.0  0.23642  0.23642  0.21938  1.0000
  Cu  Cu11      1.0  0.70498  0.70498  0.27088  1.0000
  Cu  Cu12      1.0  0.7635799999999998  0.7635799999999998  0.21938  1.0000
  Cu  Cu13      1.0  0.79502  0.20498  0.77088  1.0000
  Cu  Cu14      1.0  0.73642  0.26358  0.71938  1.0000
  Cu  Cu15      1.0  0.20498  0.79502  0.77088  1.0000
  Cu  Cu16      1.0  0.26358  0.73642  0.71938  1.0000
  H   H1        1.0  0.4859399999999999  0.75388  0.24617999999999998  1.0000
  H   H2        1.0  0.3641699999999999  0.79109  0.14821  1.0000
  H   H3        1.0  0.59033  0.77134  0.14139999999999997  1.0000
  H   H4        1.0  0.4447  0.8934999999999998  0.02718  1.0000
  H   H5        1.0  0.49045999999999995  0.67084  0.026109999999999994  1.0000
  H   H6        1.0  0.45211999999999997  0.90867  0.12917999999999996  1.0000
  H   H7        1.0  0.3915899999999999  0.9335299999999999  0.09429  1.0000
  H   H8        1.0  0.48231999999999997  0.9534399999999998  0.08947  1.0000
  H   H9        1.0  0.49588  0.60556  0.0789  1.0000
  H   H10       1.0  0.45785  0.64016  0.11984999999999998  1.0000
  H   H11       1.0  0.54914  0.6492199999999999  0.11201  1.0000
  H   H12       1.0  0.5140499999999999  0.24610999999999997  0.24617999999999998  1.0000
  H   H13       1.0  0.63583  0.20890999999999998  0.14821  1.0000
  H   H14       1.0  0.40966  0.22865  0.14139999999999997  1.0000
  H   H15       1.0  0.55529  0.10649999999999998  0.02718  1.0000
  H   H16       1.0  0.50954  0.32916  0.026109999999999994  1.0000
  H   H17       1.0  0.5478699999999997  0.09132999999999998  0.12917999999999996  1.0000
  H   H18       1.0  0.6084  0.06646  0.09429  1.0000
  H   H19       1.0  0.5176699999999999  0.04654999999999999  0.08947  1.0000
  H   H20       1.0  0.50412  0.39443  0.0789  1.0000
  H   H21       1.0  0.5421499999999999  0.3598299999999999  0.11984999999999998  1.0000
  H   H22       1.0  0.4508599999999999  0.35078  0.11201  1.0000
  H   H23       1.0  0.74611  0.9859399999999999  0.7461699999999999  1.0000
  H   H24       1.0  0.7088999999999999  0.8641699999999999  0.64821  1.0000
  H   H25       1.0  0.72865  0.09034  0.6414  1.0000
  H   H26       1.0  0.6064899999999999  0.9446999999999999  0.52718  1.0000
  H   H27       1.0  0.8291499999999998  0.9904599999999999  0.52611  1.0000
  H   H28       1.0  0.59133  0.9521199999999999  0.6291799999999999  1.0000
  H   H29       1.0  0.56646  0.8915899999999999  0.59428  1.0000
  H   H30       1.0  0.5465499999999999  0.9823199999999999  0.5894699999999999  1.0000
  H   H31       1.0  0.8944299999999998  0.99588  0.5789  1.0000
  H   H32       1.0  0.8598299999999998  0.9578499999999999  0.61985  1.0000
  H   H33       1.0  0.85078  0.049139999999999996  0.61201  1.0000
  H   H34       1.0  0.25389  0.01405  0.7461699999999999  1.0000
  H   H35       1.0  0.29109  0.13583  0.64821  1.0000
  H   H36       1.0  0.27134  0.9096599999999999  0.6414  1.0000
  H   H37       1.0  0.3935  0.05529  0.52718  1.0000
  H   H38       1.0  0.17084  0.00954  0.52611  1.0000
  H   H39       1.0  0.40867  0.04788  0.6291799999999999  1.0000
  H   H40       1.0  0.43352999999999997  0.10840999999999999  0.59428  1.0000
  H   H41       1.0  0.45343999999999995  0.01768  0.5894699999999999  1.0000
  H   H42       1.0  0.10555999999999997  0.004119999999999999  0.5789  1.0000
  H   H43       1.0  0.14016  0.04215  0.61985  1.0000
  H   H44       1.0  0.14922  0.95086  0.61201  1.0000
  H   H45       1.0  0.01405  0.25389  0.25382  1.0000
  H   H46       1.0  0.13583  0.29109  0.3517899999999999  1.0000
  H   H47       1.0  0.9096599999999999  0.27134  0.3586  1.0000
  H   H48       1.0  0.05529  0.3935  0.47282  1.0000
  H   H49       1.0  0.00954  0.17084  0.47389  1.0000
  H   H50       1.0  0.04788  0.40867  0.3708199999999999  1.0000
  H   H51       1.0  0.10840999999999999  0.43352999999999997  0.4057099999999999  1.0000
  H   H52       1.0  0.01768  0.45343999999999995  0.41053  1.0000
  H   H53       1.0  0.004119999999999999  0.10555999999999997  0.4211  1.0000
  H   H54       1.0  0.04215  0.14016  0.38015  1.0000
  H   H55       1.0  0.95086  0.14922  0.38799  1.0000
  H   H56       1.0  0.9859399999999999  0.74611  0.25382  1.0000
  H   H57       1.0  0.8641699999999999  0.7088999999999999  0.3517899999999999  1.0000
  H   H58       1.0  0.09034  0.72865  0.3586  1.0000
  H   H59       1.0  0.9446999999999999  0.6064899999999999  0.47282  1.0000
  H   H60       1.0  0.9904599999999999  0.8291499999999998  0.47389  1.0000
  H   H61       1.0  0.9521199999999999  0.59133  0.3708199999999999  1.0000
  H   H62       1.0  0.8915899999999999  0.56646  0.4057099999999999  1.0000
  H   H63       1.0  0.9823199999999999  0.5465499999999999  0.41053  1.0000
  H   H64       1.0  0.99588  0.8944299999999998  0.4211  1.0000
  H   H65       1.0  0.9578499999999999  0.8598299999999998  0.38015  1.0000
  H   H66       1.0  0.049139999999999996  0.85078  0.38799  1.0000
  H   H67       1.0  0.7538899999999998  0.4859399999999999  0.75382  1.0000
  H   H68       1.0  0.79109  0.3641699999999999  0.8517899999999998  1.0000
  H   H69       1.0  0.77134  0.59033  0.8585999999999998  1.0000
  H   H70       1.0  0.8934999999999998  0.4447  0.9728199999999999  1.0000
  H   H71       1.0  0.67084  0.49045999999999995  0.97389  1.0000
  H   H72       1.0  0.90867  0.45211999999999997  0.87082  1.0000
  H   H73       1.0  0.9335299999999999  0.3915899999999999  0.90571  1.0000
  H   H74       1.0  0.9534399999999998  0.48231999999999997  0.9105299999999998  1.0000
  H   H75       1.0  0.60556  0.49587  0.9211  1.0000
  H   H76       1.0  0.64016  0.45785  0.88015  1.0000
  H   H77       1.0  0.6492199999999999  0.54914  0.88799  1.0000
  H   H78       1.0  0.24610999999999997  0.5140499999999999  0.75382  1.0000
  H   H79       1.0  0.20890999999999998  0.63583  0.8517899999999998  1.0000
  H   H80       1.0  0.22865  0.40966  0.8585999999999998  1.0000
  H   H81       1.0  0.10649999999999998  0.55529  0.9728199999999999  1.0000
  H   H82       1.0  0.32916  0.50954  0.97389  1.0000
  H   H83       1.0  0.09132999999999998  0.5478699999999997  0.87082  1.0000
  H   H84       1.0  0.06646  0.6084  0.90571  1.0000
  H   H85       1.0  0.04654999999999999  0.5176699999999999  0.9105299999999998  1.0000
  H   H86       1.0  0.39443  0.50412  0.9211  1.0000
  H   H87       1.0  0.3598299999999999  0.5421499999999999  0.88015  1.0000
  H   H88       1.0  0.35078  0.4508599999999999  0.88799  1.0000
  H   H89       1.0  0.5140499999999999  0.24610999999999997  0.75382  1.0000
  H   H90       1.0  0.63583  0.20890999999999998  0.8517899999999998  1.0000
  H   H91       1.0  0.40966  0.22865  0.8585999999999998  1.0000
  H   H92       1.0  0.55529  0.10649999999999998  0.9728199999999999  1.0000
  H   H93       1.0  0.50954  0.32916  0.97389  1.0000
  H   H94       1.0  0.5478699999999997  0.09132999999999998  0.87082  1.0000
  H   H95       1.0  0.6084  0.06646  0.90571  1.0000
  H   H96       1.0  0.5176699999999999  0.04654999999999999  0.9105299999999998  1.0000
  H   H97       1.0  0.50412  0.39443  0.9211  1.0000
  H   H98       1.0  0.5421499999999999  0.3598299999999999  0.88015  1.0000
  H   H99       1.0  0.4508599999999999  0.35078  0.88799  1.0000
  H   H100      1.0  0.4859399999999999  0.75388  0.75382  1.0000
  H   H101      1.0  0.3641699999999999  0.79109  0.8517899999999998  1.0000
  H   H102      1.0  0.59033  0.77134  0.8585999999999998  1.0000
  H   H103      1.0  0.4447  0.8934999999999998  0.9728199999999999  1.0000
  H   H104      1.0  0.49045999999999995  0.67084  0.97389  1.0000
  H   H105      1.0  0.45211999999999997  0.90867  0.87082  1.0000
  H   H106      1.0  0.3915899999999999  0.9335299999999999  0.90571  1.0000
  H   H107      1.0  0.48231999999999997  0.9534399999999998  0.9105299999999998  1.0000
  H   H108      1.0  0.49588  0.60556  0.9211  1.0000
  H   H109      1.0  0.45785  0.64016  0.88015  1.0000
  H   H110      1.0  0.54914  0.6492199999999999  0.88799  1.0000
  H   H111      1.0  0.25389  0.01405  0.25382  1.0000
  H   H112      1.0  0.29109  0.13583  0.3517899999999999  1.0000
  H   H113      1.0  0.27134  0.9096599999999999  0.3586  1.0000
  H   H114      1.0  0.3935  0.05529  0.47282  1.0000
  H   H115      1.0  0.17084  0.00954  0.47389  1.0000
  H   H116      1.0  0.40867  0.04788  0.3708199999999999  1.0000
  H   H117      1.0  0.43352999999999997  0.10840999999999999  0.4057099999999999  1.0000
  H   H118      1.0  0.45343999999999995  0.01768  0.41053  1.0000
  H   H119      1.0  0.10555999999999997  0.004119999999999999  0.4211  1.0000
  H   H120      1.0  0.14016  0.04215  0.38015  1.0000
  H   H121      1.0  0.14922  0.95086  0.38799  1.0000
  H   H122      1.0  0.74611  0.9859399999999999  0.25382  1.0000
  H   H123      1.0  0.7088999999999999  0.8641699999999999  0.3517899999999999  1.0000
  H   H124      1.0  0.72865  0.09034  0.3586  1.0000
  H   H125      1.0  0.6064899999999999  0.9446999999999999  0.47282  1.0000
  H   H126      1.0  0.8291499999999998  0.9904599999999999  0.47389  1.0000
  H   H127      1.0  0.59133  0.9521199999999999  0.3708199999999999  1.0000
  H   H128      1.0  0.56646  0.8915899999999999  0.4057099999999999  1.0000
  H   H129      1.0  0.5465499999999999  0.9823199999999999  0.41053  1.0000
  H   H130      1.0  0.8944299999999998  0.99588  0.4211  1.0000
  H   H131      1.0  0.8598299999999998  0.9578499999999999  0.38015  1.0000
  H   H132      1.0  0.85078  0.049139999999999996  0.38799  1.0000
  H   H133      1.0  0.9859399999999999  0.74611  0.7461699999999999  1.0000
  H   H134      1.0  0.8641699999999999  0.7088999999999999  0.64821  1.0000
  H   H135      1.0  0.09034  0.72865  0.6414  1.0000
  H   H136      1.0  0.9446999999999999  0.6064899999999999  0.52718  1.0000
  H   H137      1.0  0.9904599999999999  0.8291499999999998  0.52611  1.0000
  H   H138      1.0  0.9521199999999999  0.59133  0.6291799999999999  1.0000
  H   H139      1.0  0.8915899999999999  0.56646  0.59428  1.0000
  H   H140      1.0  0.9823199999999999  0.5465499999999999  0.5894699999999999  1.0000
  H   H141      1.0  0.99588  0.8944299999999998  0.5789  1.0000
  H   H142      1.0  0.9578499999999999  0.8598299999999998  0.61985  1.0000
  H   H143      1.0  0.049139999999999996  0.85078  0.61201  1.0000
  H   H144      1.0  0.01405  0.25389  0.7461699999999999  1.0000
  H   H145      1.0  0.13583  0.29109  0.64821  1.0000
  H   H146      1.0  0.9096599999999999  0.27134  0.6414  1.0000
  H   H147      1.0  0.05529  0.3935  0.52718  1.0000
  H   H148      1.0  0.00954  0.17084  0.52611  1.0000
  H   H149      1.0  0.04788  0.40867  0.6291799999999999  1.0000
  H   H150      1.0  0.10840999999999999  0.43352999999999997  0.59428  1.0000
  H   H151      1.0  0.01768  0.45343999999999995  0.5894699999999999  1.0000
  H   H152      1.0  0.004119999999999999  0.10555999999999997  0.5789  1.0000
  H   H153      1.0  0.04215  0.14016  0.61985  1.0000
  H   H154      1.0  0.95086  0.14922  0.61201  1.0000
  H   H155      1.0  0.24610999999999997  0.5140499999999999  0.24617999999999998  1.0000
  H   H156      1.0  0.20890999999999998  0.63583  0.14821  1.0000
  H   H157      1.0  0.22865  0.40966  0.14139999999999997  1.0000
  H   H158      1.0  0.10649999999999998  0.55529  0.02718  1.0000
  H   H159      1.0  0.32916  0.50954  0.026109999999999994  1.0000
  H   H160      1.0  0.09132999999999998  0.5478699999999997  0.12917999999999996  1.0000
  H   H161      1.0  0.06646  0.6084  0.09429  1.0000
  H   H162      1.0  0.04654999999999999  0.5176699999999999  0.08947  1.0000
  H   H163      1.0  0.39443  0.50412  0.0789  1.0000
  H   H164      1.0  0.3598299999999999  0.5421499999999999  0.11984999999999998  1.0000
  H   H165      1.0  0.35078  0.4508599999999999  0.11201  1.0000
  H   H166      1.0  0.7538899999999998  0.4859399999999999  0.24617999999999998  1.0000
  H   H167      1.0  0.79109  0.3641699999999999  0.14821  1.0000
  H   H168      1.0  0.77134  0.59033  0.14139999999999997  1.0000
  H   H169      1.0  0.8934999999999998  0.4447  0.02718  1.0000
  H   H170      1.0  0.67084  0.49045999999999995  0.026109999999999994  1.0000
  H   H171      1.0  0.90867  0.45211999999999997  0.12917999999999996  1.0000
  H   H172      1.0  0.9335299999999999  0.3915899999999999  0.09429  1.0000
  H   H173      1.0  0.9534399999999998  0.48231999999999997  0.08947  1.0000
  H   H174      1.0  0.60556  0.49587  0.0789  1.0000
  H   H175      1.0  0.64016  0.45785  0.11984999999999998  1.0000
  H   H176      1.0  0.6492199999999999  0.54914  0.11201  1.0000
  C   C1        1.0  0.48357  0.76265  0.21666  1.0000
  C   C2        1.0  0.4186799999999999  0.7747499999999998  0.19943999999999998  1.0000
  C   C3        1.0  0.41529999999999995  0.78305  0.16111  1.0000
  C   C4        1.0  0.47653  0.7797599999999999  0.13958999999999994  1.0000
  C   C5        1.0  0.5417399999999999  0.7717599999999998  0.15732  1.0000
  C   C6        1.0  0.54538  0.76297  0.19558  1.0000
  C   C7        1.0  0.35202  0.7763599999999999  0.22128999999999996  1.0000
  C   C8        1.0  0.6152999999999998  0.7522  0.21361999999999995  1.0000
  C   C9        1.0  0.47253999999999996  0.78179  0.09868  1.0000
  C   C10       1.0  0.45753  0.8445799999999999  0.07957  1.0000
  C   C11       1.0  0.45577  0.8438799999999999  0.04102  1.0000
  C   C12       1.0  0.46811  0.78244  0.020459999999999996  1.0000
  C   C13       1.0  0.48149999999999993  0.7202599999999999  0.04045  1.0000
  C   C14       1.0  0.48394999999999994  0.71874  0.07878  1.0000
  C   C15       1.0  0.44506999999999997  0.9133799999999997  0.09939  1.0000
  C   C16       1.0  0.49740999999999996  0.64979  0.09832999999999997  1.0000
  C   C17       1.0  0.51643  0.23734999999999998  0.21666  1.0000
  C   C18       1.0  0.5813199999999998  0.22524999999999998  0.19943999999999998  1.0000
  C   C19       1.0  0.5846899999999999  0.21693999999999994  0.16111  1.0000
  C   C20       1.0  0.52347  0.22024  0.13958999999999994  1.0000
  C   C21       1.0  0.45826  0.22823999999999997  0.15732  1.0000
  C   C22       1.0  0.45461999999999997  0.23701999999999998  0.19558  1.0000
  C   C23       1.0  0.64798  0.22362999999999997  0.22128999999999996  1.0000
  C   C24       1.0  0.38469  0.24779999999999996  0.21361999999999995  1.0000
  C   C25       1.0  0.5274499999999998  0.21820999999999996  0.09868  1.0000
  C   C26       1.0  0.54247  0.15542  0.07957  1.0000
  C   C27       1.0  0.54423  0.15612  0.04102  1.0000
  C   C28       1.0  0.5318899999999999  0.21756  0.020459999999999996  1.0000
  C   C29       1.0  0.5185  0.2797399999999999  0.04045  1.0000
  C   C30       1.0  0.51605  0.28126  0.07878  1.0000
  C   C31       1.0  0.55493  0.08661  0.09939  1.0000
  C   C32       1.0  0.50259  0.35021  0.09832999999999997  1.0000
  C   C33       1.0  0.73735  0.9835699999999999  0.71666  1.0000
  C   C34       1.0  0.72525  0.91868  0.6994399999999997  1.0000
  C   C35       1.0  0.71694  0.9152999999999998  0.66111  1.0000
  C   C36       1.0  0.72024  0.9765199999999999  0.63959  1.0000
  C   C37       1.0  0.72824  0.041739999999999985  0.65732  1.0000
  C   C38       1.0  0.73702  0.04537999999999999  0.69557  1.0000
  C   C39       1.0  0.72364  0.85203  0.7213  1.0000
  C   C40       1.0  0.7478  0.1153  0.7136299999999998  1.0000
  C   C41       1.0  0.7182  0.9725399999999998  0.59868  1.0000
  C   C42       1.0  0.65542  0.95753  0.57957  1.0000
  C   C43       1.0  0.65612  0.95577  0.54102  1.0000
  C   C44       1.0  0.71756  0.96811  0.5204599999999999  1.0000
  C   C45       1.0  0.7797299999999999  0.9814899999999999  0.5404499999999999  1.0000
  C   C46       1.0  0.78125  0.9839399999999999  0.57878  1.0000
  C   C47       1.0  0.58661  0.9450699999999999  0.5993899999999999  1.0000
  C   C48       1.0  0.85021  0.99741  0.59833  1.0000
  C   C49       1.0  0.26265  0.01643  0.71666  1.0000
  C   C50       1.0  0.27475  0.08132  0.6994399999999997  1.0000
  C   C51       1.0  0.2830599999999999  0.08469  0.66111  1.0000
  C   C52       1.0  0.27975999999999995  0.02347  0.63959  1.0000
  C   C53       1.0  0.27176  0.95826  0.65732  1.0000
  C   C54       1.0  0.26298  0.9546199999999999  0.69557  1.0000
  C   C55       1.0  0.27635999999999994  0.14797  0.7213  1.0000
  C   C56       1.0  0.25219  0.8846999999999999  0.7136299999999998  1.0000
  C   C57       1.0  0.28179  0.027459999999999995  0.59868  1.0000
  C   C58       1.0  0.34458  0.04247  0.57957  1.0000
  C   C59       1.0  0.34387999999999996  0.04423  0.54102  1.0000
  C   C60       1.0  0.28244  0.03189  0.5204599999999999  1.0000
  C   C61       1.0  0.22026  0.0185  0.5404499999999999  1.0000
  C   C62       1.0  0.21873999999999996  0.01605  0.57878  1.0000
  C   C63       1.0  0.4133799999999999  0.05492999999999999  0.5993899999999999  1.0000
  C   C64       1.0  0.14978999999999998  0.00259  0.59833  1.0000
  C   C65       1.0  0.01643  0.26265  0.28334  1.0000
  C   C66       1.0  0.08132  0.27475  0.30056  1.0000
  C   C67       1.0  0.08469  0.2830599999999999  0.33889  1.0000
  C   C68       1.0  0.02347  0.27975999999999995  0.36041  1.0000
  C   C69       1.0  0.95826  0.27176  0.34268  1.0000
  C   C70       1.0  0.9546199999999999  0.26296999999999987  0.30443  1.0000
  C   C71       1.0  0.14797  0.27635999999999994  0.2787  1.0000
  C   C72       1.0  0.8846999999999999  0.25219  0.28637  1.0000
  C   C73       1.0  0.027459999999999995  0.28179  0.4013199999999999  1.0000
  C   C74       1.0  0.04247  0.34458  0.42043  1.0000
  C   C75       1.0  0.04423  0.34387999999999996  0.45898  1.0000
  C   C76       1.0  0.03189  0.28244  0.47953999999999997  1.0000
  C   C77       1.0  0.0185  0.22026  0.45955  1.0000
  C   C78       1.0  0.01605  0.21873999999999996  0.42122  1.0000
  C   C79       1.0  0.05492999999999999  0.4133799999999999  0.4006099999999999  1.0000
  C   C80       1.0  0.00259  0.14978999999999998  0.40167  1.0000
  C   C81       1.0  0.9835699999999999  0.73735  0.28334  1.0000
  C   C82       1.0  0.91868  0.72525  0.30056  1.0000
  C   C83       1.0  0.9152999999999998  0.71694  0.33889  1.0000
  C   C84       1.0  0.9765199999999999  0.72024  0.36041  1.0000
  C   C85       1.0  0.041739999999999985  0.72824  0.34268  1.0000
  C   C86       1.0  0.04537999999999999  0.73702  0.30443  1.0000
  C   C87       1.0  0.85203  0.72364  0.2787  1.0000
  C   C88       1.0  0.1153  0.74781  0.28637  1.0000
  C   C89       1.0  0.9725399999999998  0.7182  0.4013199999999999  1.0000
  C   C90       1.0  0.95753  0.65542  0.42043  1.0000
  C   C91       1.0  0.95577  0.65612  0.45898  1.0000
  C   C92       1.0  0.96811  0.71756  0.47953999999999997  1.0000
  C   C93       1.0  0.9814899999999999  0.7797299999999999  0.45955  1.0000
  C   C94       1.0  0.98395  0.78125  0.42122  1.0000
  C   C95       1.0  0.9450699999999999  0.58661  0.4006099999999999  1.0000
  C   C96       1.0  0.99741  0.85021  0.40167  1.0000
  C   C97       1.0  0.76265  0.48357  0.78334  1.0000
  C   C98       1.0  0.7747499999999998  0.4186799999999999  0.80055  1.0000
  C   C99       1.0  0.7830599999999999  0.41529999999999995  0.8388899999999998  1.0000
  C   C100      1.0  0.7797599999999999  0.47653  0.8604099999999998  1.0000
  C   C101      1.0  0.7717599999999998  0.54173  0.84268  1.0000
  C   C102      1.0  0.76297  0.54538  0.80442  1.0000
  C   C103      1.0  0.7763599999999999  0.35202  0.77871  1.0000
  C   C104      1.0  0.7522  0.6152999999999998  0.7863799999999997  1.0000
  C   C105      1.0  0.78179  0.47253999999999996  0.9013199999999999  1.0000
  C   C106      1.0  0.8445799999999999  0.45753  0.92043  1.0000
  C   C107      1.0  0.8438799999999999  0.45577  0.95898  1.0000
  C   C108      1.0  0.78244  0.46811  0.97954  1.0000
  C   C109      1.0  0.7202599999999999  0.48149999999999993  0.9595499999999999  1.0000
  C   C110      1.0  0.71874  0.48394999999999994  0.92122  1.0000
  C   C111      1.0  0.9133799999999997  0.44506999999999997  0.90061  1.0000
  C   C112      1.0  0.64979  0.49740999999999996  0.9016699999999999  1.0000
  C   C113      1.0  0.23734999999999998  0.51643  0.78334  1.0000
  C   C114      1.0  0.22524999999999998  0.5813199999999998  0.80055  1.0000
  C   C115      1.0  0.21693999999999994  0.5846899999999999  0.8388899999999998  1.0000
  C   C116      1.0  0.22024  0.52347  0.8604099999999998  1.0000
  C   C117      1.0  0.22823999999999997  0.45826  0.84268  1.0000
  C   C118      1.0  0.23701999999999998  0.45461999999999997  0.80442  1.0000
  C   C119      1.0  0.22362999999999997  0.64797  0.77871  1.0000
  C   C120      1.0  0.24779999999999996  0.3846999999999999  0.7863799999999997  1.0000
  C   C121      1.0  0.21820999999999996  0.5274499999999998  0.9013199999999999  1.0000
  C   C122      1.0  0.15542  0.54247  0.92043  1.0000
  C   C123      1.0  0.15612  0.54423  0.95898  1.0000
  C   C124      1.0  0.21756  0.5318899999999999  0.97954  1.0000
  C   C125      1.0  0.2797399999999999  0.5185  0.9595499999999999  1.0000
  C   C126      1.0  0.28126  0.51605  0.92122  1.0000
  C   C127      1.0  0.08661  0.55493  0.90061  1.0000
  C   C128      1.0  0.35021  0.50259  0.9016699999999999  1.0000
  C   C129      1.0  0.51643  0.23734999999999998  0.78334  1.0000
  C   C130      1.0  0.5813199999999998  0.22524999999999998  0.80055  1.0000
  C   C131      1.0  0.5846899999999999  0.21693999999999994  0.8388899999999998  1.0000
  C   C132      1.0  0.52347  0.22024  0.8604099999999998  1.0000
  C   C133      1.0  0.45826  0.22823999999999997  0.84268  1.0000
  C   C134      1.0  0.45461999999999997  0.23701999999999998  0.80442  1.0000
  C   C135      1.0  0.64798  0.22362999999999997  0.77871  1.0000
  C   C136      1.0  0.3846999999999999  0.24779999999999996  0.7863799999999997  1.0000
  C   C137      1.0  0.5274499999999998  0.21820999999999996  0.9013199999999999  1.0000
  C   C138      1.0  0.54247  0.15542  0.92043  1.0000
  C   C139      1.0  0.54423  0.15612  0.95898  1.0000
  C   C140      1.0  0.5318899999999999  0.21756  0.97954  1.0000
  C   C141      1.0  0.5185  0.2797399999999999  0.9595499999999999  1.0000
  C   C142      1.0  0.51605  0.28126  0.92122  1.0000
  C   C143      1.0  0.55493  0.08661  0.90061  1.0000
  C   C144      1.0  0.50259  0.35021  0.9016699999999999  1.0000
  C   C145      1.0  0.48357  0.76265  0.78334  1.0000
  C   C146      1.0  0.4186799999999999  0.7747499999999998  0.80055  1.0000
  C   C147      1.0  0.41529999999999995  0.78305  0.8388899999999998  1.0000
  C   C148      1.0  0.47653  0.7797599999999999  0.8604099999999998  1.0000
  C   C149      1.0  0.54173  0.7717599999999998  0.84268  1.0000
  C   C150      1.0  0.54538  0.76297  0.80442  1.0000
  C   C151      1.0  0.35202  0.7763599999999999  0.77871  1.0000
  C   C152      1.0  0.6152999999999998  0.7522  0.7863799999999997  1.0000
  C   C153      1.0  0.47253999999999996  0.78179  0.9013199999999999  1.0000
  C   C154      1.0  0.45753  0.8445799999999999  0.92043  1.0000
  C   C155      1.0  0.45577  0.8438799999999999  0.95898  1.0000
  C   C156      1.0  0.46811  0.78244  0.97954  1.0000
  C   C157      1.0  0.48149999999999993  0.7202599999999999  0.9595499999999999  1.0000
  C   C158      1.0  0.48394999999999994  0.71874  0.92122  1.0000
  C   C159      1.0  0.44506999999999997  0.9133799999999997  0.90061  1.0000
  C   C160      1.0  0.49740999999999996  0.64979  0.9016699999999999  1.0000
  C   C161      1.0  0.26265  0.01643  0.28334  1.0000
  C   C162      1.0  0.27475  0.08132  0.30056  1.0000
  C   C163      1.0  0.2830599999999999  0.08469  0.33889  1.0000
  C   C164      1.0  0.27975999999999995  0.02347  0.36041  1.0000
  C   C165      1.0  0.27176  0.95826  0.34268  1.0000
  C   C166      1.0  0.26298  0.9546199999999999  0.30443  1.0000
  C   C167      1.0  0.27635999999999994  0.14797  0.2787  1.0000
  C   C168      1.0  0.25219  0.8846999999999999  0.28637  1.0000
  C   C169      1.0  0.28179  0.027459999999999995  0.4013199999999999  1.0000
  C   C170      1.0  0.34458  0.04247  0.42043  1.0000
  C   C171      1.0  0.34387999999999996  0.04423  0.45898  1.0000
  C   C172      1.0  0.28244  0.03189  0.47953999999999997  1.0000
  C   C173      1.0  0.22026  0.0185  0.45955  1.0000
  C   C174      1.0  0.21873999999999996  0.01605  0.42122  1.0000
  C   C175      1.0  0.4133799999999999  0.05492999999999999  0.4006099999999999  1.0000
  C   C176      1.0  0.14978999999999998  0.00259  0.40167  1.0000
  C   C177      1.0  0.73735  0.9835699999999999  0.28334  1.0000
  C   C178      1.0  0.72525  0.91868  0.30056  1.0000
  C   C179      1.0  0.71694  0.9152999999999998  0.33889  1.0000
  C   C180      1.0  0.72024  0.9765199999999999  0.36041  1.0000
  C   C181      1.0  0.72824  0.041739999999999985  0.34268  1.0000
  C   C182      1.0  0.73702  0.04537999999999999  0.30443  1.0000
  C   C183      1.0  0.72364  0.85203  0.2787  1.0000
  C   C184      1.0  0.74781  0.1153  0.28637  1.0000
  C   C185      1.0  0.7182  0.9725399999999998  0.4013199999999999  1.0000
  C   C186      1.0  0.65542  0.95753  0.42043  1.0000
  C   C187      1.0  0.65612  0.95577  0.45898  1.0000
  C   C188      1.0  0.71756  0.96811  0.47953999999999997  1.0000
  C   C189      1.0  0.7797299999999999  0.9814899999999999  0.45955  1.0000
  C   C190      1.0  0.78125  0.9839399999999999  0.42122  1.0000
  C   C191      1.0  0.58661  0.9450699999999999  0.4006099999999999  1.0000
  C   C192      1.0  0.85021  0.99741  0.40167  1.0000
  C   C193      1.0  0.9835699999999999  0.73735  0.71666  1.0000
  C   C194      1.0  0.91868  0.72525  0.6994399999999997  1.0000
  C   C195      1.0  0.9152999999999998  0.71694  0.66111  1.0000
  C   C196      1.0  0.9765199999999999  0.72024  0.63959  1.0000
  C   C197      1.0  0.041739999999999985  0.72824  0.65732  1.0000
  C   C198      1.0  0.04537999999999999  0.73702  0.69557  1.0000
  C   C199      1.0  0.85203  0.72364  0.7213  1.0000
  C   C200      1.0  0.1153  0.7478  0.7136299999999998  1.0000
  C   C201      1.0  0.9725399999999998  0.7182  0.59868  1.0000
  C   C202      1.0  0.95753  0.65542  0.57957  1.0000
  C   C203      1.0  0.95577  0.65612  0.54102  1.0000
  C   C204      1.0  0.96811  0.71756  0.5204599999999999  1.0000
  C   C205      1.0  0.9814899999999999  0.7797299999999999  0.5404499999999999  1.0000
  C   C206      1.0  0.98395  0.78125  0.57878  1.0000
  C   C207      1.0  0.9450699999999999  0.58661  0.5993899999999999  1.0000
  C   C208      1.0  0.99741  0.85021  0.59833  1.0000
  C   C209      1.0  0.01643  0.26265  0.71666  1.0000
  C   C210      1.0  0.08132  0.27475  0.6994399999999997  1.0000
  C   C211      1.0  0.08469  0.2830599999999999  0.66111  1.0000
  C   C212      1.0  0.02347  0.27975999999999995  0.63959  1.0000
  C   C213      1.0  0.95826  0.27176  0.65732  1.0000
  C   C214      1.0  0.9546199999999999  0.26298  0.69557  1.0000
  C   C215      1.0  0.14797  0.27635999999999994  0.7213  1.0000
  C   C216      1.0  0.8846999999999999  0.25219  0.7136299999999998  1.0000
  C   C217      1.0  0.027459999999999995  0.28179  0.59868  1.0000
  C   C218      1.0  0.04247  0.34458  0.57957  1.0000
  C   C219      1.0  0.04423  0.34387999999999996  0.54102  1.0000
  C   C220      1.0  0.03189  0.28244  0.5204599999999999  1.0000
  C   C221      1.0  0.0185  0.22026  0.5404499999999999  1.0000
  C   C222      1.0  0.01605  0.21873999999999996  0.57878  1.0000
  C   C223      1.0  0.05492999999999999  0.4133799999999999  0.5993899999999999  1.0000
  C   C224      1.0  0.00259  0.14978999999999998  0.59833  1.0000
  C   C225      1.0  0.23734999999999998  0.51643  0.21666  1.0000
  C   C226      1.0  0.22524999999999998  0.5813199999999998  0.19943999999999998  1.0000
  C   C227      1.0  0.21693999999999994  0.5846899999999999  0.16111  1.0000
  C   C228      1.0  0.22024  0.52347  0.13958999999999994  1.0000
  C   C229      1.0  0.22823999999999997  0.45826  0.15732  1.0000
  C   C230      1.0  0.23701999999999998  0.45461999999999997  0.19558  1.0000
  C   C231      1.0  0.22362999999999997  0.64798  0.22128999999999996  1.0000
  C   C232      1.0  0.24779999999999996  0.38469  0.21361999999999995  1.0000
  C   C233      1.0  0.21820999999999996  0.5274499999999998  0.09868  1.0000
  C   C234      1.0  0.15542  0.54247  0.07957  1.0000
  C   C235      1.0  0.15612  0.54423  0.04102  1.0000
  C   C236      1.0  0.21756  0.5318899999999999  0.020459999999999996  1.0000
  C   C237      1.0  0.2797399999999999  0.5185  0.04045  1.0000
  C   C238      1.0  0.28126  0.51605  0.07878  1.0000
  C   C239      1.0  0.08661  0.55493  0.09939  1.0000
  C   C240      1.0  0.35021  0.50259  0.09832999999999997  1.0000
  C   C241      1.0  0.76265  0.48357  0.21666  1.0000
  C   C242      1.0  0.7747499999999998  0.4186799999999999  0.19943999999999998  1.0000
  C   C243      1.0  0.7830599999999999  0.41529999999999995  0.16111  1.0000
  C   C244      1.0  0.7797599999999999  0.47653  0.13958999999999994  1.0000
  C   C245      1.0  0.7717599999999998  0.54173  0.15732  1.0000
  C   C246      1.0  0.76297  0.54538  0.19558  1.0000
  C   C247      1.0  0.7763599999999999  0.35202  0.22128999999999996  1.0000
  C   C248      1.0  0.7522  0.6152999999999998  0.21361999999999995  1.0000
  C   C249      1.0  0.78179  0.47253999999999996  0.09868  1.0000
  C   C250      1.0  0.8445799999999999  0.45753  0.07957  1.0000
  C   C251      1.0  0.8438799999999999  0.45577  0.04102  1.0000
  C   C252      1.0  0.78244  0.46811  0.020459999999999996  1.0000
  C   C253      1.0  0.7202599999999999  0.48149999999999993  0.04045  1.0000
  C   C254      1.0  0.71874  0.48394999999999994  0.07878  1.0000
  C   C255      1.0  0.9133799999999997  0.44506999999999997  0.09939  1.0000
  C   C256      1.0  0.64979  0.49740999999999996  0.09832999999999997  1.0000
  O   O1        1.0  0.29806  0.80352  0.20549  1.0000
  O   O2        1.0  0.35353  0.74985  0.25368  1.0000
  O   O3        1.0  0.6149  0.72118  0.24488999999999997  1.0000
  O   O4        1.0  0.6698899999999999  0.7744299999999997  0.19632  1.0000
  O   O5        1.0  0.70194  0.19647  0.20549  1.0000
  O   O6        1.0  0.64647  0.25014999999999993  0.25368  1.0000
  O   O7        1.0  0.38509  0.27881  0.24488999999999997  1.0000
  O   O8        1.0  0.33011  0.22557  0.19632  1.0000
  O   O9        1.0  0.6964699999999998  0.79805  0.70548  1.0000
  O   O10       1.0  0.75014  0.8535299999999999  0.75367  1.0000
  O   O11       1.0  0.7788099999999998  0.11489999999999997  0.7448799999999999  1.0000
  O   O12       1.0  0.72556  0.1699  0.69631  1.0000
  O   O13       1.0  0.30352999999999997  0.20195  0.70548  1.0000
  O   O14       1.0  0.24984999999999993  0.14646999999999996  0.75367  1.0000
  O   O15       1.0  0.22118999999999997  0.88509  0.7448799999999999  1.0000
  O   O16       1.0  0.27443  0.8301  0.69631  1.0000
  O   O17       1.0  0.20195  0.30352999999999997  0.29452  1.0000
  O   O18       1.0  0.14646999999999996  0.24984999999999993  0.24633  1.0000
  O   O19       1.0  0.88509  0.22118999999999997  0.25512  1.0000
  O   O20       1.0  0.8301  0.27443  0.3036899999999999  1.0000
  O   O21       1.0  0.79805  0.6964699999999998  0.29452  1.0000
  O   O22       1.0  0.8535299999999999  0.75014  0.24633  1.0000
  O   O23       1.0  0.11490999999999998  0.7788099999999998  0.25512  1.0000
  O   O24       1.0  0.1699  0.72556  0.3036899999999999  1.0000
  O   O25       1.0  0.80352  0.29806  0.7945099999999998  1.0000
  O   O26       1.0  0.74985  0.35353  0.74632  1.0000
  O   O27       1.0  0.72118  0.6149  0.75511  1.0000
  O   O28       1.0  0.7744299999999997  0.6698899999999999  0.8036799999999998  1.0000
  O   O29       1.0  0.19647  0.70194  0.7945099999999998  1.0000
  O   O30       1.0  0.25014999999999993  0.64647  0.74632  1.0000
  O   O31       1.0  0.27881  0.38509  0.75511  1.0000
  O   O32       1.0  0.22557  0.33011  0.8036799999999998  1.0000
  O   O33       1.0  0.70194  0.19647  0.7945099999999998  1.0000
  O   O34       1.0  0.64647  0.25014999999999993  0.74632  1.0000
  O   O35       1.0  0.38509  0.27881  0.75511  1.0000
  O   O36       1.0  0.33011  0.22557  0.8036799999999998  1.0000
  O   O37       1.0  0.29806  0.80352  0.7945099999999998  1.0000
  O   O38       1.0  0.35353  0.74985  0.74632  1.0000
  O   O39       1.0  0.6149  0.72118  0.75511  1.0000
  O   O40       1.0  0.6698899999999999  0.7744299999999997  0.8036799999999998  1.0000
  O   O41       1.0  0.30352999999999997  0.20195  0.29452  1.0000
  O   O42       1.0  0.24984999999999993  0.14646999999999996  0.24633  1.0000
  O   O43       1.0  0.22118999999999997  0.88509  0.25512  1.0000
  O   O44       1.0  0.27443  0.8301  0.3036899999999999  1.0000
  O   O45       1.0  0.6964699999999998  0.79805  0.29452  1.0000
  O   O46       1.0  0.75014  0.8535299999999999  0.24633  1.0000
  O   O47       1.0  0.7788099999999998  0.11489999999999997  0.25512  1.0000
  O   O48       1.0  0.72556  0.1699  0.3036899999999999  1.0000
  O   O49       1.0  0.79805  0.6964699999999998  0.70548  1.0000
  O   O50       1.0  0.8535299999999999  0.75014  0.75367  1.0000
  O   O51       1.0  0.11490999999999998  0.7788099999999998  0.7448799999999999  1.0000
  O   O52       1.0  0.1699  0.72556  0.69631  1.0000
  O   O53       1.0  0.20195  0.30352999999999997  0.70548  1.0000
  O   O54       1.0  0.14646999999999996  0.24984999999999993  0.75367  1.0000
  O   O55       1.0  0.88509  0.22118999999999997  0.7448799999999999  1.0000
  O   O56       1.0  0.8301  0.27443  0.69631  1.0000
  O   O57       1.0  0.19647  0.70194  0.20549  1.0000
  O   O58       1.0  0.25014999999999993  0.64647  0.25368  1.0000
  O   O59       1.0  0.27881  0.38509  0.24488999999999997  1.0000
  O   O60       1.0  0.22557  0.33011  0.19632  1.0000
  O   O61       1.0  0.80352  0.29806  0.20549  1.0000
  O   O62       1.0  0.74985  0.35353  0.25368  1.0000
  O   O63       1.0  0.72118  0.6149  0.24488999999999997  1.0000
  O   O64       1.0  0.7744299999999997  0.6698899999999999  0.19632  1.0000
