data_image0
_chemical_formula_structural       Ni16H168C200N24O64
_chemical_formula_sum              "Ni16 H168 C200 N24 O64"
_cell_length_a       17.60996
_cell_length_b       17.60996
_cell_length_c       17.6386
_cell_angle_alpha    90.00272
_cell_angle_beta     89.99682
_cell_angle_gamma    90.02909

_symmetry_space_group_name_H-M    'P 1'
_symmetry_Int_Tables_number       1

loop_
  _symmetry_equiv_pos_as_xyz
  'x,y,z'

loop_
  _atom_site_type_symbol
  _atom_site_label
  _atom_site_symmetry_multiplicity
  _atom_site_fract_x
  _atom_site_fract_y
  _atom_site_fract_z
  _atom_site_occupancy
  Ni  Ni1       1.0  0.61121  0.42245  0.9190099999999999  1.0000
  Ni  Ni2       1.0  0.72541  0.52442  0.80064  1.0000
  Ni  Ni3       1.0  0.38889  0.57763  0.419  1.0000
  Ni  Ni4       1.0  0.27466  0.47549  0.30084  1.0000
  Ni  Ni5       1.0  0.07734  0.11035999999999997  0.66898  1.0000
  Ni  Ni6       1.0  0.97552  0.22541999999999998  0.5508800000000001  1.0000
  Ni  Ni7       1.0  0.92266  0.88996  0.16909  1.0000
  Ni  Ni8       1.0  0.02453  0.7745899999999998  0.051  1.0000
  Ni  Ni9       1.0  0.8899699999999998  0.92265  0.83091  1.0000
  Ni  Ni10      1.0  0.7745899999999999  0.02452  0.949  1.0000
  Ni  Ni11      1.0  0.11037  0.07734  0.33102  1.0000
  Ni  Ni12      1.0  0.22543  0.97552  0.44912  1.0000
  Ni  Ni13      1.0  0.42245  0.6112099999999999  0.08098  1.0000
  Ni  Ni14      1.0  0.52443  0.72541  0.19936  1.0000
  Ni  Ni15      1.0  0.57763  0.38888  0.58099  1.0000
  Ni  Ni16      1.0  0.47548999999999997  0.27466  0.69916  1.0000
  H   H1        1.0  0.68533  0.07904  0.25209000000000004  1.0000
  H   H2        1.0  0.59828  0.09194999999999998  0.30208  1.0000
  H   H3        1.0  0.70028  0.9631599999999999  0.16458  1.0000
  H   H4        1.0  0.66107  0.82771  0.14912  1.0000
  H   H5        1.0  0.49861999999999995  0.9952199999999999  0.3008  1.0000
  H   H6        1.0  0.46945  0.85827  0.28123  1.0000
  H   H7        1.0  0.64703  0.69276  0.67306  1.0000
  H   H8        1.0  0.73826  0.68095  0.71456  1.0000
  H   H9        1.0  0.73838  0.75696  0.79448  1.0000
  H   H10       1.0  0.5593999999999998  0.62461  0.90066  1.0000
  H   H11       1.0  0.52837  0.63539  0.77001  1.0000
  H   H12       1.0  0.5716  0.5706399999999999  0.70592  1.0000
  H   H13       1.0  0.64814  0.8215099999999997  0.01051  1.0000
  H   H14       1.0  0.70792  0.38724  0.03669  1.0000
  H   H15       1.0  0.71735  0.3035  0.14993000000000004  1.0000
  H   H16       1.0  0.48266  0.24365000000000003  0.11420999999999999  1.0000
  H   H17       1.0  0.48314999999999997  0.32539999999999997  0.9996300000000001  1.0000
  H   H18       1.0  0.6634499999999999  0.21737  0.2334  1.0000
  H   H19       1.0  0.5649799999999999  0.22534  0.25154  1.0000
  H   H20       1.0  0.63027  0.11534  0.13299  1.0000
  H   H21       1.0  0.53725  0.1158  0.16924  1.0000
  H   H22       1.0  0.3144399999999999  0.9203799999999999  0.7523  1.0000
  H   H23       1.0  0.40183  0.9078899999999998  0.80176  1.0000
  H   H24       1.0  0.29928  0.03641  0.6640200000000002  1.0000
  H   H25       1.0  0.33823  0.17194  0.64865  1.0000
  H   H26       1.0  0.5001399999999998  0.00502  0.80145  1.0000
  H   H27       1.0  0.52925  0.14198  0.78174  1.0000
  H   H28       1.0  0.35417  0.30794  0.17293  1.0000
  H   H29       1.0  0.26288  0.31878  0.21455  1.0000
  H   H30       1.0  0.26243  0.24337  0.29399  1.0000
  H   H31       1.0  0.4409499999999999  0.37551  0.40117  1.0000
  H   H32       1.0  0.47243999999999997  0.36515  0.2704  1.0000
  H   H33       1.0  0.4290199999999999  0.42971  0.20623000000000005  1.0000
  H   H34       1.0  0.35196  0.1781  0.51006  1.0000
  H   H35       1.0  0.29263  0.61225  0.53643  1.0000
  H   H36       1.0  0.28261  0.6961399999999999  0.64952  1.0000
  H   H37       1.0  0.51745  0.7560599999999998  0.61464  1.0000
  H   H38       1.0  0.51746  0.6741899999999997  0.5001  1.0000
  H   H39       1.0  0.33636  0.78229  0.73331  1.0000
  H   H40       1.0  0.4348599999999999  0.77463  0.75147  1.0000
  H   H41       1.0  0.36905  0.88422  0.63288  1.0000
  H   H42       1.0  0.46221999999999996  0.884  0.6687  1.0000
  H   H43       1.0  0.42045999999999994  0.18535999999999994  0.00258  1.0000
  H   H44       1.0  0.4078  0.09813  0.05229  1.0000
  H   H45       1.0  0.53606  0.20053  0.9143900000000001  1.0000
  H   H46       1.0  0.67155  0.16173999999999994  0.89858  1.0000
  H   H47       1.0  0.50487  0.99919  0.05122  1.0000
  H   H48       1.0  0.64176  0.97016  0.031020000000000002  1.0000
  H   H49       1.0  0.8076099999999998  0.14685  0.42245  1.0000
  H   H50       1.0  0.81857  0.23773  0.46462  1.0000
  H   H51       1.0  0.74223  0.23790999999999998  0.54515  1.0000
  H   H52       1.0  0.87568  0.05961999999999999  0.65076  1.0000
  H   H53       1.0  0.8645199999999997  0.02782  0.51997  1.0000
  H   H54       1.0  0.92916  0.07145  0.45597000000000004  1.0000
  H   H55       1.0  0.67858  0.14697  0.76121  1.0000
  H   H56       1.0  0.11225  0.20697  0.7862400000000003  1.0000
  H   H57       1.0  0.19629  0.21744999999999998  0.8990900000000002  1.0000
  H   H58       1.0  0.25686  0.9827999999999999  0.86443  1.0000
  H   H59       1.0  0.17468  0.98231  0.75011  1.0000
  H   H60       1.0  0.28236  0.16399999999999998  0.9831100000000002  1.0000
  H   H61       1.0  0.27407  0.06564  0.00174  1.0000
  H   H62       1.0  0.3844999999999999  0.13032  0.88322  1.0000
  H   H63       1.0  0.38365  0.037339999999999984  0.9195300000000001  1.0000
  H   H64       1.0  0.57937  0.8140999999999998  0.5020600000000001  1.0000
  H   H65       1.0  0.5921  0.90126  0.55188  1.0000
  H   H66       1.0  0.46337  0.7990099999999998  0.41427  1.0000
  H   H67       1.0  0.32791  0.83787  0.399  1.0000
  H   H68       1.0  0.49498  0.99985  0.55176  1.0000
  H   H69       1.0  0.3580699999999999  0.029030000000000004  0.532  1.0000
  H   H70       1.0  0.19261  0.85355  0.9229000000000002  1.0000
  H   H71       1.0  0.18162  0.76229  0.96464  1.0000
  H   H72       1.0  0.25747  0.76259  0.04476  1.0000
  H   H73       1.0  0.12474  0.9412  0.1508  1.0000
  H   H74       1.0  0.13548  0.9720599999999999  0.02037  1.0000
  H   H75       1.0  0.07132  0.92861  0.9558200000000001  1.0000
  H   H76       1.0  0.32105999999999996  0.85223  0.26137  1.0000
  H   H77       1.0  0.88797  0.79298  0.2865  1.0000
  H   H78       1.0  0.8039799999999998  0.78264  0.39948  1.0000
  H   H79       1.0  0.74378  0.01738  0.36491  1.0000
  H   H80       1.0  0.82586  0.0177  0.2505  1.0000
  H   H81       1.0  0.71759  0.8359199999999999  0.4831599999999999  1.0000
  H   H82       1.0  0.72541  0.9343300000000001  0.50176  1.0000
  H   H83       1.0  0.61573  0.8690299999999997  0.38288  1.0000
  H   H84       1.0  0.61613  0.96211  0.41898000000000013  1.0000
  H   H85       1.0  0.8141099999999998  0.57937  0.49794  1.0000
  H   H86       1.0  0.9012599999999998  0.5921  0.44811  1.0000
  H   H87       1.0  0.79901  0.46336  0.58573  1.0000
  H   H88       1.0  0.8378699999999999  0.3279  0.601  1.0000
  H   H89       1.0  0.99985  0.49497  0.44824  1.0000
  H   H90       1.0  0.02903  0.35807  0.4680000000000001  1.0000
  H   H91       1.0  0.85355  0.19261  0.0771  1.0000
  H   H92       1.0  0.76229  0.18161999999999995  0.03536  1.0000
  H   H93       1.0  0.76259  0.25746  0.95524  1.0000
  H   H94       1.0  0.9412  0.12473  0.8491900000000001  1.0000
  H   H95       1.0  0.9720599999999999  0.13548  0.97962  1.0000
  H   H96       1.0  0.9286099999999999  0.07132  0.04418  1.0000
  H   H97       1.0  0.8522299999999998  0.32106  0.7386300000000001  1.0000
  H   H98       1.0  0.7929799999999998  0.88797  0.7135  1.0000
  H   H99       1.0  0.78264  0.80398  0.60052  1.0000
  H   H100      1.0  0.017379999999999993  0.74377  0.63508  1.0000
  H   H101      1.0  0.01771  0.82585  0.7495  1.0000
  H   H102      1.0  0.8359199999999998  0.71759  0.51684  1.0000
  H   H103      1.0  0.9343299999999999  0.72541  0.49823000000000006  1.0000
  H   H104      1.0  0.8690299999999997  0.61573  0.61711  1.0000
  H   H105      1.0  0.9621099999999999  0.61613  0.58102  1.0000
  H   H106      1.0  0.18536  0.42046  0.99741  1.0000
  H   H107      1.0  0.09813  0.4078  0.9477100000000002  1.0000
  H   H108      1.0  0.20052999999999996  0.53606  0.08561  1.0000
  H   H109      1.0  0.16173999999999994  0.67154  0.10142  1.0000
  H   H110      1.0  0.99919  0.50487  0.94878  1.0000
  H   H111      1.0  0.97016  0.64175  0.9689800000000001  1.0000
  H   H112      1.0  0.14686  0.80761  0.57755  1.0000
  H   H113      1.0  0.23772999999999997  0.8185699999999998  0.53537  1.0000
  H   H114      1.0  0.23791  0.74223  0.45485  1.0000
  H   H115      1.0  0.059629999999999996  0.8756799999999998  0.34923000000000004  1.0000
  H   H116      1.0  0.027829999999999994  0.86452  0.48003000000000007  1.0000
  H   H117      1.0  0.07145  0.9291499999999999  0.54402  1.0000
  H   H118      1.0  0.14697  0.6785799999999997  0.23879  1.0000
  H   H119      1.0  0.20696999999999993  0.11225  0.21375  1.0000
  H   H120      1.0  0.21745  0.19628999999999994  0.1009  1.0000
  H   H121      1.0  0.9828  0.25686  0.13556000000000004  1.0000
  H   H122      1.0  0.98232  0.17468  0.24989000000000003  1.0000
  H   H123      1.0  0.16399999999999995  0.28236  0.01688  1.0000
  H   H124      1.0  0.06564999999999997  0.27407  0.9982500000000001  1.0000
  H   H125      1.0  0.13033  0.3845  0.11676999999999998  1.0000
  H   H126      1.0  0.03735  0.38365  0.08047  1.0000
  H   H127      1.0  0.07904999999999998  0.6853199999999999  0.7479  1.0000
  H   H128      1.0  0.09194999999999998  0.59828  0.69792  1.0000
  H   H129      1.0  0.9631699999999999  0.70028  0.83542  1.0000
  H   H130      1.0  0.82772  0.66106  0.85088  1.0000
  H   H131      1.0  0.9952299999999998  0.49862  0.69919  1.0000
  H   H132      1.0  0.85827  0.4694499999999999  0.7187700000000001  1.0000
  H   H133      1.0  0.69276  0.64703  0.32693000000000005  1.0000
  H   H134      1.0  0.6809599999999998  0.73826  0.28543  1.0000
  H   H135      1.0  0.75697  0.73838  0.20552  1.0000
  H   H136      1.0  0.62461  0.5594  0.09934  1.0000
  H   H137      1.0  0.6354  0.52837  0.22997999999999996  1.0000
  H   H138      1.0  0.57065  0.5716  0.29408  1.0000
  H   H139      1.0  0.82152  0.64813  0.98949  1.0000
  H   H140      1.0  0.38724  0.70792  0.9633100000000001  1.0000
  H   H141      1.0  0.3035  0.71735  0.85007  1.0000
  H   H142      1.0  0.24364999999999998  0.48266  0.88578  1.0000
  H   H143      1.0  0.3254  0.48315  0.00037  1.0000
  H   H144      1.0  0.21737999999999996  0.6634499999999998  0.7666  1.0000
  H   H145      1.0  0.22535  0.56498  0.74846  1.0000
  H   H146      1.0  0.11534  0.63027  0.867  1.0000
  H   H147      1.0  0.1158  0.53725  0.83076  1.0000
  H   H148      1.0  0.92038  0.31444  0.24769  1.0000
  H   H149      1.0  0.9079  0.4018299999999999  0.19824  1.0000
  H   H150      1.0  0.03642  0.29928  0.33598  1.0000
  H   H151      1.0  0.17194  0.33823  0.35135000000000005  1.0000
  H   H152      1.0  0.00503  0.50014  0.19854  1.0000
  H   H153      1.0  0.14198  0.52925  0.21826  1.0000
  H   H154      1.0  0.30794  0.35416  0.82707  1.0000
  H   H155      1.0  0.31878  0.26288  0.78545  1.0000
  H   H156      1.0  0.24338  0.26241  0.706  1.0000
  H   H157      1.0  0.37549999999999994  0.4409499999999999  0.59882  1.0000
  H   H158      1.0  0.36514999999999986  0.47243  0.7296  1.0000
  H   H159      1.0  0.42970999999999987  0.42901999999999996  0.79377  1.0000
  H   H160      1.0  0.17809999999999995  0.35194  0.48994  1.0000
  H   H161      1.0  0.61225  0.29263  0.46357  1.0000
  H   H162      1.0  0.69614  0.28260999999999986  0.35048  1.0000
  H   H163      1.0  0.75606  0.5174499999999997  0.38535  1.0000
  H   H164      1.0  0.67419  0.51746  0.4999  1.0000
  H   H165      1.0  0.7823  0.33634999999999987  0.26669  1.0000
  H   H166      1.0  0.77464  0.43486  0.24853  1.0000
  H   H167      1.0  0.88422  0.36904  0.36712000000000006  1.0000
  H   H168      1.0  0.88401  0.46222  0.3313  1.0000
  C   C1        1.0  0.6232699999999998  0.07344  0.24801000000000004  1.0000
  C   C2        1.0  0.60268  0.99143  0.23487  1.0000
  C   C3        1.0  0.64839  0.9425599999999998  0.19154  1.0000
  C   C4        1.0  0.6271999999999998  0.8667699999999998  0.18294  1.0000
  C   C5        1.0  0.5365899999999999  0.9604599999999999  0.26657  1.0000
  C   C6        1.0  0.5197  0.8839899999999998  0.25641  1.0000
  C   C7        1.0  0.70224  0.58489  0.65089  1.0000
  C   C8        1.0  0.68392  0.65262  0.70342  1.0000
  C   C9        1.0  0.69856  0.74458  0.83974  1.0000
  C   C10       1.0  0.64926  0.68226  0.83727  1.0000
  C   C11       1.0  0.5991799999999999  0.67153  0.89828  1.0000
  C   C12       1.0  0.57381  0.59324  0.76376  1.0000
  C   C13       1.0  0.55874  0.52654  0.81662  1.0000
  C   C14       1.0  0.69713  0.7947499999999997  0.90142  1.0000
  C   C15       1.0  0.64827  0.78293  0.96253  1.0000
  C   C16       1.0  0.59989  0.7202599999999998  0.96086  1.0000
  C   C17       1.0  0.54951  0.70278  0.027  1.0000
  C   C18       1.0  0.74785  0.8628099999999999  0.9002900000000003  1.0000
  C   C19       1.0  0.65946  0.3541199999999999  0.05574  1.0000
  C   C20       1.0  0.66407  0.3075199999999999  0.11891  1.0000
  C   C21       1.0  0.60075  0.26516  0.14201  1.0000
  C   C22       1.0  0.53425  0.27433  0.09942000000000001  1.0000
  C   C23       1.0  0.5335  0.32115  0.03559  1.0000
  C   C24       1.0  0.60698  0.21078999999999995  0.20764  1.0000
  C   C25       1.0  0.59675  0.12700999999999998  0.1841  1.0000
  C   C26       1.0  0.37645  0.92629  0.74785  1.0000
  C   C27       1.0  0.39666  0.00841  0.73471  1.0000
  C   C28       1.0  0.35102  0.05717  0.6911700000000001  1.0000
  C   C29       1.0  0.37209  0.13303  0.68262  1.0000
  C   C30       1.0  0.46240999999999993  0.03964  0.76683  1.0000
  C   C31       1.0  0.47922  0.11613  0.75663  1.0000
  C   C32       1.0  0.29798  0.41531  0.15127  1.0000
  C   C33       1.0  0.31697  0.3475999999999999  0.20355  1.0000
  C   C34       1.0  0.3020999999999999  0.25539  0.33948  1.0000
  C   C35       1.0  0.3514299999999999  0.31772999999999996  0.3373  1.0000
  C   C36       1.0  0.4012599999999999  0.3285  0.39849  1.0000
  C   C37       1.0  0.42679  0.40704  0.26403  1.0000
  C   C38       1.0  0.44151  0.4737199999999999  0.31683  1.0000
  C   C39       1.0  0.30339  0.2051  0.4011  1.0000
  C   C40       1.0  0.35216  0.21685  0.46225000000000005  1.0000
  C   C41       1.0  0.40048  0.27952  0.46085999999999994  1.0000
  C   C42       1.0  0.4506299999999999  0.2970799999999999  0.52709  1.0000
  C   C43       1.0  0.25263  0.13704  0.40053  1.0000
  C   C44       1.0  0.34089  0.64558  0.55558  1.0000
  C   C45       1.0  0.33602  0.69219  0.6187  1.0000
  C   C46       1.0  0.39925  0.73459  0.64197  1.0000
  C   C47       1.0  0.46591999999999995  0.7254  0.59964  1.0000
  C   C48       1.0  0.46694  0.67857  0.53582  1.0000
  C   C49       1.0  0.39282  0.78898  0.7075500000000001  1.0000
  C   C50       1.0  0.40281  0.87273  0.68386  1.0000
  C   C51       1.0  0.4262099999999999  0.12333  0.99829  1.0000
  C   C52       1.0  0.50824  0.103  0.98495  1.0000
  C   C53       1.0  0.5569  0.14874  0.94135  1.0000
  C   C54       1.0  0.6327099999999998  0.12771  0.9325200000000001  1.0000
  C   C55       1.0  0.5394499999999998  0.03708  0.016670000000000004  1.0000
  C   C56       1.0  0.6158999999999998  0.02029  0.00617  1.0000
  C   C57       1.0  0.91527  0.20235  0.4013  1.0000
  C   C58       1.0  0.8473299999999998  0.18365  0.45351  1.0000
  C   C59       1.0  0.75488  0.19791999999999996  0.5901600000000001  1.0000
  C   C60       1.0  0.81737  0.1489  0.5874  1.0000
  C   C61       1.0  0.82849  0.09902999999999998  0.64848  1.0000
  C   C62       1.0  0.9065  0.0735  0.51381  1.0000
  C   C63       1.0  0.9732999999999999  0.05864  0.56656  1.0000
  C   C64       1.0  0.7048299999999997  0.19621  0.65199  1.0000
  C   C65       1.0  0.71687  0.14737  0.71299  1.0000
  C   C66       1.0  0.77978  0.09944999999999997  0.7110400000000001  1.0000
  C   C67       1.0  0.79738  0.04924  0.77711  1.0000
  C   C68       1.0  0.63685  0.24685  0.6511300000000001  1.0000
  C   C69       1.0  0.14553  0.15874  0.80547  1.0000
  C   C70       1.0  0.19224999999999995  0.1639  0.86851  1.0000
  C   C71       1.0  0.23472  0.10081999999999999  0.89192  1.0000
  C   C72       1.0  0.2258  0.03411  0.84958  1.0000
  C   C73       1.0  0.17883999999999994  0.03282  0.78586  1.0000
  C   C74       1.0  0.28888999999999987  0.10739  0.9576699999999999  1.0000
  C   C75       1.0  0.3726599999999999  0.09689  0.9343500000000001  1.0000
  C   C76       1.0  0.5736  0.87613  0.49788  1.0000
  C   C77       1.0  0.49151  0.89649  0.48482  1.0000
  C   C78       1.0  0.44269  0.85082  0.44133  1.0000
  C   C79       1.0  0.36686999999999986  0.87191  0.43277  1.0000
  C   C80       1.0  0.46034  0.9622299999999999  0.51698  1.0000
  C   C81       1.0  0.38388  0.97909  0.50672  1.0000
  C   C82       1.0  0.08498  0.79773  0.9013600000000002  1.0000
  C   C83       1.0  0.15289  0.81643  0.95363  1.0000
  C   C84       1.0  0.24494999999999997  0.80219  0.09015000000000001  1.0000
  C   C85       1.0  0.18253  0.85129  0.08759000000000002  1.0000
  C   C86       1.0  0.17158  0.9013299999999997  0.14859  1.0000
  C   C87       1.0  0.0935  0.9264599999999998  0.01383  1.0000
  C   C88       1.0  0.02657  0.9413499999999999  0.06647  1.0000
  C   C89       1.0  0.29494  0.8036  0.15202  1.0000
  C   C90       1.0  0.28282  0.8522399999999998  0.21314  1.0000
  C   C91       1.0  0.22024  0.90058  0.21120000000000003  1.0000
  C   C92       1.0  0.20273  0.95082  0.27726000000000006  1.0000
  C   C93       1.0  0.3630299999999999  0.75309  0.15122000000000002  1.0000
  C   C94       1.0  0.85463  0.84119  0.30568  1.0000
  C   C95       1.0  0.80793  0.8360899999999999  0.36874  1.0000
  C   C96       1.0  0.76541  0.8991599999999998  0.3921  1.0000
  C   C97       1.0  0.77452  0.96594  0.3499  1.0000
  C   C98       1.0  0.8214799999999998  0.96718  0.28618  1.0000
  C   C99       1.0  0.71099  0.89249  0.45765000000000006  1.0000
  C   C100      1.0  0.62725  0.90264  0.43398  1.0000
  C   C101      1.0  0.87614  0.5736  0.50212  1.0000
  C   C102      1.0  0.89649  0.49150999999999995  0.51518  1.0000
  C   C103      1.0  0.85082  0.44268  0.55866  1.0000
  C   C104      1.0  0.87192  0.36686  0.56723  1.0000
  C   C105      1.0  0.96224  0.46033999999999997  0.48302  1.0000
  C   C106      1.0  0.9790999999999999  0.38388  0.49328  1.0000
  C   C107      1.0  0.79773  0.08497  0.09864  1.0000
  C   C108      1.0  0.8164399999999999  0.15289  0.04637  1.0000
  C   C109      1.0  0.8021999999999999  0.24495  0.9098500000000002  1.0000
  C   C110      1.0  0.8513  0.18252  0.9124100000000002  1.0000
  C   C111      1.0  0.90133  0.17157  0.8514  1.0000
  C   C112      1.0  0.9264599999999998  0.09348999999999999  0.98616  1.0000
  C   C113      1.0  0.9413499999999999  0.026569999999999996  0.93352  1.0000
  C   C114      1.0  0.8035999999999998  0.29492999999999997  0.8479800000000002  1.0000
  C   C115      1.0  0.8522499999999997  0.28281  0.7868500000000003  1.0000
  C   C116      1.0  0.9005799999999998  0.22023999999999994  0.78879  1.0000
  C   C117      1.0  0.95082  0.20273  0.72274  1.0000
  C   C118      1.0  0.7530899999999998  0.36302999999999996  0.84877  1.0000
  C   C119      1.0  0.8412  0.8546299999999999  0.69431  1.0000
  C   C120      1.0  0.83609  0.80793  0.6312600000000002  1.0000
  C   C121      1.0  0.89917  0.7654  0.6079  1.0000
  C   C122      1.0  0.96594  0.77452  0.65009  1.0000
  C   C123      1.0  0.96718  0.8214699999999998  0.71382  1.0000
  C   C124      1.0  0.89249  0.71099  0.54234  1.0000
  C   C125      1.0  0.9026399999999998  0.62724  0.56602  1.0000
  C   C126      1.0  0.12333999999999999  0.42621  0.00171  1.0000
  C   C127      1.0  0.103  0.50824  0.01505  1.0000
  C   C128      1.0  0.14875  0.5569  0.05864  1.0000
  C   C129      1.0  0.12771  0.63271  0.06747  1.0000
  C   C130      1.0  0.03708  0.53945  0.98332  1.0000
  C   C131      1.0  0.020299999999999995  0.6159  0.99382  1.0000
  C   C132      1.0  0.20236  0.9152599999999999  0.5987  1.0000
  C   C133      1.0  0.18364999999999995  0.84733  0.54648  1.0000
  C   C134      1.0  0.19793  0.75488  0.40984  1.0000
  C   C135      1.0  0.1489  0.81737  0.41259  1.0000
  C   C136      1.0  0.09904  0.82849  0.35152  1.0000
  C   C137      1.0  0.07349999999999997  0.9065  0.48619  1.0000
  C   C138      1.0  0.058649999999999994  0.9732999999999999  0.43343  1.0000
  C   C139      1.0  0.19622  0.7048299999999997  0.348  1.0000
  C   C140      1.0  0.14738  0.71687  0.28701  1.0000
  C   C141      1.0  0.09946  0.77978  0.28895  1.0000
  C   C142      1.0  0.04924  0.79738  0.22289  1.0000
  C   C143      1.0  0.24686  0.63685  0.34887  1.0000
  C   C144      1.0  0.15875  0.14553  0.19452  1.0000
  C   C145      1.0  0.16389999999999993  0.19225  0.13148  1.0000
  C   C146      1.0  0.10082  0.23472  0.10807  1.0000
  C   C147      1.0  0.03411  0.2258  0.15041  1.0000
  C   C148      1.0  0.03283  0.17883999999999997  0.21414  1.0000
  C   C149      1.0  0.10738999999999997  0.28889  0.04232  1.0000
  C   C150      1.0  0.09689  0.37265999999999994  0.06565  1.0000
  C   C151      1.0  0.07344  0.6232699999999999  0.7519800000000001  1.0000
  C   C152      1.0  0.9914299999999999  0.60267  0.76513  1.0000
  C   C153      1.0  0.9425599999999998  0.64839  0.80846  1.0000
  C   C154      1.0  0.8667699999999998  0.6271899999999999  0.81706  1.0000
  C   C155      1.0  0.9604599999999999  0.5365899999999999  0.73342  1.0000
  C   C156      1.0  0.88399  0.51969  0.74358  1.0000
  C   C157      1.0  0.5849  0.70224  0.3491  1.0000
  C   C158      1.0  0.65263  0.68392  0.29657  1.0000
  C   C159      1.0  0.74459  0.69856  0.16026  1.0000
  C   C160      1.0  0.68227  0.6492599999999997  0.16273  1.0000
  C   C161      1.0  0.6715299999999997  0.59918  0.10171  1.0000
  C   C162      1.0  0.59325  0.5738  0.23624000000000003  1.0000
  C   C163      1.0  0.52654  0.55874  0.18337000000000003  1.0000
  C   C164      1.0  0.7947599999999998  0.69713  0.09857  1.0000
  C   C165      1.0  0.78293  0.64826  0.03746  1.0000
  C   C166      1.0  0.7202699999999997  0.59989  0.03914  1.0000
  C   C167      1.0  0.7027799999999997  0.54951  0.97299  1.0000
  C   C168      1.0  0.86282  0.74784  0.0997  1.0000
  C   C169      1.0  0.35412  0.65946  0.94425  1.0000
  C   C170      1.0  0.30753  0.66407  0.88109  1.0000
  C   C171      1.0  0.26516  0.60075  0.8579900000000001  1.0000
  C   C172      1.0  0.27433  0.53424  0.90058  1.0000
  C   C173      1.0  0.32115  0.53349  0.9644100000000001  1.0000
  C   C174      1.0  0.21079999999999993  0.60698  0.79235  1.0000
  C   C175      1.0  0.12701  0.59675  0.81589  1.0000
  C   C176      1.0  0.9262899999999998  0.37644  0.25215  1.0000
  C   C177      1.0  0.00841  0.39666  0.26529  1.0000
  C   C178      1.0  0.05716999999999999  0.35102  0.30883  1.0000
  C   C179      1.0  0.13303  0.37209  0.31738000000000005  1.0000
  C   C180      1.0  0.03965  0.46241  0.23317  1.0000
  C   C181      1.0  0.11613999999999998  0.47922  0.24337  1.0000
  C   C182      1.0  0.41532  0.29798  0.84872  1.0000
  C   C183      1.0  0.3475999999999999  0.31697  0.79645  1.0000
  C   C184      1.0  0.2554  0.30208999999999997  0.66052  1.0000
  C   C185      1.0  0.3177299999999999  0.35142  0.66269  1.0000
  C   C186      1.0  0.3285  0.40125  0.60151  1.0000
  C   C187      1.0  0.40704  0.4267799999999999  0.73596  1.0000
  C   C188      1.0  0.4737199999999999  0.44151  0.68316  1.0000
  C   C189      1.0  0.20511  0.30337  0.5989  1.0000
  C   C190      1.0  0.21686  0.35215  0.53775  1.0000
  C   C191      1.0  0.27952  0.40047  0.53914  1.0000
  C   C192      1.0  0.29708  0.45063  0.47291  1.0000
  C   C193      1.0  0.13705  0.25262  0.59947  1.0000
  C   C194      1.0  0.6455799999999998  0.3408899999999999  0.44442  1.0000
  C   C195      1.0  0.69219  0.33602  0.38129  1.0000
  C   C196      1.0  0.73459  0.39924  0.35803  1.0000
  C   C197      1.0  0.7254  0.46592  0.40036  1.0000
  C   C198      1.0  0.67857  0.46694  0.46418  1.0000
  C   C199      1.0  0.78898  0.39281  0.29244  1.0000
  C   C200      1.0  0.87274  0.4028  0.31614  1.0000
  N   N1        1.0  0.5642999999999999  0.83705  0.21546  1.0000
  N   N2        1.0  0.59577  0.35999  0.01319  1.0000
  N   N3        1.0  0.64978  0.62828  0.77619  1.0000
  N   N4        1.0  0.43483  0.16295  0.71534  1.0000
  N   N5        1.0  0.4046999999999999  0.63979  0.5132  1.0000
  N   N6        1.0  0.3509399999999999  0.37182999999999994  0.27636  1.0000
  N   N7        1.0  0.6626699999999998  0.06489999999999997  0.965  1.0000
  N   N8        1.0  0.13967  0.09478999999999999  0.76329  1.0000
  N   N9        1.0  0.8713099999999998  0.14937  0.52628  1.0000
  N   N10       1.0  0.33705  0.93473  0.46537  1.0000
  N   N11       1.0  0.86047  0.90515  0.26352  1.0000
  N   N12       1.0  0.12865  0.8506  0.02642  1.0000
  N   N13       1.0  0.9347299999999998  0.33705  0.53462  1.0000
  N   N14       1.0  0.90515  0.8604599999999998  0.73647  1.0000
  N   N15       1.0  0.85061  0.12864999999999996  0.97357  1.0000
  N   N16       1.0  0.06489999999999999  0.66267  0.035  1.0000
  N   N17       1.0  0.09479999999999995  0.13967  0.2367  1.0000
  N   N18       1.0  0.14937999999999996  0.87131  0.47372  1.0000
  N   N19       1.0  0.83706  0.5642899999999998  0.78454  1.0000
  N   N20       1.0  0.35998999999999987  0.59577  0.9868099999999999  1.0000
  N   N21       1.0  0.6282799999999997  0.64978  0.2238  1.0000
  N   N22       1.0  0.16295  0.43483  0.28466  1.0000
  N   N23       1.0  0.6397899999999997  0.4047  0.48679  1.0000
  N   N24       1.0  0.3718299999999999  0.35094  0.7236300000000001  1.0000
  O   O1        1.0  0.7082699999999997  0.5990599999999998  0.58178  1.0000
  O   O2        1.0  0.7119099999999998  0.51936  0.68226  1.0000
  O   O3        1.0  0.4970399999999999  0.51559  0.84862  1.0000
  O   O4        1.0  0.61725  0.48107999999999995  0.82519  1.0000
  O   O5        1.0  0.7311699999999998  0.9167300000000002  0.94446  1.0000
  O   O6        1.0  0.8026899999999999  0.85901  0.85241  1.0000
  O   O7        1.0  0.50728  0.6438099999999999  0.01855  1.0000
  O   O8        1.0  0.55256  0.74615  0.08406  1.0000
  O   O9        1.0  0.29162999999999994  0.40109  0.08221  1.0000
  O   O10       1.0  0.28812  0.48081999999999997  0.18262  1.0000
  O   O11       1.0  0.5031799999999998  0.48471  0.34885000000000005  1.0000
  O   O12       1.0  0.38285  0.51904  0.32524  1.0000
  O   O13       1.0  0.26886  0.08359  0.44548  1.0000
  O   O14       1.0  0.19793  0.14062  0.35243  1.0000
  O   O15       1.0  0.49271999999999994  0.35615  0.51862  1.0000
  O   O16       1.0  0.44752999999999993  0.25384  0.5842500000000002  1.0000
  O   O17       1.0  0.90114  0.20848999999999995  0.33218  1.0000
  O   O18       1.0  0.9808099999999998  0.21201  0.4326  1.0000
  O   O19       1.0  0.9843699999999999  0.9969599999999998  0.59857  1.0000
  O   O20       1.0  0.01877  0.11718  0.57516  1.0000
  O   O21       1.0  0.58353  0.23133  0.69656  1.0000
  O   O22       1.0  0.6402599999999998  0.3007  0.6021400000000001  1.0000
  O   O23       1.0  0.8563699999999997  0.007169999999999999  0.76858  1.0000
  O   O24       1.0  0.75404  0.05231  0.8342  1.0000
  O   O25       1.0  0.09905999999999998  0.79161  0.83224  1.0000
  O   O26       1.0  0.019439999999999995  0.78804  0.93275  1.0000
  O   O27       1.0  0.01559  0.00303  0.09854  1.0000
  O   O28       1.0  0.98108  0.88286  0.07509  1.0000
  O   O29       1.0  0.41628  0.7686299999999998  0.19668000000000002  1.0000
  O   O30       1.0  0.35976  0.6993  0.10216  1.0000
  O   O31       1.0  0.14379  0.9929599999999998  0.26857  1.0000
  O   O32       1.0  0.24595  0.94772  0.33442  1.0000
  O   O33       1.0  0.7916099999999998  0.09905  0.16776  1.0000
  O   O34       1.0  0.7880499999999999  0.01944  0.06725  1.0000
  O   O35       1.0  0.0030299999999999993  0.01558  0.90145  1.0000
  O   O36       1.0  0.88286  0.9810699999999999  0.9248999999999999  1.0000
  O   O37       1.0  0.76863  0.41627  0.80332  1.0000
  O   O38       1.0  0.69931  0.35976  0.89784  1.0000
  O   O39       1.0  0.99296  0.14378  0.73143  1.0000
  O   O40       1.0  0.94772  0.24594999999999997  0.66558  1.0000
  O   O41       1.0  0.20848999999999995  0.90114  0.6678100000000001  1.0000
  O   O42       1.0  0.21202  0.9808  0.56739  1.0000
  O   O43       1.0  0.99696  0.98436  0.40143  1.0000
  O   O44       1.0  0.11718  0.018769999999999995  0.42484  1.0000
  O   O45       1.0  0.23133999999999996  0.58353  0.30344  1.0000
  O   O46       1.0  0.30071  0.64026  0.39786  1.0000
  O   O47       1.0  0.00718  0.8563699999999997  0.23141999999999996  1.0000
  O   O48       1.0  0.05231  0.75404  0.1658  1.0000
  O   O49       1.0  0.59906  0.70827  0.41822  1.0000
  O   O50       1.0  0.51937  0.7119  0.31773  1.0000
  O   O51       1.0  0.51559  0.49704  0.15138  1.0000
  O   O52       1.0  0.48108  0.61725  0.17480000000000004  1.0000
  O   O53       1.0  0.9167299999999999  0.73118  0.05551  1.0000
  O   O54       1.0  0.8590299999999997  0.8026799999999998  0.14758000000000002  1.0000
  O   O55       1.0  0.6438099999999998  0.5072699999999999  0.98145  1.0000
  O   O56       1.0  0.74615  0.55255  0.91594  1.0000
  O   O57       1.0  0.40109  0.29162  0.9177899999999999  1.0000
  O   O58       1.0  0.48082  0.28812  0.81737  1.0000
  O   O59       1.0  0.4847099999999999  0.50317  0.65115  1.0000
  O   O60       1.0  0.51904  0.38285  0.67475  1.0000
  O   O61       1.0  0.08359  0.26886  0.55454  1.0000
  O   O62       1.0  0.14063  0.19790999999999995  0.64756  1.0000
  O   O63       1.0  0.3561499999999999  0.49271999999999994  0.48138000000000003  1.0000
  O   O64       1.0  0.25384  0.4475299999999999  0.41575  1.0000
