data_image0
_chemical_formula_structural       Cu16H160C272N16O64
_chemical_formula_sum              "Cu16 H160 C272 N16 O64"
_cell_length_a       26.69155
_cell_length_b       26.69155
_cell_length_c       27.63267
_cell_angle_alpha    90.0
_cell_angle_beta     90.0
_cell_angle_gamma    90.0

_symmetry_space_group_name_H-M    'P 1'
_symmetry_Int_Tables_number       1

loop_
  _symmetry_equiv_pos_as_xyz
  'x,y,z'

loop_
  _atom_site_type_symbol
  _atom_site_label
  _atom_site_symmetry_multiplicity
  _atom_site_fract_x
  _atom_site_fract_y
  _atom_site_fract_z
  _atom_site_occupancy
  Cu  Cu1       1.0  0.0  0.0  0.15177  1.0000
  Cu  Cu2       1.0  0.0  0.0  0.23986  1.0000
  Cu  Cu3       1.0  0.5  0.5  0.34823  1.0000
  Cu  Cu4       1.0  0.5  0.5  0.26014  1.0000
  Cu  Cu5       1.0  0.0  0.0  0.84823  1.0000
  Cu  Cu6       1.0  0.0  0.0  0.76014  1.0000
  Cu  Cu7       1.0  0.5  0.5  0.65177  1.0000
  Cu  Cu8       1.0  0.5  0.5  0.73986  1.0000
  Cu  Cu9       1.0  0.52037  0.040940000000000004  0.0  1.0000
  Cu  Cu10      1.0  0.4796300000000001  0.9590700000000001  0.0  1.0000
  Cu  Cu11      1.0  0.9590700000000001  0.52037  0.0  1.0000
  Cu  Cu12      1.0  0.040940000000000004  0.4796300000000001  0.0  1.0000
  Cu  Cu13      1.0  0.9796400000000002  0.5409400000000001  0.5  1.0000
  Cu  Cu14      1.0  0.020370000000000003  0.45907  0.5  1.0000
  Cu  Cu15      1.0  0.5409400000000001  0.020370000000000003  0.5  1.0000
  Cu  Cu16      1.0  0.45907  0.9796400000000002  0.5  1.0000
  H   H1        1.0  0.84903  0.95572  0.11840000000000003  1.0000
  H   H2        1.0  0.7610700000000001  0.92312  0.11811000000000003  1.0000
  H   H3        1.0  0.76506  0.91218  0.27333  1.0000
  H   H4        1.0  0.8528800000000001  0.9454600000000001  0.27321  1.0000
  H   H5        1.0  0.69581  0.9899900000000003  0.1706  1.0000
  H   H6        1.0  0.63199  0.0225  0.11266000000000001  1.0000
  H   H7        1.0  0.57325  0.87414  0.0947  1.0000
  H   H8        1.0  0.6377100000000001  0.8407700000000002  0.15133000000000005  1.0000
  H   H9        1.0  0.77248  0.8185200000000002  0.20268  1.0000
  H   H10       1.0  0.15097  0.04429  0.11840000000000003  1.0000
  H   H11       1.0  0.23893  0.07688000000000003  0.11811000000000003  1.0000
  H   H12       1.0  0.23494000000000004  0.08782  0.27333  1.0000
  H   H13       1.0  0.14712  0.05454000000000001  0.27321  1.0000
  H   H14       1.0  0.3042  0.01001  0.1706  1.0000
  H   H15       1.0  0.36801000000000006  0.9775000000000003  0.11266000000000001  1.0000
  H   H16       1.0  0.42676  0.12586000000000003  0.0947  1.0000
  H   H17       1.0  0.3622900000000001  0.15923  0.15133000000000005  1.0000
  H   H18       1.0  0.22753000000000007  0.18148  0.20268  1.0000
  H   H19       1.0  0.04429  0.84903  0.11840000000000003  1.0000
  H   H20       1.0  0.07688000000000003  0.7610700000000001  0.11811000000000003  1.0000
  H   H21       1.0  0.08782  0.76506  0.27333  1.0000
  H   H22       1.0  0.05454000000000001  0.8528800000000001  0.27321  1.0000
  H   H23       1.0  0.01001  0.69581  0.1706  1.0000
  H   H24       1.0  0.9775000000000003  0.63199  0.11266000000000001  1.0000
  H   H25       1.0  0.12586000000000003  0.57325  0.0947  1.0000
  H   H26       1.0  0.15923  0.6377100000000001  0.15133000000000005  1.0000
  H   H27       1.0  0.18148  0.77248  0.20268  1.0000
  H   H28       1.0  0.95572  0.15097  0.11840000000000003  1.0000
  H   H29       1.0  0.92312  0.23893  0.11811000000000003  1.0000
  H   H30       1.0  0.91218  0.23494000000000004  0.27333  1.0000
  H   H31       1.0  0.9454600000000001  0.14712  0.27321  1.0000
  H   H32       1.0  0.9899900000000003  0.3042  0.1706  1.0000
  H   H33       1.0  0.0225  0.36801000000000006  0.11266000000000001  1.0000
  H   H34       1.0  0.87414  0.42676  0.0947  1.0000
  H   H35       1.0  0.8407700000000002  0.3622900000000001  0.15133000000000005  1.0000
  H   H36       1.0  0.8185200000000002  0.22753000000000007  0.20268  1.0000
  H   H37       1.0  0.6509700000000002  0.45571  0.3816000000000001  1.0000
  H   H38       1.0  0.73893  0.42312  0.38189  1.0000
  H   H39       1.0  0.7349500000000002  0.4121800000000001  0.22667000000000007  1.0000
  H   H40       1.0  0.64712  0.44546000000000013  0.22679000000000005  1.0000
  H   H41       1.0  0.8042000000000002  0.48999  0.32940000000000014  1.0000
  H   H42       1.0  0.8680100000000002  0.5225  0.3873400000000001  1.0000
  H   H43       1.0  0.92676  0.37414  0.4053000000000001  1.0000
  H   H44       1.0  0.86229  0.34077000000000013  0.34867  1.0000
  H   H45       1.0  0.7275300000000002  0.31852000000000014  0.29732  1.0000
  H   H46       1.0  0.3490300000000001  0.54429  0.3816000000000001  1.0000
  H   H47       1.0  0.26107  0.57688  0.38189  1.0000
  H   H48       1.0  0.26506  0.58782  0.22667000000000007  1.0000
  H   H49       1.0  0.35288  0.55455  0.22679000000000005  1.0000
  H   H50       1.0  0.19581  0.51002  0.32940000000000014  1.0000
  H   H51       1.0  0.13199  0.4775000000000001  0.3873400000000001  1.0000
  H   H52       1.0  0.07324  0.6258600000000002  0.4053000000000001  1.0000
  H   H53       1.0  0.13771  0.6592400000000003  0.34867  1.0000
  H   H54       1.0  0.27247  0.6814900000000003  0.29732  1.0000
  H   H55       1.0  0.45571  0.3490300000000001  0.3816000000000001  1.0000
  H   H56       1.0  0.42312  0.26107  0.38189  1.0000
  H   H57       1.0  0.4121800000000001  0.26506  0.22667000000000007  1.0000
  H   H58       1.0  0.44546000000000013  0.35288  0.22679000000000005  1.0000
  H   H59       1.0  0.48999  0.19581  0.32940000000000014  1.0000
  H   H60       1.0  0.5225  0.13199  0.3873400000000001  1.0000
  H   H61       1.0  0.37414  0.07324  0.4053000000000001  1.0000
  H   H62       1.0  0.34077000000000013  0.13771  0.34867  1.0000
  H   H63       1.0  0.31852000000000014  0.27248  0.29732  1.0000
  H   H64       1.0  0.54429  0.6509700000000002  0.3816000000000001  1.0000
  H   H65       1.0  0.57688  0.73893  0.38189  1.0000
  H   H66       1.0  0.58782  0.7349500000000002  0.22667000000000007  1.0000
  H   H67       1.0  0.55455  0.64712  0.22679000000000005  1.0000
  H   H68       1.0  0.51002  0.8042000000000002  0.32940000000000014  1.0000
  H   H69       1.0  0.4775000000000001  0.8680100000000002  0.3873400000000001  1.0000
  H   H70       1.0  0.6258600000000002  0.92676  0.4053000000000001  1.0000
  H   H71       1.0  0.6592400000000003  0.86229  0.34867  1.0000
  H   H72       1.0  0.6814900000000003  0.7275300000000002  0.29732  1.0000
  H   H73       1.0  0.15097  0.04429  0.8816  1.0000
  H   H74       1.0  0.23893  0.07688000000000003  0.8818900000000001  1.0000
  H   H75       1.0  0.23494000000000004  0.08782  0.7266700000000003  1.0000
  H   H76       1.0  0.14712  0.05454000000000001  0.72679  1.0000
  H   H77       1.0  0.3042  0.01001  0.8294000000000002  1.0000
  H   H78       1.0  0.36801000000000006  0.9775000000000003  0.8873400000000002  1.0000
  H   H79       1.0  0.42676  0.12586000000000003  0.9053000000000002  1.0000
  H   H80       1.0  0.3622900000000001  0.15923  0.8486700000000001  1.0000
  H   H81       1.0  0.22753000000000007  0.18148  0.7973200000000003  1.0000
  H   H82       1.0  0.84903  0.95572  0.8816  1.0000
  H   H83       1.0  0.7610700000000001  0.92312  0.8818900000000001  1.0000
  H   H84       1.0  0.76506  0.91218  0.7266700000000003  1.0000
  H   H85       1.0  0.8528800000000001  0.9454600000000001  0.72679  1.0000
  H   H86       1.0  0.69581  0.9899900000000003  0.8294000000000002  1.0000
  H   H87       1.0  0.63199  0.0225  0.8873400000000002  1.0000
  H   H88       1.0  0.57325  0.87414  0.9053000000000002  1.0000
  H   H89       1.0  0.6377100000000001  0.8407700000000002  0.8486700000000001  1.0000
  H   H90       1.0  0.77248  0.8185200000000002  0.7973200000000003  1.0000
  H   H91       1.0  0.95572  0.15097  0.8816  1.0000
  H   H92       1.0  0.92312  0.23893  0.8818900000000001  1.0000
  H   H93       1.0  0.91218  0.23494000000000004  0.7266700000000003  1.0000
  H   H94       1.0  0.9454600000000001  0.14712  0.72679  1.0000
  H   H95       1.0  0.9899900000000003  0.3042  0.8294000000000002  1.0000
  H   H96       1.0  0.0225  0.36801000000000006  0.8873400000000002  1.0000
  H   H97       1.0  0.87414  0.42676  0.9053000000000002  1.0000
  H   H98       1.0  0.8407700000000002  0.3622900000000001  0.8486700000000001  1.0000
  H   H99       1.0  0.8185200000000002  0.22753000000000007  0.7973200000000003  1.0000
  H   H100      1.0  0.04429  0.84903  0.8816  1.0000
  H   H101      1.0  0.07688000000000003  0.7610700000000001  0.8818900000000001  1.0000
  H   H102      1.0  0.08782  0.76506  0.7266700000000003  1.0000
  H   H103      1.0  0.05454000000000001  0.8528800000000001  0.72679  1.0000
  H   H104      1.0  0.01001  0.69581  0.8294000000000002  1.0000
  H   H105      1.0  0.9775000000000003  0.63199  0.8873400000000002  1.0000
  H   H106      1.0  0.12586000000000003  0.57325  0.9053000000000002  1.0000
  H   H107      1.0  0.15923  0.6377100000000001  0.8486700000000001  1.0000
  H   H108      1.0  0.18148  0.77248  0.7973200000000003  1.0000
  H   H109      1.0  0.3490300000000001  0.54429  0.6184  1.0000
  H   H110      1.0  0.26107  0.57688  0.6181100000000003  1.0000
  H   H111      1.0  0.26506  0.58782  0.77334  1.0000
  H   H112      1.0  0.35288  0.55455  0.77321  1.0000
  H   H113      1.0  0.19581  0.51002  0.6706000000000001  1.0000
  H   H114      1.0  0.13199  0.4775000000000001  0.6126600000000002  1.0000
  H   H115      1.0  0.07324  0.6258600000000002  0.5947000000000002  1.0000
  H   H116      1.0  0.13771  0.6592400000000003  0.65133  1.0000
  H   H117      1.0  0.27247  0.6814900000000003  0.7026800000000001  1.0000
  H   H118      1.0  0.6509700000000002  0.45571  0.6184  1.0000
  H   H119      1.0  0.73893  0.42312  0.6181100000000003  1.0000
  H   H120      1.0  0.7349500000000002  0.4121800000000001  0.77334  1.0000
  H   H121      1.0  0.64712  0.44546000000000013  0.77321  1.0000
  H   H122      1.0  0.8042000000000002  0.48999  0.6706000000000001  1.0000
  H   H123      1.0  0.8680100000000002  0.5225  0.6126600000000002  1.0000
  H   H124      1.0  0.92676  0.37414  0.5947000000000002  1.0000
  H   H125      1.0  0.86229  0.34077000000000013  0.65133  1.0000
  H   H126      1.0  0.7275300000000002  0.31852000000000014  0.7026800000000001  1.0000
  H   H127      1.0  0.54429  0.6509700000000002  0.6184  1.0000
  H   H128      1.0  0.57688  0.73893  0.6181100000000003  1.0000
  H   H129      1.0  0.58782  0.7349500000000002  0.77334  1.0000
  H   H130      1.0  0.55455  0.64712  0.77321  1.0000
  H   H131      1.0  0.51002  0.8042000000000002  0.6706000000000001  1.0000
  H   H132      1.0  0.4775000000000001  0.8680100000000002  0.6126600000000002  1.0000
  H   H133      1.0  0.6258600000000002  0.92676  0.5947000000000002  1.0000
  H   H134      1.0  0.6592400000000003  0.86229  0.65133  1.0000
  H   H135      1.0  0.6814900000000003  0.7275300000000002  0.7026800000000001  1.0000
  H   H136      1.0  0.45571  0.3490300000000001  0.6184  1.0000
  H   H137      1.0  0.42312  0.26107  0.6181100000000003  1.0000
  H   H138      1.0  0.4121800000000001  0.26506  0.77334  1.0000
  H   H139      1.0  0.44546000000000013  0.35288  0.77321  1.0000
  H   H140      1.0  0.48999  0.19581  0.6706000000000001  1.0000
  H   H141      1.0  0.5225  0.13199  0.6126600000000002  1.0000
  H   H142      1.0  0.37414  0.07324  0.5947000000000002  1.0000
  H   H143      1.0  0.34077000000000013  0.13771  0.65133  1.0000
  H   H144      1.0  0.31852000000000014  0.27247  0.7026800000000001  1.0000
  H   H145      1.0  0.6282100000000002  0.87179  0.25  1.0000
  H   H146      1.0  0.75992  0.7400800000000002  0.25  1.0000
  H   H147      1.0  0.3717900000000001  0.12821  0.25  1.0000
  H   H148      1.0  0.24008  0.25992  0.25  1.0000
  H   H149      1.0  0.12821  0.6282100000000002  0.25  1.0000
  H   H150      1.0  0.25992  0.75992  0.25  1.0000
  H   H151      1.0  0.87179  0.3717900000000001  0.25  1.0000
  H   H152      1.0  0.7400800000000002  0.24008  0.25  1.0000
  H   H153      1.0  0.3717900000000001  0.12821  0.75  1.0000
  H   H154      1.0  0.24008  0.25992  0.75  1.0000
  H   H155      1.0  0.6282100000000002  0.87179  0.75  1.0000
  H   H156      1.0  0.75992  0.7400800000000002  0.75  1.0000
  H   H157      1.0  0.87179  0.3717900000000001  0.75  1.0000
  H   H158      1.0  0.7400800000000002  0.24008  0.75  1.0000
  H   H159      1.0  0.12821  0.6282100000000002  0.75  1.0000
  H   H160      1.0  0.25992  0.75992  0.75  1.0000
  C   C1        1.0  0.9090100000000002  0.9703300000000002  0.19588000000000005  1.0000
  C   C2        1.0  0.8562800000000002  0.9524500000000002  0.19581  1.0000
  C   C3        1.0  0.83005  0.94664  0.15209  1.0000
  C   C4        1.0  0.7811800000000002  0.9285300000000002  0.15194000000000005  1.0000
  C   C5        1.0  0.7576700000000001  0.9157100000000002  0.19576  1.0000
  C   C6        1.0  0.7836100000000003  0.9220800000000001  0.23963000000000007  1.0000
  C   C7        1.0  0.83242  0.9402500000000003  0.23958  1.0000
  C   C8        1.0  0.67138  0.9130900000000001  0.16458  1.0000
  C   C9        1.0  0.66918  0.9646400000000003  0.15369  1.0000
  C   C10       1.0  0.63361  0.98282  0.12143000000000002  1.0000
  C   C11       1.0  0.59866  0.9503700000000003  0.09991000000000003  1.0000
  C   C12       1.0  0.60017  0.89918  0.11166000000000001  1.0000
  C   C13       1.0  0.6361200000000002  0.88058  0.14332  1.0000
  C   C14       1.0  0.56144  0.96941  0.06446  1.0000
  C   C15       1.0  0.7012200000000001  0.8500200000000002  0.22345000000000007  1.0000
  C   C16       1.0  0.7384000000000002  0.81275  0.22347000000000006  1.0000
  C   C17       1.0  0.09099  0.02968000000000001  0.19588000000000005  1.0000
  C   C18       1.0  0.14372000000000001  0.04756000000000001  0.19581  1.0000
  C   C19       1.0  0.16995  0.05336  0.15209  1.0000
  C   C20       1.0  0.21882000000000004  0.07147  0.15194000000000005  1.0000
  C   C21       1.0  0.24234  0.08429  0.19576  1.0000
  C   C22       1.0  0.2164  0.07793  0.23963000000000007  1.0000
  C   C23       1.0  0.16759  0.05975  0.23958  1.0000
  C   C24       1.0  0.32862  0.08692  0.16458  1.0000
  C   C25       1.0  0.33082000000000006  0.03536  0.15369  1.0000
  C   C26       1.0  0.36639  0.01718  0.12143000000000002  1.0000
  C   C27       1.0  0.40135  0.049630000000000014  0.09991000000000003  1.0000
  C   C28       1.0  0.39983  0.10082  0.11166000000000001  1.0000
  C   C29       1.0  0.3638900000000001  0.11942000000000001  0.14332  1.0000
  C   C30       1.0  0.43857  0.030590000000000006  0.06446  1.0000
  C   C31       1.0  0.29878000000000005  0.14998  0.22345000000000007  1.0000
  C   C32       1.0  0.2616  0.18725  0.22347000000000006  1.0000
  C   C33       1.0  0.02968000000000001  0.9090100000000002  0.19588000000000005  1.0000
  C   C34       1.0  0.04756000000000001  0.8562800000000002  0.19581  1.0000
  C   C35       1.0  0.05336  0.83005  0.15209  1.0000
  C   C36       1.0  0.07147  0.7811800000000002  0.15194000000000005  1.0000
  C   C37       1.0  0.08429  0.7576700000000001  0.19576  1.0000
  C   C38       1.0  0.07793  0.7836100000000003  0.23963000000000007  1.0000
  C   C39       1.0  0.05975  0.83242  0.23958  1.0000
  C   C40       1.0  0.08692  0.67138  0.16458  1.0000
  C   C41       1.0  0.03536  0.66918  0.15369  1.0000
  C   C42       1.0  0.01718  0.63361  0.12143000000000002  1.0000
  C   C43       1.0  0.049630000000000014  0.59866  0.09991000000000003  1.0000
  C   C44       1.0  0.10082  0.60017  0.11166000000000001  1.0000
  C   C45       1.0  0.11942000000000001  0.6361200000000002  0.14332  1.0000
  C   C46       1.0  0.030590000000000006  0.56144  0.06446  1.0000
  C   C47       1.0  0.14998  0.7012200000000001  0.22345000000000007  1.0000
  C   C48       1.0  0.18725  0.7384000000000002  0.22347000000000006  1.0000
  C   C49       1.0  0.9703300000000002  0.09099  0.19588000000000005  1.0000
  C   C50       1.0  0.9524500000000002  0.14372000000000001  0.19581  1.0000
  C   C51       1.0  0.94664  0.16995  0.15209  1.0000
  C   C52       1.0  0.9285300000000002  0.21882000000000004  0.15194000000000005  1.0000
  C   C53       1.0  0.9157100000000002  0.24234  0.19576  1.0000
  C   C54       1.0  0.9220800000000001  0.2164  0.23963000000000007  1.0000
  C   C55       1.0  0.9402500000000003  0.16759  0.23958  1.0000
  C   C56       1.0  0.9130900000000001  0.32862  0.16458  1.0000
  C   C57       1.0  0.9646400000000003  0.33082000000000006  0.15369  1.0000
  C   C58       1.0  0.98282  0.36639  0.12143000000000002  1.0000
  C   C59       1.0  0.9503700000000003  0.40135  0.09991000000000003  1.0000
  C   C60       1.0  0.89918  0.39983  0.11166000000000001  1.0000
  C   C61       1.0  0.88058  0.3638900000000001  0.14332  1.0000
  C   C62       1.0  0.96941  0.43857  0.06446  1.0000
  C   C63       1.0  0.8500200000000002  0.29878000000000005  0.22345000000000007  1.0000
  C   C64       1.0  0.81275  0.2616  0.22347000000000006  1.0000
  C   C65       1.0  0.591  0.47032  0.30412000000000006  1.0000
  C   C66       1.0  0.64372  0.45244  0.30419  1.0000
  C   C67       1.0  0.66995  0.44664000000000004  0.34791  1.0000
  C   C68       1.0  0.71882  0.42853  0.34806  1.0000
  C   C69       1.0  0.74234  0.41571000000000013  0.30424  1.0000
  C   C70       1.0  0.7164000000000003  0.42207000000000006  0.26037  1.0000
  C   C71       1.0  0.66759  0.44025  0.26042000000000004  1.0000
  C   C72       1.0  0.82862  0.41309  0.33542  1.0000
  C   C73       1.0  0.8308200000000002  0.4646400000000001  0.34631  1.0000
  C   C74       1.0  0.8663900000000002  0.48282  0.37858000000000014  1.0000
  C   C75       1.0  0.9013500000000001  0.45037000000000005  0.4000900000000001  1.0000
  C   C76       1.0  0.8998300000000001  0.3991800000000001  0.38835  1.0000
  C   C77       1.0  0.8638900000000003  0.3805800000000001  0.35668  1.0000
  C   C78       1.0  0.93857  0.46941  0.4355400000000001  1.0000
  C   C79       1.0  0.79878  0.3500200000000001  0.27655  1.0000
  C   C80       1.0  0.7616  0.31275  0.27653  1.0000
  C   C81       1.0  0.4090100000000001  0.5296800000000002  0.30412000000000006  1.0000
  C   C82       1.0  0.35628  0.54756  0.30419  1.0000
  C   C83       1.0  0.3300500000000001  0.55337  0.34791  1.0000
  C   C84       1.0  0.28118  0.5714700000000001  0.34806  1.0000
  C   C85       1.0  0.25766  0.5843  0.30424  1.0000
  C   C86       1.0  0.2836000000000001  0.57793  0.26037  1.0000
  C   C87       1.0  0.33241  0.55975  0.26042000000000004  1.0000
  C   C88       1.0  0.17138000000000003  0.58692  0.33542  1.0000
  C   C89       1.0  0.16918000000000005  0.53536  0.34631  1.0000
  C   C90       1.0  0.13361  0.51718  0.37858000000000014  1.0000
  C   C91       1.0  0.09865000000000003  0.5496300000000001  0.4000900000000001  1.0000
  C   C92       1.0  0.10017000000000002  0.6008300000000001  0.38835  1.0000
  C   C93       1.0  0.13611000000000004  0.6194200000000001  0.35668  1.0000
  C   C94       1.0  0.061440000000000015  0.53059  0.4355400000000001  1.0000
  C   C95       1.0  0.20122  0.64998  0.27655  1.0000
  C   C96       1.0  0.2384  0.6872500000000001  0.27653  1.0000
  C   C97       1.0  0.47032  0.4090100000000001  0.30412000000000006  1.0000
  C   C98       1.0  0.45244  0.35628  0.30419  1.0000
  C   C99       1.0  0.44664000000000004  0.3300500000000001  0.34791  1.0000
  C   C100      1.0  0.42853  0.28118  0.34806  1.0000
  C   C101      1.0  0.41571000000000013  0.25766  0.30424  1.0000
  C   C102      1.0  0.42207000000000006  0.2836000000000001  0.26037  1.0000
  C   C103      1.0  0.44025  0.33241  0.26042000000000004  1.0000
  C   C104      1.0  0.41309  0.17138000000000003  0.33542  1.0000
  C   C105      1.0  0.4646400000000001  0.16918000000000005  0.34631  1.0000
  C   C106      1.0  0.48282  0.13361  0.37858000000000014  1.0000
  C   C107      1.0  0.45037000000000005  0.09865000000000003  0.4000900000000001  1.0000
  C   C108      1.0  0.3991800000000001  0.10017000000000002  0.38835  1.0000
  C   C109      1.0  0.3805800000000001  0.13611000000000004  0.35668  1.0000
  C   C110      1.0  0.46941  0.061440000000000015  0.4355400000000001  1.0000
  C   C111      1.0  0.3500200000000001  0.20122  0.27655  1.0000
  C   C112      1.0  0.31275  0.2384  0.27653  1.0000
  C   C113      1.0  0.5296800000000002  0.591  0.30412000000000006  1.0000
  C   C114      1.0  0.54756  0.64372  0.30419  1.0000
  C   C115      1.0  0.55337  0.66995  0.34791  1.0000
  C   C116      1.0  0.5714700000000001  0.71882  0.34806  1.0000
  C   C117      1.0  0.5843  0.74234  0.30424  1.0000
  C   C118      1.0  0.57793  0.7164000000000003  0.26037  1.0000
  C   C119      1.0  0.55975  0.66759  0.26042000000000004  1.0000
  C   C120      1.0  0.58692  0.82862  0.33542  1.0000
  C   C121      1.0  0.53536  0.8308200000000002  0.34631  1.0000
  C   C122      1.0  0.51718  0.8663900000000002  0.37858000000000014  1.0000
  C   C123      1.0  0.5496300000000001  0.9013500000000001  0.4000900000000001  1.0000
  C   C124      1.0  0.6008300000000001  0.8998300000000001  0.38835  1.0000
  C   C125      1.0  0.6194200000000001  0.8638900000000003  0.35668  1.0000
  C   C126      1.0  0.53059  0.93857  0.4355400000000001  1.0000
  C   C127      1.0  0.64998  0.79878  0.27655  1.0000
  C   C128      1.0  0.6872500000000001  0.7616  0.27653  1.0000
  C   C129      1.0  0.09099  0.02968000000000001  0.80412  1.0000
  C   C130      1.0  0.14372000000000001  0.04756000000000001  0.8041900000000002  1.0000
  C   C131      1.0  0.16995  0.05336  0.84791  1.0000
  C   C132      1.0  0.21882000000000004  0.07147  0.8480600000000001  1.0000
  C   C133      1.0  0.24234  0.08429  0.8042400000000002  1.0000
  C   C134      1.0  0.2164  0.07793  0.7603700000000002  1.0000
  C   C135      1.0  0.16759  0.05975  0.76043  1.0000
  C   C136      1.0  0.32862  0.08692  0.8354200000000003  1.0000
  C   C137      1.0  0.33082000000000006  0.03536  0.84632  1.0000
  C   C138      1.0  0.36639  0.01718  0.87858  1.0000
  C   C139      1.0  0.40135  0.049630000000000014  0.9000900000000001  1.0000
  C   C140      1.0  0.39983  0.10082  0.8883500000000002  1.0000
  C   C141      1.0  0.3638900000000001  0.11942000000000001  0.85668  1.0000
  C   C142      1.0  0.43857  0.030590000000000006  0.93554  1.0000
  C   C143      1.0  0.29878000000000005  0.14998  0.77655  1.0000
  C   C144      1.0  0.2616  0.18725  0.7765300000000003  1.0000
  C   C145      1.0  0.9090100000000002  0.9703300000000002  0.80412  1.0000
  C   C146      1.0  0.8562800000000002  0.9524500000000002  0.8041900000000002  1.0000
  C   C147      1.0  0.83005  0.94664  0.84791  1.0000
  C   C148      1.0  0.7811800000000002  0.9285300000000002  0.8480600000000001  1.0000
  C   C149      1.0  0.7576700000000001  0.9157100000000002  0.8042400000000002  1.0000
  C   C150      1.0  0.7836100000000003  0.9220800000000001  0.7603700000000002  1.0000
  C   C151      1.0  0.83242  0.9402500000000003  0.76043  1.0000
  C   C152      1.0  0.67138  0.9130900000000001  0.8354200000000003  1.0000
  C   C153      1.0  0.66918  0.9646400000000003  0.84632  1.0000
  C   C154      1.0  0.63361  0.98282  0.87858  1.0000
  C   C155      1.0  0.59866  0.9503700000000003  0.9000900000000001  1.0000
  C   C156      1.0  0.60017  0.89918  0.8883500000000002  1.0000
  C   C157      1.0  0.6361200000000002  0.88058  0.85668  1.0000
  C   C158      1.0  0.56144  0.96941  0.93554  1.0000
  C   C159      1.0  0.7012200000000001  0.8500200000000002  0.77655  1.0000
  C   C160      1.0  0.7384000000000002  0.81275  0.7765300000000003  1.0000
  C   C161      1.0  0.9703300000000002  0.09099  0.80412  1.0000
  C   C162      1.0  0.9524500000000002  0.14372000000000001  0.8041900000000002  1.0000
  C   C163      1.0  0.94664  0.16995  0.84791  1.0000
  C   C164      1.0  0.9285300000000002  0.21882000000000004  0.8480600000000001  1.0000
  C   C165      1.0  0.9157100000000002  0.24234  0.8042400000000002  1.0000
  C   C166      1.0  0.9220800000000001  0.2164  0.7603700000000002  1.0000
  C   C167      1.0  0.9402500000000003  0.16759  0.76043  1.0000
  C   C168      1.0  0.9130900000000001  0.32862  0.8354200000000003  1.0000
  C   C169      1.0  0.9646400000000003  0.33082000000000006  0.84632  1.0000
  C   C170      1.0  0.98282  0.36639  0.87858  1.0000
  C   C171      1.0  0.9503700000000003  0.40135  0.9000900000000001  1.0000
  C   C172      1.0  0.89918  0.39983  0.8883500000000002  1.0000
  C   C173      1.0  0.88058  0.3638900000000001  0.85668  1.0000
  C   C174      1.0  0.96941  0.43857  0.93554  1.0000
  C   C175      1.0  0.8500200000000002  0.29878000000000005  0.77655  1.0000
  C   C176      1.0  0.81275  0.2616  0.7765300000000003  1.0000
  C   C177      1.0  0.02968000000000001  0.9090100000000002  0.80412  1.0000
  C   C178      1.0  0.04756000000000001  0.8562800000000002  0.8041900000000002  1.0000
  C   C179      1.0  0.05336  0.83005  0.84791  1.0000
  C   C180      1.0  0.07147  0.7811800000000002  0.8480600000000001  1.0000
  C   C181      1.0  0.08429  0.7576700000000001  0.8042400000000002  1.0000
  C   C182      1.0  0.07793  0.7836100000000003  0.7603700000000002  1.0000
  C   C183      1.0  0.05975  0.83242  0.76043  1.0000
  C   C184      1.0  0.08692  0.67138  0.8354200000000003  1.0000
  C   C185      1.0  0.03536  0.66918  0.84632  1.0000
  C   C186      1.0  0.01718  0.63361  0.87858  1.0000
  C   C187      1.0  0.049630000000000014  0.59866  0.9000900000000001  1.0000
  C   C188      1.0  0.10082  0.60017  0.8883500000000002  1.0000
  C   C189      1.0  0.11942000000000001  0.6361200000000002  0.85668  1.0000
  C   C190      1.0  0.030590000000000006  0.56144  0.93554  1.0000
  C   C191      1.0  0.14998  0.7012200000000001  0.77655  1.0000
  C   C192      1.0  0.18725  0.7384000000000002  0.7765300000000003  1.0000
  C   C193      1.0  0.4090100000000001  0.5296800000000002  0.69588  1.0000
  C   C194      1.0  0.35628  0.54756  0.6958100000000003  1.0000
  C   C195      1.0  0.3300500000000001  0.55337  0.65209  1.0000
  C   C196      1.0  0.28118  0.5714700000000001  0.65194  1.0000
  C   C197      1.0  0.25766  0.5843  0.6957600000000003  1.0000
  C   C198      1.0  0.2836000000000001  0.57793  0.7396300000000002  1.0000
  C   C199      1.0  0.33241  0.55975  0.7395800000000001  1.0000
  C   C200      1.0  0.17138000000000003  0.58692  0.66459  1.0000
  C   C201      1.0  0.16918000000000005  0.53536  0.6536900000000002  1.0000
  C   C202      1.0  0.13361  0.51718  0.6214300000000001  1.0000
  C   C203      1.0  0.09865000000000003  0.5496300000000001  0.5999200000000001  1.0000
  C   C204      1.0  0.10017000000000002  0.6008300000000001  0.61166  1.0000
  C   C205      1.0  0.13611000000000004  0.6194200000000001  0.64333  1.0000
  C   C206      1.0  0.061440000000000015  0.53059  0.56446  1.0000
  C   C207      1.0  0.20122  0.64998  0.72345  1.0000
  C   C208      1.0  0.2384  0.6872500000000001  0.7234700000000002  1.0000
  C   C209      1.0  0.591  0.47032  0.69588  1.0000
  C   C210      1.0  0.64372  0.45244  0.6958100000000003  1.0000
  C   C211      1.0  0.66995  0.44664000000000004  0.65209  1.0000
  C   C212      1.0  0.71882  0.42853  0.65194  1.0000
  C   C213      1.0  0.74234  0.41571000000000013  0.6957600000000003  1.0000
  C   C214      1.0  0.7164000000000003  0.42207000000000006  0.7396300000000002  1.0000
  C   C215      1.0  0.66759  0.44025  0.7395800000000001  1.0000
  C   C216      1.0  0.82862  0.41309  0.66459  1.0000
  C   C217      1.0  0.8308200000000002  0.4646400000000001  0.6536900000000002  1.0000
  C   C218      1.0  0.8663900000000002  0.48282  0.6214300000000001  1.0000
  C   C219      1.0  0.9013500000000001  0.45037000000000005  0.5999200000000001  1.0000
  C   C220      1.0  0.8998300000000001  0.3991800000000001  0.61166  1.0000
  C   C221      1.0  0.8638900000000003  0.3805800000000001  0.64333  1.0000
  C   C222      1.0  0.93857  0.46941  0.56446  1.0000
  C   C223      1.0  0.79878  0.3500200000000001  0.72345  1.0000
  C   C224      1.0  0.7616  0.31275  0.7234700000000002  1.0000
  C   C225      1.0  0.5296800000000002  0.591  0.69588  1.0000
  C   C226      1.0  0.54756  0.64372  0.6958100000000003  1.0000
  C   C227      1.0  0.55337  0.66995  0.65209  1.0000
  C   C228      1.0  0.5714700000000001  0.71882  0.65194  1.0000
  C   C229      1.0  0.5843  0.74234  0.6957600000000003  1.0000
  C   C230      1.0  0.57793  0.7164000000000003  0.7396300000000002  1.0000
  C   C231      1.0  0.55975  0.66759  0.7395800000000001  1.0000
  C   C232      1.0  0.58692  0.82862  0.66459  1.0000
  C   C233      1.0  0.53536  0.8308200000000002  0.6536900000000002  1.0000
  C   C234      1.0  0.51718  0.8663900000000002  0.6214300000000001  1.0000
  C   C235      1.0  0.5496300000000001  0.9013500000000001  0.5999200000000001  1.0000
  C   C236      1.0  0.6008300000000001  0.8998300000000001  0.61166  1.0000
  C   C237      1.0  0.6194200000000001  0.8638900000000003  0.64333  1.0000
  C   C238      1.0  0.53059  0.93857  0.56446  1.0000
  C   C239      1.0  0.64998  0.79878  0.72345  1.0000
  C   C240      1.0  0.6872500000000001  0.7616  0.7234700000000002  1.0000
  C   C241      1.0  0.47032  0.4090100000000001  0.69588  1.0000
  C   C242      1.0  0.45244  0.35628  0.6958100000000003  1.0000
  C   C243      1.0  0.44664000000000004  0.3300500000000001  0.65209  1.0000
  C   C244      1.0  0.42853  0.28118  0.65194  1.0000
  C   C245      1.0  0.41571000000000013  0.25766  0.6957600000000003  1.0000
  C   C246      1.0  0.42207000000000006  0.2836000000000001  0.7396300000000002  1.0000
  C   C247      1.0  0.44025  0.33241  0.7395800000000001  1.0000
  C   C248      1.0  0.41309  0.17138000000000003  0.66459  1.0000
  C   C249      1.0  0.4646400000000001  0.16918000000000005  0.6536900000000002  1.0000
  C   C250      1.0  0.48282  0.13361  0.6214300000000001  1.0000
  C   C251      1.0  0.45037000000000005  0.09865000000000003  0.5999200000000001  1.0000
  C   C252      1.0  0.3991800000000001  0.10017000000000002  0.61166  1.0000
  C   C253      1.0  0.3805800000000001  0.13611000000000004  0.64333  1.0000
  C   C254      1.0  0.46941  0.061440000000000015  0.56446  1.0000
  C   C255      1.0  0.3500200000000001  0.20122  0.72345  1.0000
  C   C256      1.0  0.31275  0.2384  0.7234700000000002  1.0000
  C   C257      1.0  0.6570100000000002  0.84299  0.25  1.0000
  C   C258      1.0  0.7311000000000001  0.76891  0.25  1.0000
  C   C259      1.0  0.34299  0.15701000000000007  0.25  1.0000
  C   C260      1.0  0.26891  0.23109000000000005  0.25  1.0000
  C   C261      1.0  0.15701000000000007  0.6570100000000002  0.25  1.0000
  C   C262      1.0  0.23109000000000005  0.7311000000000001  0.25  1.0000
  C   C263      1.0  0.84299  0.34299  0.25  1.0000
  C   C264      1.0  0.76891  0.26891  0.25  1.0000
  C   C265      1.0  0.34299  0.15701000000000007  0.75  1.0000
  C   C266      1.0  0.26891  0.23109000000000005  0.75  1.0000
  C   C267      1.0  0.6570100000000002  0.84299  0.75  1.0000
  C   C268      1.0  0.7311000000000001  0.76891  0.75  1.0000
  C   C269      1.0  0.84299  0.34299  0.75  1.0000
  C   C270      1.0  0.76891  0.26891  0.75  1.0000
  C   C271      1.0  0.15701000000000007  0.6570100000000002  0.75  1.0000
  C   C272      1.0  0.23109000000000005  0.7311000000000001  0.75  1.0000
  N   N1        1.0  0.70877  0.8947  0.19612000000000004  1.0000
  N   N2        1.0  0.29123  0.10530000000000003  0.19612000000000004  1.0000
  N   N3        1.0  0.10530000000000003  0.70877  0.19612000000000004  1.0000
  N   N4        1.0  0.8947  0.29123  0.19612000000000004  1.0000
  N   N5        1.0  0.79123  0.3947  0.3038800000000001  1.0000
  N   N6        1.0  0.20877000000000007  0.6053000000000001  0.3038800000000001  1.0000
  N   N7        1.0  0.3947  0.20877000000000007  0.3038800000000001  1.0000
  N   N8        1.0  0.6053000000000001  0.79123  0.3038800000000001  1.0000
  N   N9        1.0  0.29123  0.10530000000000003  0.80388  1.0000
  N   N10       1.0  0.70877  0.8947  0.80388  1.0000
  N   N11       1.0  0.8947  0.29123  0.80388  1.0000
  N   N12       1.0  0.10530000000000003  0.70877  0.80388  1.0000
  N   N13       1.0  0.20877000000000007  0.6053000000000001  0.69612  1.0000
  N   N14       1.0  0.79123  0.3947  0.69612  1.0000
  N   N15       1.0  0.6053000000000001  0.79123  0.69612  1.0000
  N   N16       1.0  0.3947  0.20877000000000007  0.69612  1.0000
  O   O1        1.0  0.9306600000000003  0.97468  0.23714000000000005  1.0000
  O   O2        1.0  0.92906  0.97981  0.15465  1.0000
  O   O3        1.0  0.5659300000000002  0.015  0.05033  1.0000
  O   O4        1.0  0.5278000000000002  0.93841  0.05008  1.0000
  O   O5        1.0  0.06935  0.025320000000000006  0.23714000000000005  1.0000
  O   O6        1.0  0.07095  0.020200000000000003  0.15465  1.0000
  O   O7        1.0  0.43408000000000013  0.985  0.05033  1.0000
  O   O8        1.0  0.4722  0.061590000000000006  0.05008  1.0000
  O   O9        1.0  0.025320000000000006  0.9306600000000003  0.23714000000000005  1.0000
  O   O10       1.0  0.020200000000000003  0.92906  0.15465  1.0000
  O   O11       1.0  0.985  0.5659300000000002  0.05033  1.0000
  O   O12       1.0  0.061590000000000006  0.5278000000000002  0.05008  1.0000
  O   O13       1.0  0.97468  0.06935  0.23714000000000005  1.0000
  O   O14       1.0  0.97981  0.07095  0.15465  1.0000
  O   O15       1.0  0.015  0.43408000000000013  0.05033  1.0000
  O   O16       1.0  0.93841  0.4722  0.05008  1.0000
  O   O17       1.0  0.56935  0.4746800000000001  0.26286  1.0000
  O   O18       1.0  0.57095  0.4798  0.3453500000000001  1.0000
  O   O19       1.0  0.93408  0.51501  0.44968000000000014  1.0000
  O   O20       1.0  0.9722  0.43841  0.4499200000000001  1.0000
  O   O21       1.0  0.4306500000000001  0.52533  0.26286  1.0000
  O   O22       1.0  0.42906  0.5202  0.3453500000000001  1.0000
  O   O23       1.0  0.06592  0.485  0.44968000000000014  1.0000
  O   O24       1.0  0.027800000000000005  0.56159  0.4499200000000001  1.0000
  O   O25       1.0  0.4746800000000001  0.4306500000000001  0.26286  1.0000
  O   O26       1.0  0.4798  0.42906  0.3453500000000001  1.0000
  O   O27       1.0  0.51501  0.06592  0.44968000000000014  1.0000
  O   O28       1.0  0.43841  0.027800000000000005  0.4499200000000001  1.0000
  O   O29       1.0  0.52533  0.56935  0.26286  1.0000
  O   O30       1.0  0.5202  0.57095  0.3453500000000001  1.0000
  O   O31       1.0  0.485  0.93408  0.44968000000000014  1.0000
  O   O32       1.0  0.56159  0.9722  0.4499200000000001  1.0000
  O   O33       1.0  0.06935  0.025320000000000006  0.7628600000000002  1.0000
  O   O34       1.0  0.07095  0.020200000000000003  0.8453500000000003  1.0000
  O   O35       1.0  0.43408000000000013  0.985  0.9496800000000001  1.0000
  O   O36       1.0  0.4722  0.061590000000000006  0.94992  1.0000
  O   O37       1.0  0.9306600000000003  0.97468  0.7628600000000002  1.0000
  O   O38       1.0  0.92906  0.97981  0.8453500000000003  1.0000
  O   O39       1.0  0.5659300000000002  0.015  0.9496800000000001  1.0000
  O   O40       1.0  0.5278000000000002  0.93841  0.94992  1.0000
  O   O41       1.0  0.97468  0.06935  0.7628600000000002  1.0000
  O   O42       1.0  0.97981  0.07095  0.8453500000000003  1.0000
  O   O43       1.0  0.015  0.43408000000000013  0.9496800000000001  1.0000
  O   O44       1.0  0.93841  0.4722  0.94992  1.0000
  O   O45       1.0  0.025320000000000006  0.9306600000000003  0.7628600000000002  1.0000
  O   O46       1.0  0.020200000000000003  0.92906  0.8453500000000003  1.0000
  O   O47       1.0  0.985  0.5659300000000002  0.9496800000000001  1.0000
  O   O48       1.0  0.061590000000000006  0.5278000000000002  0.94992  1.0000
  O   O49       1.0  0.4306500000000001  0.52533  0.7371400000000002  1.0000
  O   O50       1.0  0.42906  0.5202  0.6546500000000002  1.0000
  O   O51       1.0  0.06592  0.485  0.55033  1.0000
  O   O52       1.0  0.027800000000000005  0.56159  0.55008  1.0000
  O   O53       1.0  0.56935  0.4746800000000001  0.7371400000000002  1.0000
  O   O54       1.0  0.57095  0.4798  0.6546500000000002  1.0000
  O   O55       1.0  0.93408  0.51501  0.55033  1.0000
  O   O56       1.0  0.9722  0.43841  0.55008  1.0000
  O   O57       1.0  0.52533  0.56935  0.7371400000000002  1.0000
  O   O58       1.0  0.5202  0.57095  0.6546500000000002  1.0000
  O   O59       1.0  0.485  0.93408  0.55033  1.0000
  O   O60       1.0  0.56159  0.9722  0.55008  1.0000
  O   O61       1.0  0.4746800000000001  0.4306500000000001  0.7371400000000002  1.0000
  O   O62       1.0  0.4798  0.42906  0.6546500000000002  1.0000
  O   O63       1.0  0.51501  0.06592  0.55033  1.0000
  O   O64       1.0  0.43841  0.027800000000000005  0.55008  1.0000
