data_image0
_chemical_formula_structural       Cd12H168C312O48
_chemical_formula_sum              "Cd12 H168 C312 O48"
_cell_length_a       14.01425
_cell_length_b       20.01002
_cell_length_c       36.43087
_cell_angle_alpha    90.09224
_cell_angle_beta     99.39847
_cell_angle_gamma    90.05715

_symmetry_space_group_name_H-M    'P 1'
_symmetry_Int_Tables_number       1

loop_
  _symmetry_equiv_pos_as_xyz
  'x,y,z'

loop_
  _atom_site_type_symbol
  _atom_site_label
  _atom_site_symmetry_multiplicity
  _atom_site_fract_x
  _atom_site_fract_y
  _atom_site_fract_z
  _atom_site_occupancy
  Cd  Cd1       1.0  0.69441  0.98131  0.6913  1.0000
  Cd  Cd2       1.0  0.47045  0.9935  0.65241  1.0000
  Cd  Cd3       1.0  0.28145  0.48576  0.18256  1.0000
  Cd  Cd4       1.0  0.69504  0.51991  0.19167  1.0000
  Cd  Cd5       1.0  0.47038999999999986  0.5073100000000001  0.15198  1.0000
  Cd  Cd6       1.0  0.28079  0.015490000000000004  0.68284  1.0000
  Cd  Cd7       1.0  0.30496  0.48009000000000013  0.80833  1.0000
  Cd  Cd8       1.0  0.5296  0.49268  0.8480200000000001  1.0000
  Cd  Cd9       1.0  0.7192000000000001  0.9845000000000002  0.31716  1.0000
  Cd  Cd10      1.0  0.30558  0.01869  0.3087  1.0000
  Cd  Cd11      1.0  0.52955  0.0065  0.34759  1.0000
  Cd  Cd12      1.0  0.71855  0.51424  0.81744  1.0000
  H   H1        1.0  0.7128599999999998  0.12802  0.58713  1.0000
  H   H2        1.0  0.51193  0.31119  0.62783  1.0000
  H   H3        1.0  0.52703  0.20158  0.66078  1.0000
  H   H4        1.0  0.5560299999999998  0.38469  0.57828  1.0000
  H   H5        1.0  0.72751  0.30632  0.50007  1.0000
  H   H6        1.0  0.7429799999999998  0.19826  0.5333  1.0000
  H   H7        1.0  0.4867499999999999  0.8676200000000001  0.55862  1.0000
  H   H8        1.0  0.4846999999999999  0.77021  0.51575  1.0000
  H   H9        1.0  0.71232  0.77695  0.63649  1.0000
  H   H10       1.0  0.54197  0.65791  0.50327  1.0000
  H   H11       1.0  0.7604199999999998  0.5621700000000001  0.58298  1.0000
  H   H12       1.0  0.77302  0.66242  0.62269  1.0000
  H   H13       1.0  0.4401899999999999  0.42874000000000007  0.28937  1.0000
  H   H14       1.0  0.66066  0.6120300000000001  0.34284  1.0000
  H   H15       1.0  0.60823  0.6034  0.27448  1.0000
  H   H16       1.0  0.4433299999999998  0.38095  0.3512  1.0000
  H   H17       1.0  0.49159999999999987  0.38800000000000007  0.41899  1.0000
  H   H18       1.0  0.6539599999999998  0.56793  0.40756  1.0000
  H   H19       1.0  0.66094  0.47743  0.56742  1.0000
  H   H20       1.0  0.60224  0.58753  0.46482000000000007  1.0000
  H   H21       1.0  0.6062599999999998  0.37263  0.46344  1.0000
  H   H22       1.0  0.37441999999999986  0.36622  0.06006  1.0000
  H   H23       1.0  0.3297999999999999  0.26887  0.01794  1.0000
  H   H24       1.0  0.22674  0.2783300000000001  0.14246  1.0000
  H   H25       1.0  0.15008  0.16600000000000004  0.13153  1.0000
  H   H26       1.0  0.10729999999999998  0.06897  0.09052  1.0000
  H   H27       1.0  0.24492999999999995  0.15977  0.005450000000000001  1.0000
  H   H28       1.0  0.11535999999999996  0.63683  0.09085  1.0000
  H   H29       1.0  0.36683999999999994  0.81449  0.1218  1.0000
  H   H30       1.0  0.3849899999999999  0.7040700000000002  0.15394  1.0000
  H   H31       1.0  0.02974999999999999  0.70934  0.03946  1.0000
  H   H32       1.0  0.01587999999999999  0.8171100000000001  0.00581  1.0000
  H   H33       1.0  0.27313  0.8891300000000001  0.07607  1.0000
  H   H34       1.0  0.7734799999999997  0.10286000000000001  0.80539  1.0000
  H   H35       1.0  0.8663899999999998  0.12233000000000001  0.86914  1.0000
  H   H36       1.0  0.93914  0.9264900000000001  0.7933  1.0000
  H   H37       1.0  0.98341  0.08164  0.92213  1.0000
  H   H38       1.0  0.14377000000000006  0.90066  0.91199  1.0000
  H   H39       1.0  0.06678000000000005  0.8894300000000003  0.84623  1.0000
  H   H40       1.0  0.18109  0.98239  0.06958  1.0000
  H   H41       1.0  0.08702000000000001  0.8836800000000002  0.96526  1.0000
  H   H42       1.0  0.11583999999999993  0.09779  0.9691700000000001  1.0000
  H   H43       1.0  0.7131899999999998  0.37296000000000007  0.08713  1.0000
  H   H44       1.0  0.5128499999999998  0.18981  0.1282  1.0000
  H   H45       1.0  0.52755  0.2998  0.16091  1.0000
  H   H46       1.0  0.55606  0.11608  0.07855  1.0000
  H   H47       1.0  0.72753  0.19370000000000007  0.00022000000000000003  1.0000
  H   H48       1.0  0.7434199999999999  0.30211  0.03337  1.0000
  H   H49       1.0  0.48786999999999997  0.6330700000000002  0.05963  1.0000
  H   H50       1.0  0.4854799999999999  0.72971  0.01647  1.0000
  H   H51       1.0  0.71358  0.7252500000000002  0.13714  1.0000
  H   H52       1.0  0.54263  0.8418400000000001  0.00356  1.0000
  H   H53       1.0  0.7609999999999999  0.9391600000000001  0.08288  1.0000
  H   H54       1.0  0.7741799999999999  0.83959  0.12288  1.0000
  H   H55       1.0  0.4403500000000001  0.07178000000000001  0.78961  1.0000
  H   H56       1.0  0.6605699999999998  0.8889000000000001  0.84284  1.0000
  H   H57       1.0  0.60821  0.8973000000000001  0.77447  1.0000
  H   H58       1.0  0.4435299999999999  0.11960000000000001  0.85174  1.0000
  H   H59       1.0  0.49172999999999994  0.11236000000000003  0.9194600000000002  1.0000
  H   H60       1.0  0.65345  0.9324900000000002  0.9075000000000001  1.0000
  H   H61       1.0  0.66081  0.02308  0.06763  1.0000
  H   H62       1.0  0.6022899999999999  0.91267  0.9648900000000001  1.0000
  H   H63       1.0  0.6063599999999999  0.12758000000000003  0.9638  1.0000
  H   H64       1.0  0.3737699999999999  0.13408  0.5613  1.0000
  H   H65       1.0  0.33041999999999994  0.23069  0.51887  1.0000
  H   H66       1.0  0.22487  0.22373  0.64298  1.0000
  H   H67       1.0  0.1491  0.3356600000000001  0.63156  1.0000
  H   H68       1.0  0.10656999999999996  0.43189  0.59016  1.0000
  H   H69       1.0  0.24562999999999996  0.33999  0.50572  1.0000
  H   H70       1.0  0.11715  0.86413  0.59051  1.0000
  H   H71       1.0  0.36706  0.6863  0.62243  1.0000
  H   H72       1.0  0.3857099999999999  0.7973000000000002  0.65424  1.0000
  H   H73       1.0  0.031060000000000067  0.79096  0.5395100000000002  1.0000
  H   H74       1.0  0.016549999999999992  0.6827600000000001  0.50606  1.0000
  H   H75       1.0  0.27331  0.61119  0.57651  1.0000
  H   H76       1.0  0.7741099999999997  0.39609000000000005  0.30528  1.0000
  H   H77       1.0  0.86616  0.37720000000000004  0.36918  1.0000
  H   H78       1.0  0.9419099999999998  0.5717000000000001  0.29323  1.0000
  H   H79       1.0  0.98359  0.41817000000000004  0.42234  1.0000
  H   H80       1.0  0.14468  0.5990100000000003  0.41213  1.0000
  H   H81       1.0  0.06827  0.60939  0.34623  1.0000
  H   H82       1.0  0.18126999999999993  0.51763  0.56968  1.0000
  H   H83       1.0  0.08743999999999995  0.6162100000000001  0.4655099999999999  1.0000
  H   H84       1.0  0.11617999999999999  0.40217  0.46905  1.0000
  H   H85       1.0  0.28679999999999994  0.62703  0.9128599999999999  1.0000
  H   H86       1.0  0.4871399999999999  0.8101800000000002  0.8718  1.0000
  H   H87       1.0  0.4724399999999999  0.7002  0.83908  1.0000
  H   H88       1.0  0.44392999999999994  0.8839200000000002  0.92145  1.0000
  H   H89       1.0  0.27246999999999993  0.8062900000000002  0.9997699999999999  1.0000
  H   H90       1.0  0.2565799999999999  0.6978900000000001  0.96663  1.0000
  H   H91       1.0  0.51212  0.36692000000000013  0.94037  1.0000
  H   H92       1.0  0.51451  0.27029  0.98353  1.0000
  H   H93       1.0  0.2864099999999998  0.27475000000000005  0.86285  1.0000
  H   H94       1.0  0.4573599999999999  0.15815000000000007  0.99643  1.0000
  H   H95       1.0  0.2389899999999999  0.06083  0.91711  1.0000
  H   H96       1.0  0.22581000000000004  0.16040000000000001  0.8771100000000001  1.0000
  H   H97       1.0  0.5596499999999998  0.92821  0.21038  1.0000
  H   H98       1.0  0.33943  0.11109  0.15716  1.0000
  H   H99       1.0  0.39178  0.10270000000000001  0.22552  1.0000
  H   H100      1.0  0.55647  0.8804000000000001  0.14826  1.0000
  H   H101      1.0  0.50827  0.8876400000000001  0.08054  1.0000
  H   H102      1.0  0.3465399999999999  0.06751  0.09249  1.0000
  H   H103      1.0  0.33919  0.9769100000000002  0.93237  1.0000
  H   H104      1.0  0.3976999999999999  0.08732000000000002  0.03511  1.0000
  H   H105      1.0  0.39362999999999987  0.8724100000000002  0.0362  1.0000
  H   H106      1.0  0.62622  0.86592  0.4387  1.0000
  H   H107      1.0  0.66957  0.7693000000000002  0.48113  1.0000
  H   H108      1.0  0.7751299999999999  0.77627  0.35702000000000006  1.0000
  H   H109      1.0  0.85089  0.66433  0.36844  1.0000
  H   H110      1.0  0.8934299999999997  0.56811  0.40983  1.0000
  H   H111      1.0  0.75436  0.66001  0.49428000000000005  1.0000
  H   H112      1.0  0.8828399999999996  0.13587  0.40949  1.0000
  H   H113      1.0  0.6329299999999998  0.31369  0.37756  1.0000
  H   H114      1.0  0.61428  0.20270000000000002  0.34575  1.0000
  H   H115      1.0  0.9689299999999997  0.20903000000000002  0.46048  1.0000
  H   H116      1.0  0.98344  0.31724  0.49393  1.0000
  H   H117      1.0  0.7266799999999998  0.3888  0.42349  1.0000
  H   H118      1.0  0.22588999999999992  0.60391  0.69472  1.0000
  H   H119      1.0  0.13383  0.6228  0.63081  1.0000
  H   H120      1.0  0.05808999999999993  0.4283  0.70677  1.0000
  H   H121      1.0  0.01639999999999999  0.5818200000000001  0.57766  1.0000
  H   H122      1.0  0.85531  0.40098  0.58787  1.0000
  H   H123      1.0  0.9317199999999998  0.39061  0.65376  1.0000
  H   H124      1.0  0.81872  0.48237  0.43032  1.0000
  H   H125      1.0  0.9125499999999998  0.3837800000000001  0.53449  1.0000
  H   H126      1.0  0.8838099999999998  0.59782  0.53095  1.0000
  H   H127      1.0  0.28713  0.8719800000000001  0.41286000000000006  1.0000
  H   H128      1.0  0.48805999999999994  0.6888100000000003  0.37217  1.0000
  H   H129      1.0  0.47296  0.79842  0.33922  1.0000
  H   H130      1.0  0.4439599999999999  0.61531  0.42172  1.0000
  H   H131      1.0  0.27249  0.69368  0.49992999999999993  1.0000
  H   H132      1.0  0.25700999999999996  0.80174  0.46669999999999995  1.0000
  H   H133      1.0  0.5132399999999999  0.13237  0.44138  1.0000
  H   H134      1.0  0.5152899999999998  0.22978000000000004  0.48425  1.0000
  H   H135      1.0  0.28768  0.22305  0.36351  1.0000
  H   H136      1.0  0.45802000000000004  0.34209  0.49673000000000006  1.0000
  H   H137      1.0  0.23958  0.43782  0.41702  1.0000
  H   H138      1.0  0.22697999999999996  0.33758  0.37731  1.0000
  H   H139      1.0  0.5597999999999997  0.57125  0.71063  1.0000
  H   H140      1.0  0.33933  0.38796  0.65715  1.0000
  H   H141      1.0  0.3917599999999999  0.39660000000000006  0.72552  1.0000
  H   H142      1.0  0.55667  0.6190500000000002  0.64879  1.0000
  H   H143      1.0  0.50839  0.61199  0.581  1.0000
  H   H144      1.0  0.34603999999999996  0.43206  0.59244  1.0000
  H   H145      1.0  0.3390599999999999  0.5225600000000001  0.4325800000000001  1.0000
  H   H146      1.0  0.39776  0.41246000000000005  0.53517  1.0000
  H   H147      1.0  0.39374  0.6273600000000001  0.53656  1.0000
  H   H148      1.0  0.6255799999999998  0.63377  0.93993  1.0000
  H   H149      1.0  0.6702  0.73113  0.98206  1.0000
  H   H150      1.0  0.7732599999999998  0.72167  0.85753  1.0000
  H   H151      1.0  0.8499199999999999  0.834  0.8684700000000001  1.0000
  H   H152      1.0  0.8926999999999999  0.93103  0.9094800000000001  1.0000
  H   H153      1.0  0.7550699999999998  0.8402200000000002  0.99455  1.0000
  H   H154      1.0  0.8846299999999998  0.36316000000000004  0.90915  1.0000
  H   H155      1.0  0.63315  0.1855  0.87819  1.0000
  H   H156      1.0  0.6149999999999999  0.2959300000000001  0.84606  1.0000
  H   H157      1.0  0.97024  0.29066000000000003  0.9605300000000001  1.0000
  H   H158      1.0  0.9841099999999998  0.18288000000000004  0.9941799999999998  1.0000
  H   H159      1.0  0.7268600000000001  0.11087000000000001  0.9239300000000001  1.0000
  H   H160      1.0  0.22651999999999994  0.8971400000000003  0.1946  1.0000
  H   H161      1.0  0.1336  0.87767  0.13086  1.0000
  H   H162      1.0  0.06085  0.07351  0.20669  1.0000
  H   H163      1.0  0.016579999999999994  0.9183500000000001  0.07787  1.0000
  H   H164      1.0  0.8562199999999998  0.09933000000000002  0.08801  1.0000
  H   H165      1.0  0.9332199999999998  0.11056000000000003  0.15376  1.0000
  H   H166      1.0  0.81891  0.017610000000000004  0.9304099999999998  1.0000
  H   H167      1.0  0.9129799999999998  0.11632  0.03474  1.0000
  H   H168      1.0  0.8841499999999998  0.90221  0.03082  1.0000
  C   C1        1.0  0.63439  0.09508  0.64723  1.0000
  C   C2        1.0  0.6225499999999998  0.15902000000000005  0.62605  1.0000
  C   C3        1.0  0.66849  0.1681  0.59549  1.0000
  C   C4        1.0  0.6580499999999998  0.22867  0.57517  1.0000
  C   C5        1.0  0.60271  0.28214000000000006  0.58763  1.0000
  C   C6        1.0  0.5552399999999998  0.27109  0.61877  1.0000
  C   C7        1.0  0.5636399999999998  0.2107  0.63716  1.0000
  C   C8        1.0  0.5971599999999998  0.34404  0.56848  1.0000
  C   C9        1.0  0.64149  0.35328  0.5374  1.0000
  C   C10       1.0  0.6929399999999998  0.29905  0.52442  1.0000
  C   C11       1.0  0.7016899999999998  0.23883000000000001  0.54301  1.0000
  C   C12       1.0  0.5976299999999998  0.8863700000000001  0.62544  1.0000
  C   C13       1.0  0.60067  0.8277900000000001  0.59999  1.0000
  C   C14       1.0  0.53573  0.8258100000000003  0.56558  1.0000
  C   C15       1.0  0.53481  0.7719400000000001  0.54197  1.0000
  C   C16       1.0  0.59724  0.7165300000000001  0.55184  1.0000
  C   C17       1.0  0.6623299999999998  0.7180100000000001  0.5867  1.0000
  C   C18       1.0  0.66329  0.77487  0.61004  1.0000
  C   C19       1.0  0.59345  0.65882  0.5291  1.0000
  C   C20       1.0  0.6483499999999998  0.60246  0.54032  1.0000
  C   C21       1.0  0.7145599999999998  0.6051200000000001  0.5745  1.0000
  C   C22       1.0  0.7219299999999997  0.66128  0.59674  1.0000
  C   C23       1.0  0.4790599999999998  0.5111300000000001  0.23731000000000002  1.0000
  C   C24       1.0  0.51926  0.51567  0.27776  1.0000
  C   C25       1.0  0.4891699999999999  0.46826000000000007  0.3011  1.0000
  C   C26       1.0  0.52011  0.47061  0.33987  1.0000
  C   C27       1.0  0.58121  0.5243000000000001  0.3559  1.0000
  C   C28       1.0  0.6129699999999998  0.57162  0.33121  1.0000
  C   C29       1.0  0.58402  0.56698  0.29312  1.0000
  C   C30       1.0  0.4896799999999999  0.42151  0.36351  1.0000
  C   C31       1.0  0.51705  0.42548  0.40138  1.0000
  C   C32       1.0  0.5755999999999999  0.47919000000000006  0.41815  1.0000
  C   C33       1.0  0.6070299999999997  0.52755  0.39531  1.0000
  C   C34       1.0  0.6340599999999997  0.4179300000000001  0.51756  1.0000
  C   C35       1.0  0.64524  0.47836  0.53718  1.0000
  C   C36       1.0  0.6356099999999998  0.5398900000000001  0.51851  1.0000
  C   C37       1.0  0.6117499999999998  0.5401699999999999  0.4795499999999999  1.0000
  C   C38       1.0  0.6010399999999998  0.48032000000000014  0.45920000000000005  1.0000
  C   C39       1.0  0.61357  0.4195900000000001  0.47867000000000004  1.0000
  C   C40       1.0  0.31853  0.3884000000000001  0.12751  1.0000
  C   C41       1.0  0.3008399999999999  0.32811  0.10348  1.0000
  C   C42       1.0  0.3320699999999999  0.32497000000000004  0.06831  1.0000
  C   C43       1.0  0.3074  0.27092000000000005  0.04517000000000001  1.0000
  C   C44       1.0  0.25197  0.21697  0.05621000000000001  1.0000
  C   C45       1.0  0.2247299999999999  0.21885  0.09254  1.0000
  C   C46       1.0  0.24929999999999994  0.27535  0.11534  1.0000
  C   C47       1.0  0.17195  0.16434  0.1042  1.0000
  C   C48       1.0  0.14788  0.11019000000000002  0.08125000000000002  1.0000
  C   C49       1.0  0.17347  0.10778  0.04496  1.0000
  C   C50       1.0  0.22370999999999994  0.16121  0.03287  1.0000
  C   C51       1.0  0.26233  0.60117  0.14526  1.0000
  C   C52       1.0  0.24978000000000003  0.66482  0.12445  1.0000
  C   C53       1.0  0.17011  0.6756400000000002  0.09708  1.0000
  C   C54       1.0  0.16069999999999995  0.73641  0.07694  1.0000
  C   C55       1.0  0.23169  0.788  0.08683  1.0000
  C   C56       1.0  0.31263999999999986  0.77543  0.11498000000000001  1.0000
  C   C57       1.0  0.3226799999999999  0.7147400000000002  0.13283  1.0000
  C   C58       1.0  0.08327999999999998  0.7484700000000001  0.04721  1.0000
  C   C59       1.0  0.07573999999999997  0.80853  0.028430000000000004  1.0000
  C   C60       1.0  0.14398999999999995  0.86078  0.03901  1.0000
  C   C61       1.0  0.21999  0.8498700000000002  0.06797  1.0000
  C   C62       1.0  0.79504  0.0027700000000000003  0.75822  1.0000
  C   C63       1.0  0.8520999999999997  0.013400000000000002  0.796  1.0000
  C   C64       1.0  0.8310899999999998  0.06927000000000001  0.81746  1.0000
  C   C65       1.0  0.88248  0.07973  0.85257  1.0000
  C   C66       1.0  0.9556899999999998  0.03406  0.8682500000000001  1.0000
  C   C67       1.0  0.9769199999999998  0.97753  0.8466  1.0000
  C   C68       1.0  0.92438  0.96889  0.81027  1.0000
  C   C69       1.0  0.0030999999999999617  0.04016000000000001  0.90553  1.0000
  C   C70       1.0  0.0661999999999999  0.9912800000000002  0.9219899999999999  1.0000
  C   C71       1.0  0.09090000000000002  0.9374  0.89963  1.0000
  C   C72       1.0  0.04810999999999996  0.9311000000000001  0.86295  1.0000
  C   C73       1.0  0.14966999999999997  0.04723  0.02202  1.0000
  C   C74       1.0  0.15742  0.9848600000000001  0.03968  1.0000
  C   C75       1.0  0.13519999999999996  0.9256300000000001  0.01963  1.0000
  C   C76       1.0  0.10576000000000008  0.92924  0.9811200000000001  1.0000
  C   C77       1.0  0.09979  0.99087  0.96255  1.0000
  C   C78       1.0  0.12118  0.049710000000000004  0.9832899999999999  1.0000
  C   C79       1.0  0.6347799999999999  0.40635  0.14718  1.0000
  C   C80       1.0  0.62292  0.34223000000000003  0.12607  1.0000
  C   C81       1.0  0.6688699999999997  0.33288  0.09552  1.0000
  C   C82       1.0  0.6584999999999999  0.27208  0.07530000000000002  1.0000
  C   C83       1.0  0.60315  0.21871  0.08785000000000001  1.0000
  C   C84       1.0  0.55585  0.22998  0.11902000000000001  1.0000
  C   C85       1.0  0.5641199999999997  0.2905700000000001  0.13729  1.0000
  C   C86       1.0  0.59738  0.15664  0.06876  1.0000
  C   C87       1.0  0.64163  0.14713  0.03769  1.0000
  C   C88       1.0  0.69314  0.20122000000000004  0.02461  1.0000
  C   C89       1.0  0.70209  0.2616200000000001  0.04313  1.0000
  C   C90       1.0  0.5983899999999998  0.6152900000000001  0.12635  1.0000
  C   C91       1.0  0.60173  0.67371  0.1009  1.0000
  C   C92       1.0  0.5368  0.67507  0.06647  1.0000
  C   C93       1.0  0.53574  0.7284700000000002  0.04266  1.0000
  C   C94       1.0  0.5982199999999998  0.7840900000000001  0.0523  1.0000
  C   C95       1.0  0.6634199999999998  0.78323  0.08713  1.0000
  C   C96       1.0  0.6644599999999998  0.72683  0.11073  1.0000
  C   C97       1.0  0.59421  0.8414200000000001  0.029369999999999997  1.0000
  C   C98       1.0  0.6489399999999997  0.8980700000000001  0.04042  1.0000
  C   C99       1.0  0.71529  0.89599  0.07455  1.0000
  C   C100      1.0  0.72299  0.84019  0.09696  1.0000
  C   C101      1.0  0.4789599999999998  0.9901  0.73749  1.0000
  C   C102      1.0  0.5188199999999998  0.98487  0.77793  1.0000
  C   C103      1.0  0.48891999999999997  0.03225  0.8013900000000002  1.0000
  C   C104      1.0  0.51996  0.029960000000000004  0.8401300000000002  1.0000
  C   C105      1.0  0.5809499999999999  0.9763  0.85598  1.0000
  C   C106      1.0  0.61259  0.92902  0.83119  1.0000
  C   C107      1.0  0.58356  0.93358  0.79313  1.0000
  C   C108      1.0  0.48983999999999994  0.07905000000000001  0.86391  1.0000
  C   C109      1.0  0.5171799999999998  0.07496  0.9017499999999999  1.0000
  C   C110      1.0  0.5754499999999998  0.02116000000000001  0.91834  1.0000
  C   C111      1.0  0.60682  0.97294  0.89535  1.0000
  C   C112      1.0  0.6340299999999998  0.0824  0.01783  1.0000
  C   C113      1.0  0.6451799999999998  0.02204  0.03739  1.0000
  C   C114      1.0  0.6357699999999997  0.9604900000000001  0.01861  1.0000
  C   C115      1.0  0.61168  0.9601000000000002  0.9796500000000001  1.0000
  C   C116      1.0  0.60086  0.01991  0.9593800000000001  1.0000
  C   C117      1.0  0.6135999999999998  0.08064  0.9789400000000001  1.0000
  C   C118      1.0  0.31823  0.11339  0.62895  1.0000
  C   C119      1.0  0.30003  0.17304000000000005  0.60452  1.0000
  C   C120      1.0  0.3315499999999999  0.17552000000000004  0.56938  1.0000
  C   C121      1.0  0.3074399999999999  0.22919  0.546  1.0000
  C   C122      1.0  0.25191999999999987  0.28342  0.55665  1.0000
  C   C123      1.0  0.22404  0.2821000000000001  0.59288  1.0000
  C   C124      1.0  0.24818  0.22602000000000003  0.6159800000000001  1.0000
  C   C125      1.0  0.17112  0.33678000000000013  0.60425  1.0000
  C   C126      1.0  0.14734  0.39051  0.58114  1.0000
  C   C127      1.0  0.17348999999999998  0.39240000000000014  0.54493  1.0000
  C   C128      1.0  0.22396  0.33883  0.53308  1.0000
  C   C129      1.0  0.26276  0.9002700000000001  0.64514  1.0000
  C   C130      1.0  0.25114  0.8364400000000001  0.62434  1.0000
  C   C131      1.0  0.17164  0.8252900000000001  0.59687  1.0000
  C   C132      1.0  0.16189000000000003  0.76416  0.57697  1.0000
  C   C133      1.0  0.23248999999999995  0.71255  0.58709  1.0000
  C   C134      1.0  0.3133  0.72544  0.61533  1.0000
  C   C135      1.0  0.32358999999999993  0.78645  0.63302  1.0000
  C   C136      1.0  0.08432999999999999  0.75179  0.54731  1.0000
  C   C137      1.0  0.07644999999999996  0.69152  0.52866  1.0000
  C   C138      1.0  0.14448999999999995  0.63932  0.5393  1.0000
  C   C139      1.0  0.22040999999999994  0.6504400000000001  0.56834  1.0000
  C   C140      1.0  0.7970299999999998  0.49612  0.25815  1.0000
  C   C141      1.0  0.8538399999999998  0.48515000000000014  0.29591  1.0000
  C   C142      1.0  0.8319699999999998  0.42963  0.31738  1.0000
  C   C143      1.0  0.8828899999999996  0.41947000000000007  0.35257  1.0000
  C   C144      1.0  0.9564  0.46510000000000007  0.36831  1.0000
  C   C145      1.0  0.97838  0.5212900000000001  0.34663  1.0000
  C   C146      1.0  0.9264899999999998  0.52957  0.31021  1.0000
  C   C147      1.0  0.003490000000000006  0.45938  0.40564  1.0000
  C   C148      1.0  0.06675  0.50839  0.42208  1.0000
  C   C149      1.0  0.09187  0.5621  0.39975  1.0000
  C   C150      1.0  0.049479999999999996  0.56794  0.36302  1.0000
  C   C151      1.0  0.14994999999999994  0.45280000000000004  0.522  1.0000
  C   C152      1.0  0.15760999999999992  0.5151900000000001  0.53977  1.0000
  C   C153      1.0  0.13549999999999995  0.5744  0.51984  1.0000
  C   C154      1.0  0.10613  0.5706800000000001  0.4813  1.0000
  C   C155      1.0  0.10018000000000003  0.50903  0.46264000000000005  1.0000
  C   C156      1.0  0.12155999999999996  0.45023  0.48328  1.0000
  C   C157      1.0  0.36520999999999987  0.59365  0.85281  1.0000
  C   C158      1.0  0.3770799999999999  0.6577700000000002  0.87393  1.0000
  C   C159      1.0  0.33111999999999997  0.66712  0.90448  1.0000
  C   C160      1.0  0.3414999999999999  0.7279200000000001  0.9247  1.0000
  C   C161      1.0  0.3968399999999999  0.7812900000000002  0.91215  1.0000
  C   C162      1.0  0.44415  0.77001  0.88098  1.0000
  C   C163      1.0  0.43586999999999987  0.70943  0.86271  1.0000
  C   C164      1.0  0.40262000000000003  0.8433600000000001  0.9312300000000001  1.0000
  C   C165      1.0  0.35835999999999996  0.8528700000000001  0.9623099999999999  1.0000
  C   C166      1.0  0.30685  0.7987800000000002  0.97538  1.0000
  C   C167      1.0  0.29791  0.73837  0.95687  1.0000
  C   C168      1.0  0.4016  0.38471  0.87365  1.0000
  C   C169      1.0  0.3982599999999999  0.32628000000000007  0.89909  1.0000
  C   C170      1.0  0.4631999999999999  0.32493  0.93352  1.0000
  C   C171      1.0  0.46424999999999994  0.27152  0.9573400000000001  1.0000
  C   C172      1.0  0.4017799999999999  0.21591  0.94769  1.0000
  C   C173      1.0  0.33656999999999987  0.21677  0.91287  1.0000
  C   C174      1.0  0.33553999999999995  0.27317  0.8892700000000001  1.0000
  C   C175      1.0  0.4057799999999999  0.15858  0.97063  1.0000
  C   C176      1.0  0.35105  0.10193  0.95958  1.0000
  C   C177      1.0  0.28469999999999995  0.10401  0.9254500000000001  1.0000
  C   C178      1.0  0.27701  0.15981  0.90303  1.0000
  C   C179      1.0  0.52104  0.0099  0.26251  1.0000
  C   C180      1.0  0.4811699999999999  0.015120000000000003  0.22207  1.0000
  C   C181      1.0  0.51108  0.96775  0.19861  1.0000
  C   C182      1.0  0.4800399999999999  0.9700300000000001  0.15986  1.0000
  C   C183      1.0  0.41903999999999997  0.023690000000000006  0.14402  1.0000
  C   C184      1.0  0.3874099999999999  0.07098000000000002  0.1688  1.0000
  C   C185      1.0  0.41644  0.06641  0.20687000000000003  1.0000
  C   C186      1.0  0.51016  0.92094  0.13609  1.0000
  C   C187      1.0  0.4828099999999999  0.9250300000000001  0.09825  1.0000
  C   C188      1.0  0.42454999999999987  0.97883  0.08166  1.0000
  C   C189      1.0  0.3931699999999999  0.02706  0.10465  1.0000
  C   C190      1.0  0.36596  0.9176  0.98216  1.0000
  C   C191      1.0  0.35482  0.9779500000000001  0.9626  1.0000
  C   C192      1.0  0.36423  0.0395  0.98139  1.0000
  C   C193      1.0  0.3883099999999999  0.03989000000000001  0.02035  1.0000
  C   C194      1.0  0.3991299999999999  0.9800900000000002  0.04062  1.0000
  C   C195      1.0  0.3863899999999999  0.91936  0.02105  1.0000
  C   C196      1.0  0.6817599999999998  0.8866  0.37105  1.0000
  C   C197      1.0  0.6999599999999998  0.8269600000000003  0.39548  1.0000
  C   C198      1.0  0.6684399999999998  0.8244800000000001  0.43062000000000006  1.0000
  C   C199      1.0  0.6925599999999998  0.77081  0.45400000000000007  1.0000
  C   C200      1.0  0.74807  0.7165700000000002  0.44335  1.0000
  C   C201      1.0  0.7759499999999998  0.71789  0.40712  1.0000
  C   C202      1.0  0.75182  0.77398  0.38402  1.0000
  C   C203      1.0  0.8288799999999997  0.66322  0.39575  1.0000
  C   C204      1.0  0.8526499999999999  0.6094800000000001  0.41886  1.0000
  C   C205      1.0  0.8265099999999997  0.6076  0.45507000000000003  1.0000
  C   C206      1.0  0.77603  0.66117  0.46691000000000005  1.0000
  C   C207      1.0  0.7372300000000002  0.09973  0.35486000000000006  1.0000
  C   C208      1.0  0.74885  0.16356  0.37566  1.0000
  C   C209      1.0  0.82835  0.17471  0.40312000000000003  1.0000
  C   C210      1.0  0.8380999999999997  0.23584  0.42302  1.0000
  C   C211      1.0  0.7675099999999998  0.28744000000000003  0.41291  1.0000
  C   C212      1.0  0.68669  0.27455  0.38466  1.0000
  C   C213      1.0  0.6763999999999998  0.21354000000000004  0.36697  1.0000
  C   C214      1.0  0.9156599999999998  0.24820000000000003  0.45269  1.0000
  C   C215      1.0  0.9235399999999999  0.30848  0.4713300000000001  1.0000
  C   C216      1.0  0.8555099999999999  0.36068000000000006  0.46069000000000004  1.0000
  C   C217      1.0  0.7795799999999998  0.34955  0.43166  1.0000
  C   C218      1.0  0.20296  0.50387  0.74185  1.0000
  C   C219      1.0  0.1461499999999999  0.5148500000000001  0.70409  1.0000
  C   C220      1.0  0.16802999999999996  0.57036  0.68261  1.0000
  C   C221      1.0  0.1171  0.58052  0.64743  1.0000
  C   C222      1.0  0.0436  0.5349  0.63168  1.0000
  C   C223      1.0  0.021609999999999983  0.47871000000000014  0.65337  1.0000
  C   C224      1.0  0.07350999999999995  0.4704300000000001  0.68979  1.0000
  C   C225      1.0  0.9964999999999997  0.54061  0.59435  1.0000
  C   C226      1.0  0.9332499999999998  0.4916  0.57792  1.0000
  C   C227      1.0  0.90813  0.4379  0.60025  1.0000
  C   C228      1.0  0.9505199999999998  0.43206  0.63698  1.0000
  C   C229      1.0  0.8500399999999998  0.54719  0.47800000000000004  1.0000
  C   C230      1.0  0.8423799999999998  0.4848  0.46023  1.0000
  C   C231      1.0  0.8644899999999998  0.42560000000000003  0.48016  1.0000
  C   C232      1.0  0.89387  0.4293100000000001  0.51869  1.0000
  C   C233      1.0  0.8998199999999997  0.49096  0.53736  1.0000
  C   C234      1.0  0.8784299999999998  0.54977  0.51672  1.0000
  C   C235      1.0  0.36559999999999987  0.9049200000000001  0.35277  1.0000
  C   C236      1.0  0.37743999999999994  0.84098  0.37394  1.0000
  C   C237      1.0  0.3315  0.8319  0.40451  1.0000
  C   C238      1.0  0.34195  0.77132  0.42482  1.0000
  C   C239      1.0  0.39728  0.71786  0.41237  1.0000
  C   C240      1.0  0.44474999999999987  0.72891  0.38123  1.0000
  C   C241      1.0  0.43636  0.7892900000000003  0.36283  1.0000
  C   C242      1.0  0.40283999999999986  0.65596  0.43152  1.0000
  C   C243      1.0  0.35851  0.6467100000000002  0.46259000000000006  1.0000
  C   C244      1.0  0.3070599999999999  0.70095  0.47557  1.0000
  C   C245      1.0  0.29830999999999996  0.7611700000000001  0.45699  1.0000
  C   C246      1.0  0.4023599999999999  0.11363000000000001  0.37456000000000006  1.0000
  C   C247      1.0  0.39932  0.1722  0.4  1.0000
  C   C248      1.0  0.4642699999999999  0.17418  0.43442  1.0000
  C   C249      1.0  0.46518  0.22806000000000004  0.45803  1.0000
  C   C250      1.0  0.40275000000000005  0.28347  0.44816000000000006  1.0000
  C   C251      1.0  0.3376700000000001  0.28199000000000013  0.41330000000000006  1.0000
  C   C252      1.0  0.33669999999999994  0.22513000000000002  0.38995  1.0000
  C   C253      1.0  0.40654000000000007  0.34118  0.47090000000000004  1.0000
  C   C254      1.0  0.3516399999999999  0.39753000000000005  0.45967  1.0000
  C   C255      1.0  0.28543  0.39487  0.4255  1.0000
  C   C256      1.0  0.27805999999999986  0.3387100000000001  0.40326  1.0000
  C   C257      1.0  0.5209399999999998  0.48887  0.76269  1.0000
  C   C258      1.0  0.4807399999999999  0.48432000000000003  0.72224  1.0000
  C   C259      1.0  0.51082  0.53174  0.6989  1.0000
  C   C260      1.0  0.4798799999999999  0.52939  0.66012  1.0000
  C   C261      1.0  0.41879  0.47569000000000006  0.6441  1.0000
  C   C262      1.0  0.3870299999999999  0.42838  0.66879  1.0000
  C   C263      1.0  0.41597999999999996  0.43301000000000006  0.70688  1.0000
  C   C264      1.0  0.51031  0.5784800000000001  0.63648  1.0000
  C   C265      1.0  0.4829499999999999  0.57451  0.59861  1.0000
  C   C266      1.0  0.4243899999999999  0.5208  0.58184  1.0000
  C   C267      1.0  0.39296  0.47244000000000014  0.60469  1.0000
  C   C268      1.0  0.36592999999999987  0.58206  0.48244000000000004  1.0000
  C   C269      1.0  0.35475999999999996  0.52164  0.46281000000000005  1.0000
  C   C270      1.0  0.36438  0.46011  0.48149  1.0000
  C   C271      1.0  0.38823999999999986  0.45983  0.52045  1.0000
  C   C272      1.0  0.39894999999999997  0.51967  0.5407900000000001  1.0000
  C   C273      1.0  0.3864199999999999  0.5804  0.52133  1.0000
  C   C274      1.0  0.6814599999999997  0.61159  0.87249  1.0000
  C   C275      1.0  0.6991599999999998  0.6718800000000001  0.8965099999999999  1.0000
  C   C276      1.0  0.6679199999999998  0.67503  0.9316900000000001  1.0000
  C   C277      1.0  0.6925899999999998  0.7290700000000001  0.95483  1.0000
  C   C278      1.0  0.7480299999999999  0.7830200000000003  0.9437900000000001  1.0000
  C   C279      1.0  0.77527  0.78115  0.9074600000000002  1.0000
  C   C280      1.0  0.7506999999999998  0.7246500000000002  0.88465  1.0000
  C   C281      1.0  0.8280499999999997  0.8356600000000001  0.8957999999999999  1.0000
  C   C282      1.0  0.8521199999999999  0.8898100000000001  0.9187400000000001  1.0000
  C   C283      1.0  0.8265199999999998  0.89221  0.9550399999999999  1.0000
  C   C284      1.0  0.7762899999999998  0.83878  0.96713  1.0000
  C   C285      1.0  0.7376599999999998  0.39883  0.85473  1.0000
  C   C286      1.0  0.7502199999999998  0.33517  0.87555  1.0000
  C   C287      1.0  0.8298800000000001  0.3243500000000001  0.9029200000000001  1.0000
  C   C288      1.0  0.8393  0.26358  0.92306  1.0000
  C   C289      1.0  0.7682999999999998  0.21199  0.91317  1.0000
  C   C290      1.0  0.68736  0.22457  0.88501  1.0000
  C   C291      1.0  0.6773199999999999  0.28526  0.86717  1.0000
  C   C292      1.0  0.91671  0.25152  0.95278  1.0000
  C   C293      1.0  0.9242599999999997  0.19147000000000006  0.9715699999999999  1.0000
  C   C294      1.0  0.8559999999999998  0.13922  0.9609899999999999  1.0000
  C   C295      1.0  0.7800099999999998  0.15013  0.93202  1.0000
  C   C296      1.0  0.20494999999999994  0.99723  0.24178  1.0000
  C   C297      1.0  0.14789999999999998  0.9866  0.204  1.0000
  C   C298      1.0  0.16889999999999997  0.93072  0.18253  1.0000
  C   C299      1.0  0.11751999999999997  0.9202700000000003  0.14743  1.0000
  C   C300      1.0  0.04431  0.9659400000000002  0.13174  1.0000
  C   C301      1.0  0.02307  0.02247  0.1534  1.0000
  C   C302      1.0  0.07561999999999998  0.03111  0.18973  1.0000
  C   C303      1.0  0.9968899999999998  0.95983  0.09446  1.0000
  C   C304      1.0  0.9338  0.00871  0.07800000000000001  1.0000
  C   C305      1.0  0.9090899999999997  0.06259  0.10037  1.0000
  C   C306      1.0  0.95188  0.0689  0.13704  1.0000
  C   C307      1.0  0.85032  0.95276  0.9779800000000001  1.0000
  C   C308      1.0  0.84258  0.015130000000000001  0.9603100000000001  1.0000
  C   C309      1.0  0.8647899999999997  0.07436  0.9803600000000001  1.0000
  C   C310      1.0  0.89423  0.07076  0.01888  1.0000
  C   C311      1.0  0.90021  0.00912  0.03744  1.0000
  C   C312      1.0  0.8788199999999998  0.95028  0.016700000000000003  1.0000
  O   O1        1.0  0.5715199999999999  0.08094000000000001  0.66836  1.0000
  O   O2        1.0  0.7055999999999998  0.05700000000000001  0.64446  1.0000
  O   O3        1.0  0.6574199999999998  0.88893  0.65579  1.0000
  O   O4        1.0  0.53198  0.92979  0.61433  1.0000
  O   O5        1.0  0.5230499999999999  0.53855  0.21314000000000002  1.0000
  O   O6        1.0  0.3993799999999998  0.4779700000000001  0.22958  1.0000
  O   O7        1.0  0.28070999999999996  0.38759  0.15753  1.0000
  O   O8        1.0  0.36612999999999996  0.4373100000000001  0.11697000000000002  1.0000
  O   O9        1.0  0.34832999999999986  0.58596  0.16137  1.0000
  O   O10       1.0  0.19012  0.56303  0.14816  1.0000
  O   O11       1.0  0.81451  0.95224  0.73879  1.0000
  O   O12       1.0  0.7279399999999998  0.0439  0.7461  1.0000
  O   O13       1.0  0.57178  0.4206200000000001  0.16828  1.0000
  O   O14       1.0  0.70605  0.44446  0.14447  1.0000
  O   O15       1.0  0.65705  0.61288  0.15704  1.0000
  O   O16       1.0  0.53321  0.57168  0.11467999999999999  1.0000
  O   O17       1.0  0.52334  0.9629800000000002  0.71328  1.0000
  O   O18       1.0  0.3996599999999999  0.023460000000000005  0.7297  1.0000
  O   O19       1.0  0.28082999999999997  0.11450000000000003  0.65905  1.0000
  O   O20       1.0  0.36588  0.06428  0.61855  1.0000
  O   O21       1.0  0.3476199999999999  0.9152300000000001  0.66286  1.0000
  O   O22       1.0  0.1904099999999999  0.93899  0.64654  1.0000
  O   O23       1.0  0.8187699999999999  0.5459800000000001  0.23877  1.0000
  O   O24       1.0  0.72786  0.4563400000000001  0.24610000000000004  1.0000
  O   O25       1.0  0.42821  0.57938  0.83171  1.0000
  O   O26       1.0  0.29393999999999987  0.55553  0.85553  1.0000
  O   O27       1.0  0.34294  0.38712  0.84296  1.0000
  O   O28       1.0  0.4667899999999998  0.42831  0.88531  1.0000
  O   O29       1.0  0.4766599999999999  0.03702  0.28671  1.0000
  O   O30       1.0  0.60033  0.9765300000000002  0.27029  1.0000
  O   O31       1.0  0.7191599999999998  0.8855  0.34094  1.0000
  O   O32       1.0  0.63411  0.9357200000000001  0.38145  1.0000
  O   O33       1.0  0.6523699999999999  0.08477  0.33713  1.0000
  O   O34       1.0  0.8095899999999999  0.061000000000000006  0.35346  1.0000
  O   O35       1.0  0.18122000000000002  0.45402  0.76123  1.0000
  O   O36       1.0  0.27213  0.54365  0.7539  1.0000
  O   O37       1.0  0.42847  0.9190500000000001  0.33164  1.0000
  O   O38       1.0  0.29439  0.9430000000000001  0.35554  1.0000
  O   O39       1.0  0.34257  0.11107000000000002  0.34421  1.0000
  O   O40       1.0  0.46801  0.07021  0.38567  1.0000
  O   O41       1.0  0.47693999999999986  0.46145000000000014  0.78685  1.0000
  O   O42       1.0  0.60062  0.52203  0.77042  1.0000
  O   O43       1.0  0.7192799999999998  0.6124000000000002  0.84247  1.0000
  O   O44       1.0  0.6338599999999998  0.56269  0.88302  1.0000
  O   O45       1.0  0.65166  0.41404  0.83863  1.0000
  O   O46       1.0  0.8098699999999998  0.43696000000000007  0.85183  1.0000
  O   O47       1.0  0.18549  0.047750000000000015  0.2612  1.0000
  O   O48       1.0  0.27205  0.9560900000000001  0.2539  1.0000
