data_image0
_chemical_formula_structural       Zn48H96C192O216
_chemical_formula_sum              "Zn48 H96 C192 O216"
_cell_length_a       20.36094
_cell_length_b       20.36094
_cell_length_c       20.36094
_cell_angle_alpha    90.0
_cell_angle_beta     90.0
_cell_angle_gamma    90.0

_space_group_name_H-M_alt    "P 1"
_space_group_IT_number       1

loop_
  _space_group_symop_operation_xyz
  'x, y, z'

loop_
  _atom_site_type_symbol
  _atom_site_label
  _atom_site_symmetry_multiplicity
  _atom_site_fract_x
  _atom_site_fract_y
  _atom_site_fract_z
  _atom_site_occupancy
  Zn  Zn1       1.0  0.1597  0.10539000000000001  0.64423  1.0000
  Zn  Zn2       1.0  0.26811  0.00474  0.55851  1.0000
  Zn  Zn3       1.0  0.3403  0.8946100000000001  0.14424000000000003  1.0000
  Zn  Zn4       1.0  0.23189000000000004  0.9952600000000001  0.05851  1.0000
  Zn  Zn5       1.0  0.8403  0.60539  0.8557600000000002  1.0000
  Zn  Zn6       1.0  0.7318900000000002  0.5047400000000001  0.94149  1.0000
  Zn  Zn7       1.0  0.6597000000000001  0.39461  0.35576  1.0000
  Zn  Zn8       1.0  0.76811  0.49526000000000003  0.44149  1.0000
  Zn  Zn9       1.0  0.64423  0.1597  0.10539000000000001  1.0000
  Zn  Zn10      1.0  0.55851  0.26811  0.00474  1.0000
  Zn  Zn11      1.0  0.14424000000000003  0.3403  0.8946100000000001  1.0000
  Zn  Zn12      1.0  0.05851  0.23189000000000004  0.9952600000000001  1.0000
  Zn  Zn13      1.0  0.8557600000000002  0.8403  0.60539  1.0000
  Zn  Zn14      1.0  0.94149  0.7318900000000002  0.5047400000000001  1.0000
  Zn  Zn15      1.0  0.35576  0.6597000000000001  0.39461  1.0000
  Zn  Zn16      1.0  0.44149  0.76811  0.49526000000000003  1.0000
  Zn  Zn17      1.0  0.10539000000000001  0.64423  0.1597  1.0000
  Zn  Zn18      1.0  0.00474  0.55851  0.26811  1.0000
  Zn  Zn19      1.0  0.8946100000000001  0.14424000000000003  0.3403  1.0000
  Zn  Zn20      1.0  0.9952600000000001  0.05851  0.23189000000000004  1.0000
  Zn  Zn21      1.0  0.60539  0.8557600000000002  0.8403  1.0000
  Zn  Zn22      1.0  0.5047400000000001  0.94149  0.7318900000000002  1.0000
  Zn  Zn23      1.0  0.39461  0.35576  0.6597000000000001  1.0000
  Zn  Zn24      1.0  0.49526000000000003  0.44149  0.76811  1.0000
  Zn  Zn25      1.0  0.8403  0.8946100000000001  0.35576  1.0000
  Zn  Zn26      1.0  0.7318900000000002  0.9952600000000001  0.44149  1.0000
  Zn  Zn27      1.0  0.6597000000000001  0.10539000000000001  0.8557600000000002  1.0000
  Zn  Zn28      1.0  0.76811  0.00474  0.94149  1.0000
  Zn  Zn29      1.0  0.1597  0.39461  0.14424000000000003  1.0000
  Zn  Zn30      1.0  0.26811  0.49526000000000003  0.05851  1.0000
  Zn  Zn31      1.0  0.3403  0.60539  0.64423  1.0000
  Zn  Zn32      1.0  0.23189000000000004  0.5047400000000001  0.55851  1.0000
  Zn  Zn33      1.0  0.35576  0.8403  0.8946100000000001  1.0000
  Zn  Zn34      1.0  0.44149  0.7318900000000002  0.9952600000000001  1.0000
  Zn  Zn35      1.0  0.8557600000000002  0.6597000000000001  0.10539000000000001  1.0000
  Zn  Zn36      1.0  0.94149  0.76811  0.00474  1.0000
  Zn  Zn37      1.0  0.14424000000000003  0.1597  0.39461  1.0000
  Zn  Zn38      1.0  0.05851  0.26811  0.49526000000000003  1.0000
  Zn  Zn39      1.0  0.64423  0.3403  0.60539  1.0000
  Zn  Zn40      1.0  0.55851  0.23189000000000004  0.5047400000000001  1.0000
  Zn  Zn41      1.0  0.8946100000000001  0.35576  0.8403  1.0000
  Zn  Zn42      1.0  0.9952600000000001  0.44149  0.7318900000000002  1.0000
  Zn  Zn43      1.0  0.10539000000000001  0.8557600000000002  0.6597000000000001  1.0000
  Zn  Zn44      1.0  0.00474  0.94149  0.76811  1.0000
  Zn  Zn45      1.0  0.39461  0.14424000000000003  0.1597  1.0000
  Zn  Zn46      1.0  0.49526000000000003  0.05851  0.26811  1.0000
  Zn  Zn47      1.0  0.60539  0.64423  0.3403  1.0000
  Zn  Zn48      1.0  0.5047400000000001  0.55851  0.23189000000000004  1.0000
  H   H1        1.0  0.34288  0.18813  0.49708  1.0000
  H   H2        1.0  0.38222  0.19644  0.62529  1.0000
  H   H3        1.0  0.23044  0.30554  0.61412  1.0000
  H   H4        1.0  0.30068  0.2954800000000001  0.48389  1.0000
  H   H5        1.0  0.15712000000000004  0.81187  0.99708  1.0000
  H   H6        1.0  0.11778000000000001  0.8035600000000002  0.12529  1.0000
  H   H7        1.0  0.26956  0.69446  0.11412  1.0000
  H   H8        1.0  0.19932000000000005  0.70452  0.98389  1.0000
  H   H9        1.0  0.65712  0.68813  0.0029200000000000007  1.0000
  H   H10       1.0  0.61778  0.6964400000000001  0.8747100000000002  1.0000
  H   H11       1.0  0.7695600000000001  0.8055400000000001  0.88587  1.0000
  H   H12       1.0  0.6993200000000002  0.79548  0.016100000000000003  1.0000
  H   H13       1.0  0.8428800000000002  0.31187  0.5029200000000001  1.0000
  H   H14       1.0  0.88221  0.30356  0.3747100000000001  1.0000
  H   H15       1.0  0.73044  0.19446  0.38588  1.0000
  H   H16       1.0  0.8006800000000001  0.20452  0.5161  1.0000
  H   H17       1.0  0.49708  0.34288  0.18813  1.0000
  H   H18       1.0  0.62529  0.38222  0.19644  1.0000
  H   H19       1.0  0.61412  0.23044  0.30554  1.0000
  H   H20       1.0  0.48389  0.30068  0.2954800000000001  1.0000
  H   H21       1.0  0.99708  0.15712000000000004  0.81187  1.0000
  H   H22       1.0  0.12529  0.11778000000000001  0.8035600000000002  1.0000
  H   H23       1.0  0.11412  0.26956  0.69446  1.0000
  H   H24       1.0  0.98389  0.19932000000000005  0.70452  1.0000
  H   H25       1.0  0.0029200000000000007  0.65712  0.68813  1.0000
  H   H26       1.0  0.8747100000000002  0.61778  0.6964400000000001  1.0000
  H   H27       1.0  0.88587  0.7695600000000001  0.8055400000000001  1.0000
  H   H28       1.0  0.016100000000000003  0.6993200000000002  0.79548  1.0000
  H   H29       1.0  0.5029200000000001  0.8428800000000002  0.31187  1.0000
  H   H30       1.0  0.3747100000000001  0.88221  0.30356  1.0000
  H   H31       1.0  0.38588  0.73044  0.19446  1.0000
  H   H32       1.0  0.5161  0.8006800000000001  0.20452  1.0000
  H   H33       1.0  0.18813  0.49708  0.34288  1.0000
  H   H34       1.0  0.19644  0.62529  0.38222  1.0000
  H   H35       1.0  0.30554  0.61412  0.23044  1.0000
  H   H36       1.0  0.2954800000000001  0.48389  0.30068  1.0000
  H   H37       1.0  0.81187  0.99708  0.15712000000000004  1.0000
  H   H38       1.0  0.8035600000000002  0.12529  0.11778000000000001  1.0000
  H   H39       1.0  0.69446  0.11412  0.26956  1.0000
  H   H40       1.0  0.70452  0.98389  0.19932000000000005  1.0000
  H   H41       1.0  0.68813  0.0029200000000000007  0.65712  1.0000
  H   H42       1.0  0.6964400000000001  0.8747100000000002  0.61778  1.0000
  H   H43       1.0  0.8055400000000001  0.88587  0.7695600000000001  1.0000
  H   H44       1.0  0.79548  0.016100000000000003  0.6993200000000002  1.0000
  H   H45       1.0  0.31187  0.5029200000000001  0.8428800000000002  1.0000
  H   H46       1.0  0.30356  0.3747100000000001  0.88221  1.0000
  H   H47       1.0  0.19446  0.38588  0.73044  1.0000
  H   H48       1.0  0.20452  0.5161  0.8006800000000001  1.0000
  H   H49       1.0  0.65712  0.81187  0.5029200000000001  1.0000
  H   H50       1.0  0.61778  0.8035600000000002  0.3747100000000001  1.0000
  H   H51       1.0  0.7695600000000001  0.69446  0.38588  1.0000
  H   H52       1.0  0.6993200000000002  0.70452  0.5161  1.0000
  H   H53       1.0  0.8428800000000002  0.18813  0.0029200000000000007  1.0000
  H   H54       1.0  0.88221  0.19644  0.8747100000000002  1.0000
  H   H55       1.0  0.73044  0.30554  0.8858800000000001  1.0000
  H   H56       1.0  0.8006800000000001  0.2954800000000001  0.016100000000000003  1.0000
  H   H57       1.0  0.34288  0.31187  0.99708  1.0000
  H   H58       1.0  0.38222  0.30356  0.12529  1.0000
  H   H59       1.0  0.23044  0.19446  0.11412  1.0000
  H   H60       1.0  0.30068  0.20452  0.98389  1.0000
  H   H61       1.0  0.15712000000000004  0.68813  0.49708  1.0000
  H   H62       1.0  0.11778000000000001  0.6964400000000001  0.62529  1.0000
  H   H63       1.0  0.26956  0.8055400000000001  0.61412  1.0000
  H   H64       1.0  0.19932000000000005  0.79548  0.48389  1.0000
  H   H65       1.0  0.5029200000000001  0.65712  0.81187  1.0000
  H   H66       1.0  0.3747100000000001  0.61778  0.8035600000000002  1.0000
  H   H67       1.0  0.38588  0.7695600000000001  0.69446  1.0000
  H   H68       1.0  0.5161  0.6993200000000002  0.70452  1.0000
  H   H69       1.0  0.0029200000000000007  0.8428800000000002  0.18813  1.0000
  H   H70       1.0  0.8747100000000002  0.88221  0.19644  1.0000
  H   H71       1.0  0.8858800000000001  0.73044  0.30554  1.0000
  H   H72       1.0  0.016100000000000003  0.8006800000000001  0.2954800000000001  1.0000
  H   H73       1.0  0.99708  0.34288  0.31187  1.0000
  H   H74       1.0  0.12529  0.38222  0.30356  1.0000
  H   H75       1.0  0.11412  0.23044  0.19446  1.0000
  H   H76       1.0  0.98389  0.30068  0.20452  1.0000
  H   H77       1.0  0.49708  0.15712000000000004  0.68813  1.0000
  H   H78       1.0  0.62529  0.11778000000000001  0.6964400000000001  1.0000
  H   H79       1.0  0.61412  0.26956  0.8055400000000001  1.0000
  H   H80       1.0  0.48389  0.19932000000000005  0.79548  1.0000
  H   H81       1.0  0.81187  0.5029200000000001  0.65712  1.0000
  H   H82       1.0  0.8035600000000002  0.3747100000000001  0.61778  1.0000
  H   H83       1.0  0.69446  0.38588  0.7695600000000001  1.0000
  H   H84       1.0  0.70452  0.5161  0.6993200000000002  1.0000
  H   H85       1.0  0.18813  0.0029200000000000007  0.8428800000000002  1.0000
  H   H86       1.0  0.19644  0.8747100000000002  0.88221  1.0000
  H   H87       1.0  0.30554  0.88587  0.73044  1.0000
  H   H88       1.0  0.2954800000000001  0.016100000000000003  0.8006800000000001  1.0000
  H   H89       1.0  0.31187  0.99708  0.34288  1.0000
  H   H90       1.0  0.30356  0.12529  0.38222  1.0000
  H   H91       1.0  0.19446  0.11412  0.23044  1.0000
  H   H92       1.0  0.20452  0.98389  0.30068  1.0000
  H   H93       1.0  0.68813  0.49708  0.15712000000000004  1.0000
  H   H94       1.0  0.6964400000000001  0.62529  0.11778000000000001  1.0000
  H   H95       1.0  0.8055400000000001  0.61412  0.26956  1.0000
  H   H96       1.0  0.79548  0.48389  0.19932000000000005  1.0000
  C   C1        1.0  0.31688000000000005  0.20743  0.53993  1.0000
  C   C2        1.0  0.36632  0.23424000000000003  0.5900200000000001  1.0000
  C   C3        1.0  0.27675  0.30988000000000004  0.58677  1.0000
  C   C4        1.0  0.27493000000000006  0.26886000000000004  0.52335  1.0000
  C   C5        1.0  0.27904  0.15087  0.57166  1.0000
  C   C6        1.0  0.28894000000000003  0.38263  0.5738300000000001  1.0000
  C   C7        1.0  0.43016  0.26358  0.56098  1.0000
  C   C8        1.0  0.20633  0.25378  0.49549  1.0000
  C   C9        1.0  0.18312000000000003  0.7925600000000003  0.03993  1.0000
  C   C10       1.0  0.13368  0.76575  0.09003  1.0000
  C   C11       1.0  0.22325  0.69011  0.08677  1.0000
  C   C12       1.0  0.22507  0.7311400000000001  0.02335  1.0000
  C   C13       1.0  0.22096  0.8491300000000002  0.07166  1.0000
  C   C14       1.0  0.21106000000000003  0.61737  0.07384  1.0000
  C   C15       1.0  0.06984000000000001  0.7364200000000001  0.06098  1.0000
  C   C16       1.0  0.29366  0.7462200000000002  0.99549  1.0000
  C   C17       1.0  0.6831200000000001  0.7074300000000001  0.96006  1.0000
  C   C18       1.0  0.63368  0.73424  0.9099700000000001  1.0000
  C   C19       1.0  0.72325  0.80988  0.91323  1.0000
  C   C20       1.0  0.7250700000000001  0.76886  0.97665  1.0000
  C   C21       1.0  0.72096  0.65087  0.92834  1.0000
  C   C22       1.0  0.71106  0.88263  0.92616  1.0000
  C   C23       1.0  0.56984  0.76358  0.93901  1.0000
  C   C24       1.0  0.7936600000000001  0.75377  0.00451  1.0000
  C   C25       1.0  0.8168800000000002  0.29257  0.46007000000000003  1.0000
  C   C26       1.0  0.8663200000000001  0.26576  0.40997  1.0000
  C   C27       1.0  0.7767400000000001  0.19011000000000003  0.41323  1.0000
  C   C28       1.0  0.7749200000000002  0.23114  0.47665  1.0000
  C   C29       1.0  0.7790400000000001  0.34913  0.42834000000000005  1.0000
  C   C30       1.0  0.78894  0.11737000000000003  0.42616000000000004  1.0000
  C   C31       1.0  0.9301600000000001  0.23642  0.4390200000000001  1.0000
  C   C32       1.0  0.70633  0.24622  0.50451  1.0000
  C   C33       1.0  0.53993  0.31688000000000005  0.20743  1.0000
  C   C34       1.0  0.5900200000000001  0.36632  0.23424000000000003  1.0000
  C   C35       1.0  0.58677  0.27675  0.30988000000000004  1.0000
  C   C36       1.0  0.52335  0.27493000000000006  0.26886000000000004  1.0000
  C   C37       1.0  0.57166  0.27904  0.15087  1.0000
  C   C38       1.0  0.5738300000000001  0.28894000000000003  0.38263  1.0000
  C   C39       1.0  0.56098  0.43016  0.26358  1.0000
  C   C40       1.0  0.49549  0.20633  0.25378  1.0000
  C   C41       1.0  0.03993  0.18312000000000003  0.7925600000000003  1.0000
  C   C42       1.0  0.09003  0.13368  0.76575  1.0000
  C   C43       1.0  0.08677  0.22325  0.69011  1.0000
  C   C44       1.0  0.02335  0.22507  0.7311400000000001  1.0000
  C   C45       1.0  0.07166  0.22096  0.8491300000000002  1.0000
  C   C46       1.0  0.07384  0.21106000000000003  0.61737  1.0000
  C   C47       1.0  0.06098  0.06984000000000001  0.7364200000000001  1.0000
  C   C48       1.0  0.99549  0.29366  0.7462200000000002  1.0000
  C   C49       1.0  0.96006  0.6831200000000001  0.7074300000000001  1.0000
  C   C50       1.0  0.9099700000000001  0.63368  0.73424  1.0000
  C   C51       1.0  0.91323  0.72325  0.80988  1.0000
  C   C52       1.0  0.97665  0.7250700000000001  0.76886  1.0000
  C   C53       1.0  0.92834  0.72096  0.65087  1.0000
  C   C54       1.0  0.92616  0.71106  0.88263  1.0000
  C   C55       1.0  0.93902  0.56984  0.76358  1.0000
  C   C56       1.0  0.00451  0.7936600000000001  0.75377  1.0000
  C   C57       1.0  0.46007000000000003  0.8168800000000002  0.29257  1.0000
  C   C58       1.0  0.40997  0.8663200000000001  0.26576  1.0000
  C   C59       1.0  0.41323  0.7767400000000001  0.19011000000000003  1.0000
  C   C60       1.0  0.47665  0.7749200000000002  0.23114  1.0000
  C   C61       1.0  0.42834000000000005  0.7790400000000001  0.34913  1.0000
  C   C62       1.0  0.42616000000000004  0.78894  0.11737000000000003  1.0000
  C   C63       1.0  0.4390200000000001  0.9301600000000001  0.23642  1.0000
  C   C64       1.0  0.50451  0.70633  0.24622  1.0000
  C   C65       1.0  0.20743  0.53993  0.31688000000000005  1.0000
  C   C66       1.0  0.23424000000000003  0.5900200000000001  0.36632  1.0000
  C   C67       1.0  0.30988000000000004  0.58677  0.27675  1.0000
  C   C68       1.0  0.26886000000000004  0.52335  0.27493000000000006  1.0000
  C   C69       1.0  0.15087  0.57166  0.27904  1.0000
  C   C70       1.0  0.38263  0.5738300000000001  0.28894000000000003  1.0000
  C   C71       1.0  0.26358  0.56098  0.43016  1.0000
  C   C72       1.0  0.25378  0.49549  0.20633  1.0000
  C   C73       1.0  0.7925600000000003  0.03993  0.18312000000000003  1.0000
  C   C74       1.0  0.76575  0.09003  0.13368  1.0000
  C   C75       1.0  0.69011  0.08677  0.22325  1.0000
  C   C76       1.0  0.7311400000000001  0.02335  0.22507  1.0000
  C   C77       1.0  0.8491300000000002  0.07166  0.22096  1.0000
  C   C78       1.0  0.61737  0.07384  0.21106000000000003  1.0000
  C   C79       1.0  0.7364200000000001  0.06098  0.06984000000000001  1.0000
  C   C80       1.0  0.7462200000000002  0.99549  0.29366  1.0000
  C   C81       1.0  0.7074300000000001  0.96006  0.6831200000000001  1.0000
  C   C82       1.0  0.73424  0.9099700000000001  0.63368  1.0000
  C   C83       1.0  0.80988  0.91323  0.72325  1.0000
  C   C84       1.0  0.76886  0.97665  0.7250700000000001  1.0000
  C   C85       1.0  0.65087  0.92834  0.72096  1.0000
  C   C86       1.0  0.88263  0.92616  0.71106  1.0000
  C   C87       1.0  0.76358  0.93901  0.56984  1.0000
  C   C88       1.0  0.75377  0.00451  0.7936600000000001  1.0000
  C   C89       1.0  0.29257  0.46007000000000003  0.8168800000000002  1.0000
  C   C90       1.0  0.26576  0.40997  0.8663200000000001  1.0000
  C   C91       1.0  0.19011000000000003  0.41323  0.7767400000000001  1.0000
  C   C92       1.0  0.23114  0.47665  0.7749200000000002  1.0000
  C   C93       1.0  0.34913  0.42834000000000005  0.7790400000000001  1.0000
  C   C94       1.0  0.11737000000000003  0.42616000000000004  0.78894  1.0000
  C   C95       1.0  0.23642  0.4390200000000001  0.9301600000000001  1.0000
  C   C96       1.0  0.24622  0.50451  0.70633  1.0000
  C   C97       1.0  0.6831200000000001  0.7925600000000003  0.46007000000000003  1.0000
  C   C98       1.0  0.63368  0.76575  0.40997  1.0000
  C   C99       1.0  0.72325  0.69011  0.41323  1.0000
  C   C100      1.0  0.7250700000000001  0.7311400000000001  0.47665  1.0000
  C   C101      1.0  0.72096  0.8491300000000002  0.42834000000000005  1.0000
  C   C102      1.0  0.71106  0.61737  0.42616000000000004  1.0000
  C   C103      1.0  0.56984  0.7364200000000001  0.4390200000000001  1.0000
  C   C104      1.0  0.7936600000000001  0.7462200000000002  0.50451  1.0000
  C   C105      1.0  0.8168800000000002  0.20743  0.96006  1.0000
  C   C106      1.0  0.8663200000000001  0.23424000000000003  0.9099700000000001  1.0000
  C   C107      1.0  0.7767400000000001  0.30988000000000004  0.91323  1.0000
  C   C108      1.0  0.7749200000000002  0.26886000000000004  0.97665  1.0000
  C   C109      1.0  0.7790400000000001  0.15087  0.92834  1.0000
  C   C110      1.0  0.78894  0.38263  0.92616  1.0000
  C   C111      1.0  0.9301600000000001  0.26358  0.93902  1.0000
  C   C112      1.0  0.70633  0.25378  0.00451  1.0000
  C   C113      1.0  0.31688000000000005  0.29257  0.03993  1.0000
  C   C114      1.0  0.36632  0.26576  0.09002000000000002  1.0000
  C   C115      1.0  0.27675  0.19011000000000003  0.08677  1.0000
  C   C116      1.0  0.27493000000000006  0.23114  0.02335  1.0000
  C   C117      1.0  0.27904  0.34913  0.07166  1.0000
  C   C118      1.0  0.28894000000000003  0.11737000000000003  0.07384  1.0000
  C   C119      1.0  0.43016  0.23642  0.06098  1.0000
  C   C120      1.0  0.20633  0.24622  0.99549  1.0000
  C   C121      1.0  0.18312000000000003  0.7074300000000001  0.53993  1.0000
  C   C122      1.0  0.13368  0.73424  0.5900200000000001  1.0000
  C   C123      1.0  0.22325  0.80988  0.58677  1.0000
  C   C124      1.0  0.22507  0.76886  0.52335  1.0000
  C   C125      1.0  0.22096  0.65087  0.57166  1.0000
  C   C126      1.0  0.21106000000000003  0.88263  0.5738300000000001  1.0000
  C   C127      1.0  0.06984000000000001  0.76358  0.56098  1.0000
  C   C128      1.0  0.29366  0.75377  0.49549  1.0000
  C   C129      1.0  0.46007000000000003  0.6831200000000001  0.7925600000000003  1.0000
  C   C130      1.0  0.40997  0.63368  0.76575  1.0000
  C   C131      1.0  0.41323  0.72325  0.69011  1.0000
  C   C132      1.0  0.47665  0.7250700000000001  0.7311400000000001  1.0000
  C   C133      1.0  0.42834000000000005  0.72096  0.8491300000000002  1.0000
  C   C134      1.0  0.42616000000000004  0.71106  0.61737  1.0000
  C   C135      1.0  0.4390200000000001  0.56984  0.7364200000000001  1.0000
  C   C136      1.0  0.50451  0.7936600000000001  0.7462200000000002  1.0000
  C   C137      1.0  0.96006  0.8168800000000002  0.20743  1.0000
  C   C138      1.0  0.9099700000000001  0.8663200000000001  0.23424000000000003  1.0000
  C   C139      1.0  0.91323  0.7767400000000001  0.30988000000000004  1.0000
  C   C140      1.0  0.97665  0.7749200000000002  0.26886000000000004  1.0000
  C   C141      1.0  0.92834  0.7790400000000001  0.15087  1.0000
  C   C142      1.0  0.92616  0.78894  0.38263  1.0000
  C   C143      1.0  0.93901  0.9301600000000001  0.26358  1.0000
  C   C144      1.0  0.00451  0.70633  0.25378  1.0000
  C   C145      1.0  0.03993  0.31688000000000005  0.29257  1.0000
  C   C146      1.0  0.09002000000000002  0.36632  0.26576  1.0000
  C   C147      1.0  0.08677  0.27675  0.19011000000000003  1.0000
  C   C148      1.0  0.02335  0.27493000000000006  0.23114  1.0000
  C   C149      1.0  0.07166  0.27904  0.34913  1.0000
  C   C150      1.0  0.07384  0.28894000000000003  0.11737000000000003  1.0000
  C   C151      1.0  0.06098  0.43016  0.23642  1.0000
  C   C152      1.0  0.99549  0.20633  0.24622  1.0000
  C   C153      1.0  0.53993  0.18312000000000003  0.7074300000000001  1.0000
  C   C154      1.0  0.5900200000000001  0.13368  0.73424  1.0000
  C   C155      1.0  0.58677  0.22325  0.80988  1.0000
  C   C156      1.0  0.52335  0.22507  0.76886  1.0000
  C   C157      1.0  0.57166  0.22096  0.65087  1.0000
  C   C158      1.0  0.5738300000000001  0.21106000000000003  0.88263  1.0000
  C   C159      1.0  0.56098  0.06984000000000001  0.76358  1.0000
  C   C160      1.0  0.49549  0.29366  0.75377  1.0000
  C   C161      1.0  0.7925600000000003  0.46007000000000003  0.6831200000000001  1.0000
  C   C162      1.0  0.76575  0.40997  0.63368  1.0000
  C   C163      1.0  0.69011  0.41323  0.72325  1.0000
  C   C164      1.0  0.7311400000000001  0.47665  0.7250700000000001  1.0000
  C   C165      1.0  0.8491300000000002  0.42834000000000005  0.72096  1.0000
  C   C166      1.0  0.61737  0.42616000000000004  0.71106  1.0000
  C   C167      1.0  0.7364200000000001  0.4390200000000001  0.56984  1.0000
  C   C168      1.0  0.7462200000000002  0.50451  0.7936600000000001  1.0000
  C   C169      1.0  0.20743  0.96006  0.8168800000000002  1.0000
  C   C170      1.0  0.23424000000000003  0.9099700000000001  0.8663200000000001  1.0000
  C   C171      1.0  0.30988000000000004  0.91323  0.7767400000000001  1.0000
  C   C172      1.0  0.26886000000000004  0.97665  0.7749200000000002  1.0000
  C   C173      1.0  0.15087  0.92834  0.7790400000000001  1.0000
  C   C174      1.0  0.38263  0.92616  0.78894  1.0000
  C   C175      1.0  0.26358  0.93901  0.9301600000000001  1.0000
  C   C176      1.0  0.25378  0.00451  0.70633  1.0000
  C   C177      1.0  0.29257  0.03993  0.31688000000000005  1.0000
  C   C178      1.0  0.26576  0.09002000000000002  0.36632  1.0000
  C   C179      1.0  0.19011000000000003  0.08677  0.27675  1.0000
  C   C180      1.0  0.23114  0.02335  0.27493000000000006  1.0000
  C   C181      1.0  0.34913  0.07166  0.27904  1.0000
  C   C182      1.0  0.11737000000000003  0.07384  0.28894000000000003  1.0000
  C   C183      1.0  0.23642  0.06098  0.43016  1.0000
  C   C184      1.0  0.24622  0.99549  0.20633  1.0000
  C   C185      1.0  0.7074300000000001  0.53993  0.18312000000000003  1.0000
  C   C186      1.0  0.73424  0.5900200000000001  0.13368  1.0000
  C   C187      1.0  0.80988  0.58677  0.22325  1.0000
  C   C188      1.0  0.76886  0.52335  0.22507  1.0000
  C   C189      1.0  0.65087  0.57166  0.22096  1.0000
  C   C190      1.0  0.88263  0.5738300000000001  0.21106000000000003  1.0000
  C   C191      1.0  0.76358  0.56098  0.06984000000000001  1.0000
  C   C192      1.0  0.75377  0.49549  0.29366  1.0000
  O   O1        1.0  0.22594  0.16506  0.60091  1.0000
  O   O2        1.0  0.30560000000000004  0.09448  0.56751  1.0000
  O   O3        1.0  0.24259000000000003  0.40987000000000007  0.54191  1.0000
  O   O4        1.0  0.34006  0.41172  0.59406  1.0000
  O   O5        1.0  0.45129  0.31839000000000006  0.5816  1.0000
  O   O6        1.0  0.4589  0.22679  0.51965  1.0000
  O   O7        1.0  0.20764000000000005  0.21411000000000002  0.44713  1.0000
  O   O8        1.0  0.15643  0.28155  0.51998  1.0000
  O   O9        1.0  0.32862  0.28191000000000005  0.62748  1.0000
  O   O10       1.0  0.27406  0.83494  0.10091000000000001  1.0000
  O   O11       1.0  0.1944  0.9055200000000001  0.06751  1.0000
  O   O12       1.0  0.25741  0.59012  0.04191  1.0000
  O   O13       1.0  0.15994  0.5882800000000001  0.09406  1.0000
  O   O14       1.0  0.04871  0.68161  0.08161  1.0000
  O   O15       1.0  0.0411  0.77321  0.01965  1.0000
  O   O16       1.0  0.29236  0.78589  0.9471300000000001  1.0000
  O   O17       1.0  0.34357000000000004  0.7184400000000001  0.01998  1.0000
  O   O18       1.0  0.17138  0.7180800000000002  0.12748000000000004  1.0000
  O   O19       1.0  0.7740600000000001  0.66506  0.8990900000000001  1.0000
  O   O20       1.0  0.6944000000000001  0.59448  0.93249  1.0000
  O   O21       1.0  0.75741  0.90987  0.9580900000000002  1.0000
  O   O22       1.0  0.65994  0.91172  0.90594  1.0000
  O   O23       1.0  0.5487100000000001  0.8183900000000001  0.9183900000000002  1.0000
  O   O24       1.0  0.5411  0.7267900000000002  0.9803500000000002  1.0000
  O   O25       1.0  0.79236  0.71411  0.05287000000000001  1.0000
  O   O26       1.0  0.84357  0.78155  0.9800200000000002  1.0000
  O   O27       1.0  0.67138  0.7819100000000001  0.87251  1.0000
  O   O28       1.0  0.72594  0.33494  0.39909  1.0000
  O   O29       1.0  0.8056000000000001  0.40552  0.43249  1.0000
  O   O30       1.0  0.74259  0.09012  0.45809000000000005  1.0000
  O   O31       1.0  0.84006  0.08828000000000001  0.40594  1.0000
  O   O32       1.0  0.9512800000000002  0.18161  0.41839000000000004  1.0000
  O   O33       1.0  0.9589000000000001  0.27321  0.48035  1.0000
  O   O34       1.0  0.70764  0.28589000000000003  0.5528700000000001  1.0000
  O   O35       1.0  0.65642  0.21845000000000003  0.48002000000000006  1.0000
  O   O36       1.0  0.8286200000000001  0.21808  0.37252  1.0000
  O   O37       1.0  0.60091  0.22594  0.16506  1.0000
  O   O38       1.0  0.56751  0.30560000000000004  0.09448  1.0000
  O   O39       1.0  0.54191  0.24259000000000003  0.40987000000000007  1.0000
  O   O40       1.0  0.59406  0.34006  0.41172  1.0000
  O   O41       1.0  0.5816  0.45129  0.31839000000000006  1.0000
  O   O42       1.0  0.51965  0.4589  0.22679  1.0000
  O   O43       1.0  0.44713  0.20764000000000005  0.21411000000000002  1.0000
  O   O44       1.0  0.51998  0.15643  0.28155  1.0000
  O   O45       1.0  0.62748  0.32862  0.28191000000000005  1.0000
  O   O46       1.0  0.10091000000000001  0.27406  0.83494  1.0000
  O   O47       1.0  0.06751  0.1944  0.9055200000000001  1.0000
  O   O48       1.0  0.04191  0.25741  0.59012  1.0000
  O   O49       1.0  0.09406  0.15994  0.5882800000000001  1.0000
  O   O50       1.0  0.08161  0.04871  0.68161  1.0000
  O   O51       1.0  0.01965  0.0411  0.77321  1.0000
  O   O52       1.0  0.9471300000000001  0.29236  0.78589  1.0000
  O   O53       1.0  0.01998  0.34357000000000004  0.7184400000000001  1.0000
  O   O54       1.0  0.12748000000000004  0.17138  0.7180800000000002  1.0000
  O   O55       1.0  0.8990900000000001  0.7740600000000001  0.66506  1.0000
  O   O56       1.0  0.93249  0.6944000000000001  0.59448  1.0000
  O   O57       1.0  0.9580900000000002  0.75741  0.90987  1.0000
  O   O58       1.0  0.90594  0.65994  0.91172  1.0000
  O   O59       1.0  0.9183900000000002  0.5487100000000001  0.8183900000000001  1.0000
  O   O60       1.0  0.9803500000000002  0.5411  0.7267900000000002  1.0000
  O   O61       1.0  0.05287000000000001  0.79236  0.71411  1.0000
  O   O62       1.0  0.9800200000000002  0.84357  0.78155  1.0000
  O   O63       1.0  0.87251  0.67138  0.7819100000000001  1.0000
  O   O64       1.0  0.39909  0.72594  0.33494  1.0000
  O   O65       1.0  0.43249  0.8056000000000001  0.40552  1.0000
  O   O66       1.0  0.45809000000000005  0.74259  0.09012  1.0000
  O   O67       1.0  0.40594  0.84006  0.08828000000000001  1.0000
  O   O68       1.0  0.41839000000000004  0.9512800000000002  0.18161  1.0000
  O   O69       1.0  0.48035  0.9589000000000001  0.27321  1.0000
  O   O70       1.0  0.5528700000000001  0.70764  0.28589000000000003  1.0000
  O   O71       1.0  0.48002000000000006  0.65642  0.21845000000000003  1.0000
  O   O72       1.0  0.37252  0.8286200000000001  0.21808  1.0000
  O   O73       1.0  0.16506  0.60091  0.22594  1.0000
  O   O74       1.0  0.09448  0.56751  0.30560000000000004  1.0000
  O   O75       1.0  0.40987000000000007  0.54191  0.24259000000000003  1.0000
  O   O76       1.0  0.41172  0.59406  0.34006  1.0000
  O   O77       1.0  0.31839000000000006  0.5816  0.45129  1.0000
  O   O78       1.0  0.22679  0.51965  0.4589  1.0000
  O   O79       1.0  0.21411000000000002  0.44713  0.20764000000000005  1.0000
  O   O80       1.0  0.28155  0.51998  0.15643  1.0000
  O   O81       1.0  0.28191000000000005  0.62748  0.32862  1.0000
  O   O82       1.0  0.83494  0.10091000000000001  0.27406  1.0000
  O   O83       1.0  0.9055200000000001  0.06751  0.1944  1.0000
  O   O84       1.0  0.59012  0.04191  0.25741  1.0000
  O   O85       1.0  0.5882800000000001  0.09406  0.15994  1.0000
  O   O86       1.0  0.68161  0.08161  0.04871  1.0000
  O   O87       1.0  0.77321  0.01965  0.0411  1.0000
  O   O88       1.0  0.78589  0.9471300000000001  0.29236  1.0000
  O   O89       1.0  0.7184400000000001  0.01998  0.34357000000000004  1.0000
  O   O90       1.0  0.7180800000000002  0.12748000000000004  0.17138  1.0000
  O   O91       1.0  0.66506  0.8990900000000001  0.7740600000000001  1.0000
  O   O92       1.0  0.59448  0.93249  0.6944000000000001  1.0000
  O   O93       1.0  0.90987  0.9580900000000002  0.75741  1.0000
  O   O94       1.0  0.91172  0.90594  0.65994  1.0000
  O   O95       1.0  0.8183900000000001  0.9183900000000002  0.5487100000000001  1.0000
  O   O96       1.0  0.7267900000000002  0.9803500000000002  0.5411  1.0000
  O   O97       1.0  0.71411  0.05287000000000001  0.79236  1.0000
  O   O98       1.0  0.78155  0.9800200000000002  0.84357  1.0000
  O   O99       1.0  0.7819100000000001  0.87251  0.67138  1.0000
  O   O100      1.0  0.33494  0.39909  0.72594  1.0000
  O   O101      1.0  0.40552  0.43249  0.8056000000000001  1.0000
  O   O102      1.0  0.09012  0.45809000000000005  0.74259  1.0000
  O   O103      1.0  0.08828000000000001  0.40594  0.84006  1.0000
  O   O104      1.0  0.18161  0.41839000000000004  0.9512800000000002  1.0000
  O   O105      1.0  0.27321  0.48035  0.9589000000000001  1.0000
  O   O106      1.0  0.28589000000000003  0.5528700000000001  0.70764  1.0000
  O   O107      1.0  0.21845000000000003  0.48002000000000006  0.65642  1.0000
  O   O108      1.0  0.21808  0.37252  0.8286200000000001  1.0000
  O   O109      1.0  0.7740600000000001  0.83494  0.39909  1.0000
  O   O110      1.0  0.6944000000000001  0.9055200000000001  0.43249  1.0000
  O   O111      1.0  0.75741  0.59012  0.45809000000000005  1.0000
  O   O112      1.0  0.65994  0.5882800000000001  0.40594  1.0000
  O   O113      1.0  0.5487100000000001  0.68161  0.41839000000000004  1.0000
  O   O114      1.0  0.5411  0.77321  0.48035  1.0000
  O   O115      1.0  0.79236  0.78589  0.5528700000000001  1.0000
  O   O116      1.0  0.84357  0.7184400000000001  0.48002000000000006  1.0000
  O   O117      1.0  0.67138  0.7180800000000002  0.37252  1.0000
  O   O118      1.0  0.72594  0.16506  0.8990900000000001  1.0000
  O   O119      1.0  0.8056000000000001  0.09448  0.93249  1.0000
  O   O120      1.0  0.74259  0.40987000000000007  0.9580900000000002  1.0000
  O   O121      1.0  0.84006  0.41172  0.90594  1.0000
  O   O122      1.0  0.9512800000000002  0.31839000000000006  0.9183900000000002  1.0000
  O   O123      1.0  0.9589000000000001  0.22679  0.9803500000000002  1.0000
  O   O124      1.0  0.70764  0.21411000000000002  0.05287000000000001  1.0000
  O   O125      1.0  0.65642  0.28155  0.9800200000000002  1.0000
  O   O126      1.0  0.8286200000000001  0.28191000000000005  0.87251  1.0000
  O   O127      1.0  0.22594  0.33494  0.10091000000000001  1.0000
  O   O128      1.0  0.30560000000000004  0.40552  0.06751  1.0000
  O   O129      1.0  0.24259000000000003  0.09012  0.04191  1.0000
  O   O130      1.0  0.34006  0.08828000000000001  0.09406  1.0000
  O   O131      1.0  0.45129  0.18161  0.08161  1.0000
  O   O132      1.0  0.4589  0.27321  0.01965  1.0000
  O   O133      1.0  0.20764000000000005  0.28589000000000003  0.9471300000000001  1.0000
  O   O134      1.0  0.15643  0.21845000000000003  0.01998  1.0000
  O   O135      1.0  0.32862  0.21808  0.12748000000000004  1.0000
  O   O136      1.0  0.27406  0.66506  0.60091  1.0000
  O   O137      1.0  0.1944  0.59448  0.56751  1.0000
  O   O138      1.0  0.25741  0.90987  0.54191  1.0000
  O   O139      1.0  0.15994  0.91172  0.59406  1.0000
  O   O140      1.0  0.04871  0.8183900000000001  0.5816  1.0000
  O   O141      1.0  0.0411  0.7267900000000002  0.51965  1.0000
  O   O142      1.0  0.29236  0.71411  0.44713  1.0000
  O   O143      1.0  0.34357000000000004  0.78155  0.51998  1.0000
  O   O144      1.0  0.17138  0.7819100000000001  0.62748  1.0000
  O   O145      1.0  0.39909  0.7740600000000001  0.83494  1.0000
  O   O146      1.0  0.43249  0.6944000000000001  0.9055200000000001  1.0000
  O   O147      1.0  0.45809000000000005  0.75741  0.59012  1.0000
  O   O148      1.0  0.40594  0.65994  0.5882800000000001  1.0000
  O   O149      1.0  0.41839000000000004  0.5487100000000001  0.68161  1.0000
  O   O150      1.0  0.48035  0.5411  0.77321  1.0000
  O   O151      1.0  0.5528700000000001  0.79236  0.78589  1.0000
  O   O152      1.0  0.48002000000000006  0.84357  0.7184400000000001  1.0000
  O   O153      1.0  0.37252  0.67138  0.7180800000000002  1.0000
  O   O154      1.0  0.8990900000000001  0.72594  0.16506  1.0000
  O   O155      1.0  0.93249  0.8056000000000001  0.09448  1.0000
  O   O156      1.0  0.9580900000000002  0.74259  0.40987000000000007  1.0000
  O   O157      1.0  0.90594  0.84006  0.41172  1.0000
  O   O158      1.0  0.9183900000000002  0.9512800000000002  0.31839000000000006  1.0000
  O   O159      1.0  0.9803500000000002  0.9589000000000001  0.22679  1.0000
  O   O160      1.0  0.05287000000000001  0.70764  0.21411000000000002  1.0000
  O   O161      1.0  0.9800200000000002  0.65642  0.28155  1.0000
  O   O162      1.0  0.87251  0.8286200000000001  0.28191000000000005  1.0000
  O   O163      1.0  0.10091000000000001  0.22594  0.33494  1.0000
  O   O164      1.0  0.06751  0.30560000000000004  0.40552  1.0000
  O   O165      1.0  0.04191  0.24259000000000003  0.09012  1.0000
  O   O166      1.0  0.09406  0.34006  0.08828000000000001  1.0000
  O   O167      1.0  0.08161  0.45129  0.18161  1.0000
  O   O168      1.0  0.01965  0.4589  0.27321  1.0000
  O   O169      1.0  0.9471300000000001  0.20764000000000005  0.28589000000000003  1.0000
  O   O170      1.0  0.01998  0.15643  0.21845000000000003  1.0000
  O   O171      1.0  0.12748000000000004  0.32862  0.21808  1.0000
  O   O172      1.0  0.60091  0.27406  0.66506  1.0000
  O   O173      1.0  0.56751  0.1944  0.59448  1.0000
  O   O174      1.0  0.54191  0.25741  0.90987  1.0000
  O   O175      1.0  0.59406  0.15994  0.91172  1.0000
  O   O176      1.0  0.5816  0.04871  0.8183900000000001  1.0000
  O   O177      1.0  0.51965  0.0411  0.7267900000000002  1.0000
  O   O178      1.0  0.44713  0.29236  0.71411  1.0000
  O   O179      1.0  0.51998  0.34357000000000004  0.78155  1.0000
  O   O180      1.0  0.62748  0.17138  0.7819100000000001  1.0000
  O   O181      1.0  0.83494  0.39909  0.7740600000000001  1.0000
  O   O182      1.0  0.9055200000000001  0.43249  0.6944000000000001  1.0000
  O   O183      1.0  0.59012  0.45809000000000005  0.75741  1.0000
  O   O184      1.0  0.5882800000000001  0.40594  0.65994  1.0000
  O   O185      1.0  0.68161  0.41839000000000004  0.5487100000000001  1.0000
  O   O186      1.0  0.77321  0.48035  0.5411  1.0000
  O   O187      1.0  0.78589  0.5528700000000001  0.79236  1.0000
  O   O188      1.0  0.7184400000000001  0.48002000000000006  0.84357  1.0000
  O   O189      1.0  0.7180800000000002  0.37252  0.67138  1.0000
  O   O190      1.0  0.16506  0.8990900000000001  0.72594  1.0000
  O   O191      1.0  0.09448  0.93249  0.8056000000000001  1.0000
  O   O192      1.0  0.40987000000000007  0.9580900000000002  0.74259  1.0000
  O   O193      1.0  0.41172  0.90594  0.84006  1.0000
  O   O194      1.0  0.31839000000000006  0.9183900000000002  0.9512800000000002  1.0000
  O   O195      1.0  0.22679  0.9803500000000002  0.9589000000000001  1.0000
  O   O196      1.0  0.21411000000000002  0.05287000000000001  0.70764  1.0000
  O   O197      1.0  0.28155  0.9800200000000002  0.65642  1.0000
  O   O198      1.0  0.28191000000000005  0.87251  0.8286200000000001  1.0000
  O   O199      1.0  0.33494  0.10091000000000001  0.22594  1.0000
  O   O200      1.0  0.40552  0.06751  0.30560000000000004  1.0000
  O   O201      1.0  0.09012  0.04191  0.24259000000000003  1.0000
  O   O202      1.0  0.08828000000000001  0.09406  0.34006  1.0000
  O   O203      1.0  0.18161  0.08161  0.45129  1.0000
  O   O204      1.0  0.27321  0.01965  0.4589  1.0000
  O   O205      1.0  0.28589000000000003  0.9471300000000001  0.20764000000000005  1.0000
  O   O206      1.0  0.21845000000000003  0.01998  0.15643  1.0000
  O   O207      1.0  0.21808  0.12748000000000004  0.32862  1.0000
  O   O208      1.0  0.66506  0.60091  0.27406  1.0000
  O   O209      1.0  0.59448  0.56751  0.1944  1.0000
  O   O210      1.0  0.90987  0.54191  0.25741  1.0000
  O   O211      1.0  0.91172  0.59406  0.15994  1.0000
  O   O212      1.0  0.8183900000000001  0.5816  0.04871  1.0000
  O   O213      1.0  0.7267900000000002  0.51965  0.0411  1.0000
  O   O214      1.0  0.71411  0.44713  0.29236  1.0000
  O   O215      1.0  0.78155  0.51998  0.34357000000000004  1.0000
  O   O216      1.0  0.7819100000000001  0.62748  0.17138  1.0000
