data_image0
_chemical_formula_structural       Ni12H168C276N12O48
_chemical_formula_sum              "Ni12 H168 C276 N12 O48"
_cell_length_a       27.84893
_cell_length_b       27.84893
_cell_length_c       27.84893
_cell_angle_alpha    90.0
_cell_angle_beta     90.0
_cell_angle_gamma    90.0

_space_group_name_H-M_alt    "P 1"
_space_group_IT_number       1

loop_
  _space_group_symop_operation_xyz
  'x, y, z'

loop_
  _atom_site_type_symbol
  _atom_site_label
  _atom_site_symmetry_multiplicity
  _atom_site_fract_x
  _atom_site_fract_y
  _atom_site_fract_z
  _atom_site_occupancy
  Ni  Ni1       1.0  0.5  0.80057  0.99999  1.0000
  Ni  Ni2       1.0  0.5  0.19943  0.0  1.0000
  Ni  Ni3       1.0  0.0  0.5  0.80057  1.0000
  Ni  Ni4       1.0  0.0  0.5  0.19943  1.0000
  Ni  Ni5       1.0  0.80057  0.0  0.50001  1.0000
  Ni  Ni6       1.0  0.19943  0.0  0.5  1.0000
  Ni  Ni7       1.0  0.30056999999999995  1e-05  0.5  1.0000
  Ni  Ni8       1.0  0.69943  0.0  0.49999  1.0000
  Ni  Ni9       1.0  1e-05  0.5  0.69943  1.0000
  Ni  Ni10      1.0  0.0  0.5  0.30056999999999995  1.0000
  Ni  Ni11      1.0  0.5  0.30056999999999995  0.0  1.0000
  Ni  Ni12      1.0  0.5  0.69943  1e-05  1.0000
  H   H1        1.0  0.60782  0.8268799999999998  0.8907  1.0000
  H   H2        1.0  0.67139  0.8273  0.8276999999999999  1.0000
  H   H3        1.0  0.39218  0.17312  0.8907  1.0000
  H   H4        1.0  0.32861  0.1727  0.8276999999999999  1.0000
  H   H5        1.0  0.39218  0.8268799999999998  0.1093  1.0000
  H   H6        1.0  0.32861  0.8273  0.17229999999999995  1.0000
  H   H7        1.0  0.60782  0.17312  0.1093  1.0000
  H   H8        1.0  0.67139  0.1727  0.17229999999999995  1.0000
  H   H9        1.0  0.8907  0.6078299999999999  0.8268799999999998  1.0000
  H   H10       1.0  0.8276999999999999  0.67139  0.8273  1.0000
  H   H11       1.0  0.8907  0.39218  0.17312  1.0000
  H   H12       1.0  0.8276999999999999  0.32861  0.1727  1.0000
  H   H13       1.0  0.1093  0.39218  0.8268799999999998  1.0000
  H   H14       1.0  0.17229999999999995  0.32861  0.8273  1.0000
  H   H15       1.0  0.1093  0.60782  0.17312  1.0000
  H   H16       1.0  0.17229999999999995  0.67139  0.1727  1.0000
  H   H17       1.0  0.82687  0.8907  0.60782  1.0000
  H   H18       1.0  0.8273  0.8276999999999999  0.67139  1.0000
  H   H19       1.0  0.17312  0.8907  0.39218  1.0000
  H   H20       1.0  0.1727  0.8276999999999999  0.32861  1.0000
  H   H21       1.0  0.8268799999999998  0.1093  0.39218  1.0000
  H   H22       1.0  0.8273  0.17229999999999995  0.32861  1.0000
  H   H23       1.0  0.17312  0.1093  0.6078299999999999  1.0000
  H   H24       1.0  0.1727  0.17229999999999995  0.67139  1.0000
  H   H25       1.0  0.32688  0.10782999999999997  0.6093  1.0000
  H   H26       1.0  0.3273  0.17139  0.6723  1.0000
  H   H27       1.0  0.67312  0.8921799999999999  0.6093  1.0000
  H   H28       1.0  0.6726999999999999  0.82861  0.6723  1.0000
  H   H29       1.0  0.32688  0.8921799999999999  0.3907  1.0000
  H   H30       1.0  0.3273  0.82861  0.3277  1.0000
  H   H31       1.0  0.6731299999999999  0.10782  0.3907  1.0000
  H   H32       1.0  0.6726999999999999  0.17139  0.3277  1.0000
  H   H33       1.0  0.10782  0.3907  0.6731299999999999  1.0000
  H   H34       1.0  0.17139  0.3277  0.6726999999999999  1.0000
  H   H35       1.0  0.8921799999999999  0.3907  0.32688  1.0000
  H   H36       1.0  0.82861  0.3277  0.3273  1.0000
  H   H37       1.0  0.8921799999999999  0.6093  0.67312  1.0000
  H   H38       1.0  0.82861  0.6723  0.6726999999999999  1.0000
  H   H39       1.0  0.10782  0.6093  0.32688  1.0000
  H   H40       1.0  0.17139  0.6723  0.3273  1.0000
  H   H41       1.0  0.3907  0.32688  0.8921799999999999  1.0000
  H   H42       1.0  0.3277  0.3273  0.82861  1.0000
  H   H43       1.0  0.3907  0.6731299999999999  0.10782  1.0000
  H   H44       1.0  0.3277  0.6726999999999999  0.17139  1.0000
  H   H45       1.0  0.6093  0.32688  0.10782  1.0000
  H   H46       1.0  0.6723  0.3273  0.17139  1.0000
  H   H47       1.0  0.6093  0.67312  0.8921799999999999  1.0000
  H   H48       1.0  0.6723  0.6726999999999999  0.82861  1.0000
  H   H49       1.0  0.39218  0.17312  0.1093  1.0000
  H   H50       1.0  0.32861  0.1727  0.17229999999999995  1.0000
  H   H51       1.0  0.60782  0.8268799999999998  0.1093  1.0000
  H   H52       1.0  0.67139  0.8273  0.17229999999999995  1.0000
  H   H53       1.0  0.60782  0.17313  0.8907  1.0000
  H   H54       1.0  0.67139  0.1727  0.8276999999999999  1.0000
  H   H55       1.0  0.39218  0.8268799999999998  0.8907  1.0000
  H   H56       1.0  0.32861  0.8273  0.8276999999999999  1.0000
  H   H57       1.0  0.1093  0.39218  0.17312  1.0000
  H   H58       1.0  0.17229999999999995  0.32861  0.1727  1.0000
  H   H59       1.0  0.1093  0.6078299999999999  0.8268799999999998  1.0000
  H   H60       1.0  0.17229999999999995  0.67139  0.8273  1.0000
  H   H61       1.0  0.8907  0.6078299999999999  0.17312  1.0000
  H   H62       1.0  0.8276999999999999  0.67139  0.1727  1.0000
  H   H63       1.0  0.8907  0.39218  0.8268799999999998  1.0000
  H   H64       1.0  0.8276999999999999  0.32861  0.8273  1.0000
  H   H65       1.0  0.17312  0.1093  0.39218  1.0000
  H   H66       1.0  0.1727  0.17229999999999995  0.32861  1.0000
  H   H67       1.0  0.82687  0.1093  0.60782  1.0000
  H   H68       1.0  0.8273  0.17229999999999995  0.67139  1.0000
  H   H69       1.0  0.17312  0.8907  0.60782  1.0000
  H   H70       1.0  0.1727  0.8276999999999999  0.67139  1.0000
  H   H71       1.0  0.8268799999999998  0.8907  0.39218  1.0000
  H   H72       1.0  0.8273  0.8276999999999999  0.32861  1.0000
  H   H73       1.0  0.6731299999999999  0.8921799999999999  0.3907  1.0000
  H   H74       1.0  0.6726999999999999  0.82861  0.3277  1.0000
  H   H75       1.0  0.32688  0.10782  0.3907  1.0000
  H   H76       1.0  0.3273  0.17139  0.3277  1.0000
  H   H77       1.0  0.67312  0.10782999999999997  0.6093  1.0000
  H   H78       1.0  0.6726999999999999  0.17139  0.6723  1.0000
  H   H79       1.0  0.32688  0.8921799999999999  0.6093  1.0000
  H   H80       1.0  0.3273  0.82861  0.6723  1.0000
  H   H81       1.0  0.8921799999999999  0.6093  0.32688  1.0000
  H   H82       1.0  0.82861  0.6723  0.3273  1.0000
  H   H83       1.0  0.10782  0.6093  0.6731299999999999  1.0000
  H   H84       1.0  0.17139  0.6723  0.6726999999999999  1.0000
  H   H85       1.0  0.10782  0.3907  0.32688  1.0000
  H   H86       1.0  0.17139  0.3277  0.3273  1.0000
  H   H87       1.0  0.8921799999999999  0.3907  0.67312  1.0000
  H   H88       1.0  0.82861  0.3277  0.6726999999999999  1.0000
  H   H89       1.0  0.6093  0.6731299999999999  0.10782  1.0000
  H   H90       1.0  0.6723  0.6726999999999999  0.17139  1.0000
  H   H91       1.0  0.6093  0.32688  0.8921799999999999  1.0000
  H   H92       1.0  0.6723  0.3273  0.82861  1.0000
  H   H93       1.0  0.3907  0.67312  0.8921799999999999  1.0000
  H   H94       1.0  0.3277  0.6726999999999999  0.82861  1.0000
  H   H95       1.0  0.3907  0.32688  0.10782  1.0000
  H   H96       1.0  0.3277  0.3273  0.17139  1.0000
  H   H97       1.0  0.75  0.68698  0.81302  1.0000
  H   H98       1.0  0.25  0.31302  0.81302  1.0000
  H   H99       1.0  0.25  0.68698  0.18698  1.0000
  H   H100      1.0  0.75  0.31302  0.18698  1.0000
  H   H101      1.0  0.81302  0.75  0.68698  1.0000
  H   H102      1.0  0.81302  0.25  0.31302  1.0000
  H   H103      1.0  0.18698  0.25  0.68698  1.0000
  H   H104      1.0  0.18698  0.75  0.31302  1.0000
  H   H105      1.0  0.68698  0.81302  0.75  1.0000
  H   H106      1.0  0.31302  0.81302  0.25  1.0000
  H   H107      1.0  0.68698  0.18698  0.25  1.0000
  H   H108      1.0  0.31302  0.18698  0.75  1.0000
  H   H109      1.0  0.25  0.31302  0.18698  1.0000
  H   H110      1.0  0.75  0.68698  0.18698  1.0000
  H   H111      1.0  0.75  0.31302  0.81302  1.0000
  H   H112      1.0  0.25  0.68698  0.81302  1.0000
  H   H113      1.0  0.18698  0.25  0.31302  1.0000
  H   H114      1.0  0.18698  0.75  0.68698  1.0000
  H   H115      1.0  0.81302  0.75  0.31302  1.0000
  H   H116      1.0  0.81302  0.25  0.68698  1.0000
  H   H117      1.0  0.31302  0.18698  0.25  1.0000
  H   H118      1.0  0.68698  0.18698  0.75  1.0000
  H   H119      1.0  0.31302  0.81302  0.75  1.0000
  H   H120      1.0  0.68698  0.81302  0.25  1.0000
  H   H121      1.0  0.5  0.96407  0.9222  1.0000
  H   H122      1.0  0.5  0.87501  0.92575  1.0000
  H   H123      1.0  0.5  0.03593  0.9222  1.0000
  H   H124      1.0  0.5  0.12499  0.92575  1.0000
  H   H125      1.0  0.5  0.96407  0.07781  1.0000
  H   H126      1.0  0.5  0.87501  0.07425  1.0000
  H   H127      1.0  0.5  0.03593  0.0778  1.0000
  H   H128      1.0  0.5  0.12499  0.07425  1.0000
  H   H129      1.0  0.9222  0.5  0.96407  1.0000
  H   H130      1.0  0.92575  0.5  0.87501  1.0000
  H   H131      1.0  0.9222  0.5  0.03593  1.0000
  H   H132      1.0  0.92575  0.5  0.12499  1.0000
  H   H133      1.0  0.0778  0.5  0.96407  1.0000
  H   H134      1.0  0.07425  0.5  0.87501  1.0000
  H   H135      1.0  0.0778  0.5  0.03593  1.0000
  H   H136      1.0  0.07425  0.5  0.12499  1.0000
  H   H137      1.0  0.96407  0.9222  0.5  1.0000
  H   H138      1.0  0.87501  0.92575  0.5  1.0000
  H   H139      1.0  0.03593  0.9222  0.5  1.0000
  H   H140      1.0  0.12499  0.92575  0.5  1.0000
  H   H141      1.0  0.96407  0.07781  0.5  1.0000
  H   H142      1.0  0.87501  0.07425  0.5  1.0000
  H   H143      1.0  0.03593  0.07781  0.5  1.0000
  H   H144      1.0  0.12499  0.07425  0.5  1.0000
  H   H145      1.0  0.4640699999999999  0.0  0.57781  1.0000
  H   H146      1.0  0.37501  0.0  0.57425  1.0000
  H   H147      1.0  0.53593  0.0  0.57781  1.0000
  H   H148      1.0  0.62499  0.0  0.57425  1.0000
  H   H149      1.0  0.4640699999999999  0.0  0.4222  1.0000
  H   H150      1.0  0.37501  0.0  0.42575  1.0000
  H   H151      1.0  0.53593  0.0  0.4222  1.0000
  H   H152      1.0  0.62499  0.0  0.42575  1.0000
  H   H153      1.0  0.0  0.4222  0.53593  1.0000
  H   H154      1.0  0.0  0.42575  0.62499  1.0000
  H   H155      1.0  0.0  0.4222  0.4640699999999999  1.0000
  H   H156      1.0  0.0  0.42575  0.37501  1.0000
  H   H157      1.0  0.0  0.57781  0.53593  1.0000
  H   H158      1.0  0.0  0.57425  0.62499  1.0000
  H   H159      1.0  0.0  0.57781  0.4640699999999999  1.0000
  H   H160      1.0  0.0  0.57425  0.37501  1.0000
  H   H161      1.0  0.4222  0.4640699999999999  0.0  1.0000
  H   H162      1.0  0.42575  0.37501  0.0  1.0000
  H   H163      1.0  0.4222  0.53593  0.0  1.0000
  H   H164      1.0  0.42575  0.62499  0.0  1.0000
  H   H165      1.0  0.5778  0.4640699999999999  0.0  1.0000
  H   H166      1.0  0.57425  0.37501  0.0  1.0000
  H   H167      1.0  0.5778  0.53593  0.0  1.0000
  H   H168      1.0  0.57425  0.62499  0.0  1.0000
  C   C1        1.0  0.62218  0.7934199999999999  0.8765799999999999  1.0000
  C   C2        1.0  0.6575  0.79338  0.84121  1.0000
  C   C3        1.0  0.37782  0.20658  0.8765799999999999  1.0000
  C   C4        1.0  0.34249999999999997  0.20662  0.8411999999999998  1.0000
  C   C5        1.0  0.37782  0.7934199999999999  0.12342  1.0000
  C   C6        1.0  0.34249999999999997  0.79338  0.1588  1.0000
  C   C7        1.0  0.62218  0.20658  0.12342  1.0000
  C   C8        1.0  0.6575  0.20662  0.1588  1.0000
  C   C9        1.0  0.8765799999999999  0.62218  0.7934199999999999  1.0000
  C   C10       1.0  0.8411999999999998  0.6575  0.79338  1.0000
  C   C11       1.0  0.8765799999999999  0.37782  0.20658  1.0000
  C   C12       1.0  0.8411999999999998  0.34249999999999997  0.20662  1.0000
  C   C13       1.0  0.12342  0.37782  0.7934199999999999  1.0000
  C   C14       1.0  0.1588  0.34249999999999997  0.79338  1.0000
  C   C15       1.0  0.12342  0.62218  0.20658  1.0000
  C   C16       1.0  0.1588  0.6575  0.20662  1.0000
  C   C17       1.0  0.7934199999999999  0.8765799999999999  0.62218  1.0000
  C   C18       1.0  0.79338  0.84121  0.6575  1.0000
  C   C19       1.0  0.20658  0.8765799999999999  0.37782  1.0000
  C   C20       1.0  0.20662  0.84121  0.34249999999999997  1.0000
  C   C21       1.0  0.7934199999999999  0.12342  0.37782  1.0000
  C   C22       1.0  0.79338  0.1588  0.34249999999999997  1.0000
  C   C23       1.0  0.20658  0.12342  0.62218  1.0000
  C   C24       1.0  0.20662  0.1588  0.6575  1.0000
  C   C25       1.0  0.29342  0.12217999999999997  0.62342  1.0000
  C   C26       1.0  0.29338  0.1575  0.6588  1.0000
  C   C27       1.0  0.70658  0.87782  0.62342  1.0000
  C   C28       1.0  0.70662  0.8425  0.6588  1.0000
  C   C29       1.0  0.29342  0.87782  0.37658  1.0000
  C   C30       1.0  0.29338  0.8425  0.3412  1.0000
  C   C31       1.0  0.70658  0.12217999999999997  0.37658  1.0000
  C   C32       1.0  0.70662  0.1575  0.34121  1.0000
  C   C33       1.0  0.12217999999999997  0.37658  0.70658  1.0000
  C   C34       1.0  0.1575  0.34121  0.70662  1.0000
  C   C35       1.0  0.87782  0.37658  0.29342  1.0000
  C   C36       1.0  0.8425  0.3412  0.29338  1.0000
  C   C37       1.0  0.87782  0.62342  0.70658  1.0000
  C   C38       1.0  0.8425  0.6588  0.70662  1.0000
  C   C39       1.0  0.12217999999999997  0.62342  0.29342  1.0000
  C   C40       1.0  0.1575  0.6588  0.29338  1.0000
  C   C41       1.0  0.37658  0.29342  0.87782  1.0000
  C   C42       1.0  0.3412  0.29338  0.8425  1.0000
  C   C43       1.0  0.37658  0.70658  0.12217999999999997  1.0000
  C   C44       1.0  0.3412  0.70662  0.1575  1.0000
  C   C45       1.0  0.62342  0.29342  0.12217999999999997  1.0000
  C   C46       1.0  0.6588  0.29338  0.1575  1.0000
  C   C47       1.0  0.62342  0.70658  0.87782  1.0000
  C   C48       1.0  0.6588  0.70662  0.8425  1.0000
  C   C49       1.0  0.37782  0.20658  0.12342  1.0000
  C   C50       1.0  0.34249999999999997  0.20662  0.1588  1.0000
  C   C51       1.0  0.62218  0.7934199999999999  0.12342  1.0000
  C   C52       1.0  0.6575  0.79338  0.1588  1.0000
  C   C53       1.0  0.62218  0.20658  0.8765799999999999  1.0000
  C   C54       1.0  0.6575  0.20662  0.8411999999999998  1.0000
  C   C55       1.0  0.37782  0.7934199999999999  0.8765799999999999  1.0000
  C   C56       1.0  0.34249999999999997  0.79338  0.84121  1.0000
  C   C57       1.0  0.12342  0.37782  0.20658  1.0000
  C   C58       1.0  0.1588  0.34249999999999997  0.20662  1.0000
  C   C59       1.0  0.12342  0.62218  0.7934199999999999  1.0000
  C   C60       1.0  0.1588  0.6575  0.79338  1.0000
  C   C61       1.0  0.8765799999999999  0.62218  0.20658  1.0000
  C   C62       1.0  0.8411999999999998  0.6575  0.20662  1.0000
  C   C63       1.0  0.8765799999999999  0.37782  0.7934199999999999  1.0000
  C   C64       1.0  0.8411999999999998  0.34249999999999997  0.79338  1.0000
  C   C65       1.0  0.20658  0.12342  0.37782  1.0000
  C   C66       1.0  0.20662  0.1588  0.34249999999999997  1.0000
  C   C67       1.0  0.7934199999999999  0.12342  0.62218  1.0000
  C   C68       1.0  0.79338  0.1588  0.6575  1.0000
  C   C69       1.0  0.20658  0.8765799999999999  0.62218  1.0000
  C   C70       1.0  0.20662  0.84121  0.6575  1.0000
  C   C71       1.0  0.7934199999999999  0.8765799999999999  0.37782  1.0000
  C   C72       1.0  0.79338  0.84121  0.34249999999999997  1.0000
  C   C73       1.0  0.70658  0.87782  0.37658  1.0000
  C   C74       1.0  0.70662  0.8425  0.34121  1.0000
  C   C75       1.0  0.29342  0.12217999999999997  0.37658  1.0000
  C   C76       1.0  0.29338  0.1575  0.3412  1.0000
  C   C77       1.0  0.70658  0.12217999999999997  0.62342  1.0000
  C   C78       1.0  0.70662  0.1575  0.6588  1.0000
  C   C79       1.0  0.29342  0.87782  0.62342  1.0000
  C   C80       1.0  0.29338  0.8425  0.6588  1.0000
  C   C81       1.0  0.87782  0.62342  0.29342  1.0000
  C   C82       1.0  0.8425  0.6588  0.29338  1.0000
  C   C83       1.0  0.12217999999999997  0.62342  0.70658  1.0000
  C   C84       1.0  0.1575  0.6588  0.70662  1.0000
  C   C85       1.0  0.12217999999999997  0.37658  0.29342  1.0000
  C   C86       1.0  0.1575  0.3412  0.29338  1.0000
  C   C87       1.0  0.87782  0.37658  0.70658  1.0000
  C   C88       1.0  0.8425  0.34121  0.70662  1.0000
  C   C89       1.0  0.62342  0.70658  0.12217999999999997  1.0000
  C   C90       1.0  0.6588  0.70662  0.1575  1.0000
  C   C91       1.0  0.62342  0.29342  0.87782  1.0000
  C   C92       1.0  0.6588  0.29338  0.8425  1.0000
  C   C93       1.0  0.37658  0.70658  0.87782  1.0000
  C   C94       1.0  0.3412  0.70662  0.8425  1.0000
  C   C95       1.0  0.37658  0.29342  0.12217999999999997  1.0000
  C   C96       1.0  0.3412  0.29338  0.1575  1.0000
  C   C97       1.0  0.5  0.97334  0.0  1.0000
  C   C98       1.0  0.5  0.02666  0.0  1.0000
  C   C99       1.0  0.0  0.5  0.97334  1.0000
  C   C100      1.0  0.0  0.5  0.02666  1.0000
  C   C101      1.0  0.97334  0.0  0.5  1.0000
  C   C102      1.0  0.02666  0.0  0.5  1.0000
  C   C103      1.0  0.47334  0.0  0.5  1.0000
  C   C104      1.0  0.52666  0.0  0.5  1.0000
  C   C105      1.0  0.0  0.5  0.52666  1.0000
  C   C106      1.0  0.0  0.5  0.47334  1.0000
  C   C107      1.0  0.5  0.47334  0.0  1.0000
  C   C108      1.0  0.5  0.52666  0.0  1.0000
  C   C109      1.0  0.56678  0.75  0.93322  1.0000
  C   C110      1.0  0.60477  0.75  0.89523  1.0000
  C   C111      1.0  0.7141  0.75  0.7859  1.0000
  C   C112      1.0  0.6765099999999997  0.75  0.82349  1.0000
  C   C113      1.0  0.43322  0.25  0.93322  1.0000
  C   C114      1.0  0.39522999999999997  0.25  0.89523  1.0000
  C   C115      1.0  0.2859  0.25  0.7859  1.0000
  C   C116      1.0  0.32348999999999994  0.25  0.82349  1.0000
  C   C117      1.0  0.43322  0.75  0.06678  1.0000
  C   C118      1.0  0.39522999999999997  0.75  0.10477  1.0000
  C   C119      1.0  0.2859  0.75  0.2141  1.0000
  C   C120      1.0  0.32348999999999994  0.75  0.17651  1.0000
  C   C121      1.0  0.56678  0.25  0.06678  1.0000
  C   C122      1.0  0.60477  0.25  0.10477  1.0000
  C   C123      1.0  0.7141  0.25  0.2141  1.0000
  C   C124      1.0  0.6765099999999997  0.25  0.17651  1.0000
  C   C125      1.0  0.93322  0.56678  0.75  1.0000
  C   C126      1.0  0.89523  0.60477  0.75  1.0000
  C   C127      1.0  0.7859  0.7141  0.75  1.0000
  C   C128      1.0  0.82349  0.6765099999999997  0.75  1.0000
  C   C129      1.0  0.93322  0.43322  0.25  1.0000
  C   C130      1.0  0.89523  0.39522999999999997  0.25  1.0000
  C   C131      1.0  0.7859  0.2859  0.25  1.0000
  C   C132      1.0  0.82349  0.32348999999999994  0.25  1.0000
  C   C133      1.0  0.06678  0.43322  0.75  1.0000
  C   C134      1.0  0.10477  0.39522999999999997  0.75  1.0000
  C   C135      1.0  0.2141  0.2859  0.75  1.0000
  C   C136      1.0  0.17651  0.32348999999999994  0.75  1.0000
  C   C137      1.0  0.06678  0.56678  0.25  1.0000
  C   C138      1.0  0.10477  0.60477  0.25  1.0000
  C   C139      1.0  0.2141  0.7141  0.25  1.0000
  C   C140      1.0  0.17651  0.6765099999999997  0.25  1.0000
  C   C141      1.0  0.75  0.93322  0.56678  1.0000
  C   C142      1.0  0.75  0.89523  0.60477  1.0000
  C   C143      1.0  0.75  0.7859  0.7141  1.0000
  C   C144      1.0  0.75  0.82349  0.6765099999999997  1.0000
  C   C145      1.0  0.25  0.93322  0.43322  1.0000
  C   C146      1.0  0.25  0.89523  0.39522999999999997  1.0000
  C   C147      1.0  0.25  0.7859  0.2859  1.0000
  C   C148      1.0  0.25  0.82349  0.32348999999999994  1.0000
  C   C149      1.0  0.75  0.06678  0.43322  1.0000
  C   C150      1.0  0.75  0.10477  0.39522999999999997  1.0000
  C   C151      1.0  0.75  0.2141  0.2859  1.0000
  C   C152      1.0  0.75  0.17651  0.32348999999999994  1.0000
  C   C153      1.0  0.25  0.06678  0.56678  1.0000
  C   C154      1.0  0.25  0.10477  0.60477  1.0000
  C   C155      1.0  0.25  0.2141  0.7141  1.0000
  C   C156      1.0  0.25  0.17651  0.6765099999999997  1.0000
  C   C157      1.0  0.43322  0.25  0.06678  1.0000
  C   C158      1.0  0.39522999999999997  0.25  0.10477  1.0000
  C   C159      1.0  0.2859  0.25  0.2141  1.0000
  C   C160      1.0  0.32348999999999994  0.25  0.17651  1.0000
  C   C161      1.0  0.56678  0.75  0.06678  1.0000
  C   C162      1.0  0.60477  0.75  0.10477  1.0000
  C   C163      1.0  0.7141  0.75  0.2141  1.0000
  C   C164      1.0  0.6765099999999997  0.75  0.17651  1.0000
  C   C165      1.0  0.56678  0.25  0.93322  1.0000
  C   C166      1.0  0.60477  0.25  0.89523  1.0000
  C   C167      1.0  0.7141  0.25  0.7859  1.0000
  C   C168      1.0  0.6765099999999997  0.25  0.82349  1.0000
  C   C169      1.0  0.43322  0.75  0.93322  1.0000
  C   C170      1.0  0.39522999999999997  0.75  0.89523  1.0000
  C   C171      1.0  0.2859  0.75  0.7859  1.0000
  C   C172      1.0  0.32348999999999994  0.75  0.82349  1.0000
  C   C173      1.0  0.06678  0.43322  0.25  1.0000
  C   C174      1.0  0.10477  0.39522999999999997  0.25  1.0000
  C   C175      1.0  0.2141  0.2859  0.25  1.0000
  C   C176      1.0  0.17651  0.32348999999999994  0.25  1.0000
  C   C177      1.0  0.06678  0.56678  0.75  1.0000
  C   C178      1.0  0.10477  0.60477  0.75  1.0000
  C   C179      1.0  0.2141  0.7141  0.75  1.0000
  C   C180      1.0  0.17651  0.6765099999999997  0.75  1.0000
  C   C181      1.0  0.93322  0.56678  0.25  1.0000
  C   C182      1.0  0.89523  0.60477  0.25  1.0000
  C   C183      1.0  0.7859  0.7141  0.25  1.0000
  C   C184      1.0  0.82349  0.6765099999999997  0.25  1.0000
  C   C185      1.0  0.93322  0.43322  0.75  1.0000
  C   C186      1.0  0.89523  0.39522999999999997  0.75  1.0000
  C   C187      1.0  0.7859  0.2859  0.75  1.0000
  C   C188      1.0  0.82349  0.32348999999999994  0.75  1.0000
  C   C189      1.0  0.25  0.06678  0.43322  1.0000
  C   C190      1.0  0.25  0.10477  0.39522999999999997  1.0000
  C   C191      1.0  0.25  0.2141  0.2859  1.0000
  C   C192      1.0  0.25  0.17651  0.32348999999999994  1.0000
  C   C193      1.0  0.75  0.06678  0.56678  1.0000
  C   C194      1.0  0.75  0.10477  0.60477  1.0000
  C   C195      1.0  0.75  0.2141  0.7141  1.0000
  C   C196      1.0  0.75  0.17651  0.6765099999999997  1.0000
  C   C197      1.0  0.25  0.93322  0.56678  1.0000
  C   C198      1.0  0.25  0.89523  0.60477  1.0000
  C   C199      1.0  0.25  0.7859  0.7141  1.0000
  C   C200      1.0  0.25  0.82349  0.6765099999999997  1.0000
  C   C201      1.0  0.75  0.93322  0.43322  1.0000
  C   C202      1.0  0.75  0.89523  0.39522999999999997  1.0000
  C   C203      1.0  0.75  0.7859  0.2859  1.0000
  C   C204      1.0  0.75  0.82349  0.32348999999999994  1.0000
  C   C205      1.0  0.75  0.7146  0.7853999999999999  1.0000
  C   C206      1.0  0.25  0.2854  0.7853999999999999  1.0000
  C   C207      1.0  0.25  0.7146  0.2146  1.0000
  C   C208      1.0  0.75  0.2854  0.2146  1.0000
  C   C209      1.0  0.7853999999999999  0.75  0.7146  1.0000
  C   C210      1.0  0.7853999999999999  0.25  0.2854  1.0000
  C   C211      1.0  0.2146  0.25  0.7146  1.0000
  C   C212      1.0  0.2146  0.75  0.2854  1.0000
  C   C213      1.0  0.7146  0.7853999999999999  0.75  1.0000
  C   C214      1.0  0.2854  0.7853999999999999  0.25  1.0000
  C   C215      1.0  0.7146  0.2146  0.25  1.0000
  C   C216      1.0  0.2854  0.2146  0.75  1.0000
  C   C217      1.0  0.25  0.2854  0.2146  1.0000
  C   C218      1.0  0.75  0.7146  0.2146  1.0000
  C   C219      1.0  0.75  0.2854  0.7853999999999999  1.0000
  C   C220      1.0  0.25  0.7146  0.7853999999999999  1.0000
  C   C221      1.0  0.2146  0.25  0.2854  1.0000
  C   C222      1.0  0.2146  0.75  0.7146  1.0000
  C   C223      1.0  0.7853999999999999  0.75  0.2854  1.0000
  C   C224      1.0  0.7853999999999999  0.25  0.7146  1.0000
  C   C225      1.0  0.2854  0.2146  0.25  1.0000
  C   C226      1.0  0.7146  0.2146  0.75  1.0000
  C   C227      1.0  0.2854  0.7853999999999999  0.75  1.0000
  C   C228      1.0  0.7146  0.7853999999999999  0.25  1.0000
  C   C229      1.0  0.5  0.9465899999999999  0.95707  1.0000
  C   C230      1.0  0.5  0.89669  0.95831  1.0000
  C   C231      1.0  0.5  0.05341  0.95707  1.0000
  C   C232      1.0  0.5  0.10331  0.95831  1.0000
  C   C233      1.0  0.5  0.9465899999999999  0.04293  1.0000
  C   C234      1.0  0.5  0.89669  0.04169  1.0000
  C   C235      1.0  0.5  0.05341  0.04293  1.0000
  C   C236      1.0  0.5  0.10331  0.04169  1.0000
  C   C237      1.0  0.95707  0.5  0.9465899999999999  1.0000
  C   C238      1.0  0.95831  0.5  0.89669  1.0000
  C   C239      1.0  0.95707  0.5  0.05341  1.0000
  C   C240      1.0  0.95831  0.5  0.10331  1.0000
  C   C241      1.0  0.04293  0.5  0.9465899999999999  1.0000
  C   C242      1.0  0.04169  0.5  0.89669  1.0000
  C   C243      1.0  0.04293  0.5  0.05341  1.0000
  C   C244      1.0  0.04169  0.5  0.10331  1.0000
  C   C245      1.0  0.9465899999999999  0.95707  0.5  1.0000
  C   C246      1.0  0.89669  0.95831  0.5  1.0000
  C   C247      1.0  0.05341  0.95707  0.5  1.0000
  C   C248      1.0  0.10331  0.95831  0.5  1.0000
  C   C249      1.0  0.9465899999999999  0.04293  0.5  1.0000
  C   C250      1.0  0.89669  0.04169  0.5  1.0000
  C   C251      1.0  0.05341  0.04293  0.5  1.0000
  C   C252      1.0  0.10331  0.04169  0.5  1.0000
  C   C253      1.0  0.44659  0.0  0.54293  1.0000
  C   C254      1.0  0.39669  0.0  0.54169  1.0000
  C   C255      1.0  0.55341  0.0  0.54293  1.0000
  C   C256      1.0  0.60331  0.0  0.54169  1.0000
  C   C257      1.0  0.44659  0.0  0.45707  1.0000
  C   C258      1.0  0.39669  0.0  0.45830999999999994  1.0000
  C   C259      1.0  0.55341  0.0  0.45707  1.0000
  C   C260      1.0  0.60331  0.0  0.45830999999999994  1.0000
  C   C261      1.0  0.0  0.45707  0.55341  1.0000
  C   C262      1.0  0.0  0.45830999999999994  0.60331  1.0000
  C   C263      1.0  0.0  0.45707  0.44659  1.0000
  C   C264      1.0  0.0  0.45830999999999994  0.39669  1.0000
  C   C265      1.0  0.0  0.54293  0.55341  1.0000
  C   C266      1.0  0.0  0.54169  0.60331  1.0000
  C   C267      1.0  0.0  0.54293  0.44659  1.0000
  C   C268      1.0  0.0  0.54169  0.39669  1.0000
  C   C269      1.0  0.45707  0.44659  0.0  1.0000
  C   C270      1.0  0.45830999999999994  0.39669  0.0  1.0000
  C   C271      1.0  0.45707  0.55341  0.0  1.0000
  C   C272      1.0  0.45830999999999994  0.60331  0.0  1.0000
  C   C273      1.0  0.54293  0.44659  0.0  1.0000
  C   C274      1.0  0.54169  0.39669  0.0  1.0000
  C   C275      1.0  0.54293  0.55341  0.0  1.0000
  C   C276      1.0  0.54169  0.60331  0.0  1.0000
  N   N1        1.0  0.5  0.87194  0.0  1.0000
  N   N2        1.0  0.5  0.12806  0.0  1.0000
  N   N3        1.0  0.0  0.5  0.87194  1.0000
  N   N4        1.0  0.0  0.5  0.12806  1.0000
  N   N5        1.0  0.87194  0.0  0.5  1.0000
  N   N6        1.0  0.12806  0.0  0.5  1.0000
  N   N7        1.0  0.37194  0.0  0.5  1.0000
  N   N8        1.0  0.62806  0.0  0.5  1.0000
  N   N9        1.0  0.0  0.5  0.62806  1.0000
  N   N10       1.0  0.0  0.5  0.37194  1.0000
  N   N11       1.0  0.5  0.37194  0.0  1.0000
  N   N12       1.0  0.5  0.62806  0.0  1.0000
  O   O1        1.0  0.55208  0.79106  0.94755  1.0000
  O   O2        1.0  0.44791999999999993  0.20894  0.94755  1.0000
  O   O3        1.0  0.44791999999999993  0.79106  0.05245  1.0000
  O   O4        1.0  0.55208  0.20894  0.05245  1.0000
  O   O5        1.0  0.94755  0.55208  0.79106  1.0000
  O   O6        1.0  0.94755  0.44791999999999993  0.20894  1.0000
  O   O7        1.0  0.05245  0.44791999999999993  0.79106  1.0000
  O   O8        1.0  0.05245  0.55208  0.20894  1.0000
  O   O9        1.0  0.79106  0.94755  0.55209  1.0000
  O   O10       1.0  0.20894  0.94755  0.44791999999999993  1.0000
  O   O11       1.0  0.79106  0.05245  0.44791999999999993  1.0000
  O   O12       1.0  0.20894  0.05245  0.55208  1.0000
  O   O13       1.0  0.29106  0.05208  0.55245  1.0000
  O   O14       1.0  0.70894  0.94792  0.55245  1.0000
  O   O15       1.0  0.29106  0.94792  0.44754999999999995  1.0000
  O   O16       1.0  0.70894  0.05208  0.44754999999999995  1.0000
  O   O17       1.0  0.05208  0.44754999999999995  0.70894  1.0000
  O   O18       1.0  0.94792  0.44754999999999995  0.29106  1.0000
  O   O19       1.0  0.94792  0.55245  0.70894  1.0000
  O   O20       1.0  0.05208  0.55245  0.29106  1.0000
  O   O21       1.0  0.44754999999999995  0.29106  0.94792  1.0000
  O   O22       1.0  0.44754999999999995  0.70894  0.05208  1.0000
  O   O23       1.0  0.55245  0.29106  0.05208  1.0000
  O   O24       1.0  0.55245  0.70894  0.94792  1.0000
  O   O25       1.0  0.44791999999999993  0.20894  0.05245  1.0000
  O   O26       1.0  0.55208  0.79106  0.05245  1.0000
  O   O27       1.0  0.55208  0.20894  0.94755  1.0000
  O   O28       1.0  0.44791999999999993  0.79106  0.94755  1.0000
  O   O29       1.0  0.05245  0.44791999999999993  0.20894  1.0000
  O   O30       1.0  0.05245  0.55208  0.79106  1.0000
  O   O31       1.0  0.94755  0.55208  0.20894  1.0000
  O   O32       1.0  0.94755  0.44791999999999993  0.79106  1.0000
  O   O33       1.0  0.20894  0.05245  0.44791999999999993  1.0000
  O   O34       1.0  0.79106  0.05245  0.55209  1.0000
  O   O35       1.0  0.20894  0.94755  0.55208  1.0000
  O   O36       1.0  0.79106  0.94755  0.44791999999999993  1.0000
  O   O37       1.0  0.70894  0.94792  0.44754999999999995  1.0000
  O   O38       1.0  0.29106  0.05208  0.44754999999999995  1.0000
  O   O39       1.0  0.70894  0.05208  0.55245  1.0000
  O   O40       1.0  0.29106  0.94792  0.55245  1.0000
  O   O41       1.0  0.94792  0.55245  0.29106  1.0000
  O   O42       1.0  0.05208  0.55245  0.70894  1.0000
  O   O43       1.0  0.05208  0.44754999999999995  0.29106  1.0000
  O   O44       1.0  0.94792  0.44754999999999995  0.70894  1.0000
  O   O45       1.0  0.55245  0.70894  0.05208  1.0000
  O   O46       1.0  0.55245  0.29106  0.94792  1.0000
  O   O47       1.0  0.44754999999999995  0.70894  0.94792  1.0000
  O   O48       1.0  0.44754999999999995  0.29106  0.05208  1.0000
