data_image0
_chemical_formula_structural       Cd32H152C224N72O96
_chemical_formula_sum              "Cd32 H152 C224 N72 O96"
_cell_length_a       14.56474
_cell_length_b       20.15634
_cell_length_c       38.16081
_cell_angle_alpha    90.0
_cell_angle_beta     90.00914999999999
_cell_angle_gamma    90.0

_space_group_name_H-M_alt    "P 1"
_space_group_IT_number       1

loop_
  _space_group_symop_operation_xyz
  'x, y, z'

loop_
  _atom_site_type_symbol
  _atom_site_label
  _atom_site_symmetry_multiplicity
  _atom_site_fract_x
  _atom_site_fract_y
  _atom_site_fract_z
  _atom_site_occupancy
  Cd  Cd1       1.0  0.49661  0.75916  0.38257  1.0000
  Cd  Cd2       1.0  0.24753  0.8187499999999999  0.75241  1.0000
  Cd  Cd3       1.0  0.58787  0.7080999999999998  0.67543  1.0000
  Cd  Cd4       1.0  0.4136  0.83165  0.6801  1.0000
  Cd  Cd5       1.0  0.99769  0.74015  0.1173  1.0000
  Cd  Cd6       1.0  0.74714  0.68073  0.74763  1.0000
  Cd  Cd7       1.0  0.08778999999999999  0.79132  0.8241299999999999  1.0000
  Cd  Cd8       1.0  0.9125699999999999  0.6689  0.8204499999999999  1.0000
  Cd  Cd9       1.0  0.0033799999999999993  0.75916  0.61742  1.0000
  Cd  Cd10      1.0  0.25246  0.8187499999999999  0.24758  1.0000
  Cd  Cd11      1.0  0.9121299999999998  0.7080999999999998  0.32457  1.0000
  Cd  Cd12      1.0  0.08639  0.83165  0.3199  1.0000
  Cd  Cd13      1.0  0.5023  0.74015  0.88269  1.0000
  Cd  Cd14      1.0  0.7528599999999998  0.68073  0.25237  1.0000
  Cd  Cd15      1.0  0.4122  0.7913099999999998  0.17587  1.0000
  Cd  Cd16      1.0  0.58742  0.6689  0.17955  1.0000
  Cd  Cd17      1.0  0.50338  0.24084  0.61742  1.0000
  Cd  Cd18      1.0  0.75246  0.18125  0.24758  1.0000
  Cd  Cd19      1.0  0.41213  0.2919  0.32457  1.0000
  Cd  Cd20      1.0  0.58639  0.16835  0.3199  1.0000
  Cd  Cd21      1.0  0.0022999999999999995  0.25985  0.88269  1.0000
  Cd  Cd22      1.0  0.25286  0.31926999999999994  0.25237  1.0000
  Cd  Cd23      1.0  0.9122  0.20867999999999998  0.17587  1.0000
  Cd  Cd24      1.0  0.08742  0.3311  0.17955  1.0000
  Cd  Cd25      1.0  0.99661  0.24084  0.38257  1.0000
  Cd  Cd26      1.0  0.7475299999999998  0.18125  0.75241  1.0000
  Cd  Cd27      1.0  0.08787  0.2919  0.67543  1.0000
  Cd  Cd28      1.0  0.9136  0.16835  0.68009  1.0000
  Cd  Cd29      1.0  0.4976899999999999  0.25985  0.1173  1.0000
  Cd  Cd30      1.0  0.24714  0.31926999999999994  0.74763  1.0000
  Cd  Cd31      1.0  0.5877899999999998  0.20869  0.8241299999999999  1.0000
  Cd  Cd32      1.0  0.41257  0.3311  0.8204499999999999  1.0000
  H   H1        1.0  0.6632899999999998  0.8546699999999999  0.79056  1.0000
  H   H2        1.0  0.59438  0.69846  0.56179  1.0000
  H   H3        1.0  0.5826699999999999  0.9478099999999999  0.69422  1.0000
  H   H4        1.0  0.58382  0.05832  0.7239599999999999  1.0000
  H   H5        1.0  0.05538  0.7977099999999999  0.70163  1.0000
  H   H6        1.0  0.4049499999999999  0.8615599999999999  0.56145  1.0000
  H   H7        1.0  0.39739999999999986  0.8564  0.49578999999999995  1.0000
  H   H8        1.0  0.37256  0.47332  0.7123099999999999  1.0000
  H   H9        1.0  0.65325  0.9651499999999998  0.8215  1.0000
  H   H10       1.0  0.3714999999999999  0.68035  0.7831599999999999  1.0000
  H   H11       1.0  0.3874  0.5845  0.68287  1.0000
  H   H12       1.0  0.59081  0.69586  0.49616999999999994  1.0000
  H   H13       1.0  0.36661  0.5686599999999999  0.81277  1.0000
  H   H14       1.0  0.94709  0.66015  0.72459  1.0000
  H   H15       1.0  0.01  0.65066  0.68828  1.0000
  H   H16       1.0  0.3095999999999999  0.8060499999999999  0.60477  1.0000
  H   H17       1.0  0.19832999999999998  0.80138  0.58749  1.0000
  H   H18       1.0  0.6977699999999999  0.7504099999999999  0.6041399999999999  1.0000
  H   H19       1.0  0.80723  0.74231  0.58635  1.0000
  H   H20       1.0  0.16323  0.64529  0.70911  1.0000
  H   H21       1.0  0.09478  0.80232  0.93793  1.0000
  H   H22       1.0  0.08273  0.55217  0.8054499999999999  1.0000
  H   H23       1.0  0.0841  0.44166  0.77575  1.0000
  H   H24       1.0  0.55381  0.70049  0.79846  1.0000
  H   H25       1.0  0.90491  0.63956  0.9386599999999999  1.0000
  H   H26       1.0  0.8984799999999997  0.64458  0.00436  1.0000
  H   H27       1.0  0.87329  0.02707  0.78858  1.0000
  H   H28       1.0  0.15330999999999995  0.53493  0.67818  1.0000
  H   H29       1.0  0.8701699999999998  0.82015  0.71757  1.0000
  H   H30       1.0  0.88811  0.9156599999999999  0.81788  1.0000
  H   H31       1.0  0.09267999999999997  0.80474  0.00361  1.0000
  H   H32       1.0  0.86534  0.93206  0.6880299999999999  1.0000
  H   H33       1.0  0.44779  0.83807  0.77558  1.0000
  H   H34       1.0  0.50951  0.84925  0.81207  1.0000
  H   H35       1.0  0.80869  0.69411  0.89508  1.0000
  H   H36       1.0  0.69789  0.69874  0.9125399999999999  1.0000
  H   H37       1.0  0.19622999999999993  0.7494  0.89565  1.0000
  H   H38       1.0  0.3057  0.75697  0.9136399999999999  1.0000
  H   H39       1.0  0.83671  0.8546699999999999  0.20943999999999996  1.0000
  H   H40       1.0  0.90561  0.69846  0.4382  1.0000
  H   H41       1.0  0.91732  0.9478099999999999  0.30578  1.0000
  H   H42       1.0  0.91617  0.05832  0.27604  1.0000
  H   H43       1.0  0.44461  0.7977099999999999  0.29837  1.0000
  H   H44       1.0  0.09504  0.8615599999999999  0.43853999999999993  1.0000
  H   H45       1.0  0.10259  0.8564  0.5042099999999999  1.0000
  H   H46       1.0  0.12744  0.47332  0.28768  1.0000
  H   H47       1.0  0.84674  0.9651499999999998  0.1785  1.0000
  H   H48       1.0  0.1285  0.68035  0.21684  1.0000
  H   H49       1.0  0.11259999999999998  0.5845  0.31713  1.0000
  H   H50       1.0  0.90919  0.69586  0.50383  1.0000
  H   H51       1.0  0.13338  0.5686599999999999  0.18723  1.0000
  H   H52       1.0  0.5529  0.66015  0.27541  1.0000
  H   H53       1.0  0.4899899999999999  0.65066  0.31172  1.0000
  H   H54       1.0  0.19039  0.8060499999999999  0.39522999999999997  1.0000
  H   H55       1.0  0.30166  0.80138  0.41250999999999993  1.0000
  H   H56       1.0  0.80222  0.7504099999999999  0.39586  1.0000
  H   H57       1.0  0.6927599999999998  0.74231  0.41365  1.0000
  H   H58       1.0  0.33676  0.64529  0.29089  1.0000
  H   H59       1.0  0.40521  0.80232  0.06207  1.0000
  H   H60       1.0  0.41726  0.55216  0.19455  1.0000
  H   H61       1.0  0.4159  0.44166  0.22423999999999997  1.0000
  H   H62       1.0  0.94618  0.70049  0.20154  1.0000
  H   H63       1.0  0.5950799999999998  0.63956  0.06133999999999999  1.0000
  H   H64       1.0  0.60151  0.64458  0.9956299999999999  1.0000
  H   H65       1.0  0.6266999999999998  0.02707  0.21140999999999996  1.0000
  H   H66       1.0  0.34668  0.53492  0.32181999999999994  1.0000
  H   H67       1.0  0.62982  0.82015  0.28242  1.0000
  H   H68       1.0  0.61188  0.9156599999999999  0.18212  1.0000
  H   H69       1.0  0.4073099999999999  0.80474  0.99639  1.0000
  H   H70       1.0  0.63465  0.93206  0.31196999999999997  1.0000
  H   H71       1.0  0.05219999999999999  0.83807  0.22442  1.0000
  H   H72       1.0  0.99048  0.84925  0.18793  1.0000
  H   H73       1.0  0.6913  0.69411  0.10492  1.0000
  H   H74       1.0  0.8021  0.69873  0.08746  1.0000
  H   H75       1.0  0.30377  0.7494  0.10435  1.0000
  H   H76       1.0  0.19429  0.75697  0.08636  1.0000
  H   H77       1.0  0.3367099999999999  0.14533  0.20943999999999996  1.0000
  H   H78       1.0  0.40561  0.30154  0.4382  1.0000
  H   H79       1.0  0.41732  0.05218999999999999  0.30578  1.0000
  H   H80       1.0  0.41617  0.94168  0.27604  1.0000
  H   H81       1.0  0.94461  0.20228999999999997  0.29837  1.0000
  H   H82       1.0  0.59504  0.13844  0.43853999999999993  1.0000
  H   H83       1.0  0.60259  0.1436  0.5042099999999999  1.0000
  H   H84       1.0  0.62744  0.52668  0.28768  1.0000
  H   H85       1.0  0.34674  0.03485  0.1785  1.0000
  H   H86       1.0  0.6285  0.31965  0.21684  1.0000
  H   H87       1.0  0.6126  0.4155  0.31713  1.0000
  H   H88       1.0  0.40919  0.30414  0.50383  1.0000
  H   H89       1.0  0.63338  0.43133999999999995  0.18723  1.0000
  H   H90       1.0  0.0529  0.33984999999999993  0.27541  1.0000
  H   H91       1.0  0.9899899999999998  0.34934  0.31172  1.0000
  H   H92       1.0  0.69039  0.19395  0.39522999999999997  1.0000
  H   H93       1.0  0.80166  0.19861999999999996  0.41250999999999993  1.0000
  H   H94       1.0  0.30222  0.24959  0.39586  1.0000
  H   H95       1.0  0.19275999999999993  0.25769  0.41365  1.0000
  H   H96       1.0  0.8367599999999997  0.35471  0.29089  1.0000
  H   H97       1.0  0.90521  0.19768  0.06207  1.0000
  H   H98       1.0  0.91726  0.44783  0.19455  1.0000
  H   H99       1.0  0.9158999999999998  0.55834  0.22423999999999997  1.0000
  H   H100      1.0  0.44618  0.29951  0.20154  1.0000
  H   H101      1.0  0.09508  0.36044  0.06133999999999999  1.0000
  H   H102      1.0  0.10151  0.35542  0.9956299999999999  1.0000
  H   H103      1.0  0.1267  0.97293  0.21140999999999996  1.0000
  H   H104      1.0  0.8466799999999999  0.46506999999999993  0.32181999999999994  1.0000
  H   H105      1.0  0.12982  0.17985  0.28242  1.0000
  H   H106      1.0  0.11188  0.08434  0.18212  1.0000
  H   H107      1.0  0.9073099999999997  0.19526  0.99639  1.0000
  H   H108      1.0  0.13465  0.06793999999999999  0.31196999999999997  1.0000
  H   H109      1.0  0.5522  0.16193  0.22442  1.0000
  H   H110      1.0  0.49048  0.15075  0.18793  1.0000
  H   H111      1.0  0.19129999999999997  0.30589  0.10492  1.0000
  H   H112      1.0  0.3020999999999999  0.30126  0.08746  1.0000
  H   H113      1.0  0.8037699999999999  0.2506  0.10435  1.0000
  H   H114      1.0  0.69429  0.24303  0.08636  1.0000
  H   H115      1.0  0.16329  0.14533  0.79056  1.0000
  H   H116      1.0  0.09438  0.30154  0.56179  1.0000
  H   H117      1.0  0.08267  0.05218999999999999  0.69422  1.0000
  H   H118      1.0  0.08382  0.94168  0.7239599999999999  1.0000
  H   H119      1.0  0.55538  0.20228999999999997  0.70163  1.0000
  H   H120      1.0  0.90496  0.13844  0.56145  1.0000
  H   H121      1.0  0.8974  0.1436  0.49578999999999995  1.0000
  H   H122      1.0  0.87256  0.52668  0.7123099999999999  1.0000
  H   H123      1.0  0.15325  0.03485  0.8215  1.0000
  H   H124      1.0  0.8715  0.31965  0.7831599999999999  1.0000
  H   H125      1.0  0.8873999999999997  0.4155  0.68287  1.0000
  H   H126      1.0  0.09081  0.30414  0.49616999999999994  1.0000
  H   H127      1.0  0.8666099999999998  0.43133999999999995  0.81277  1.0000
  H   H128      1.0  0.44709  0.33984999999999993  0.72459  1.0000
  H   H129      1.0  0.51  0.34934  0.68828  1.0000
  H   H130      1.0  0.8096  0.19395  0.60477  1.0000
  H   H131      1.0  0.69833  0.19861999999999996  0.58749  1.0000
  H   H132      1.0  0.19777  0.24959  0.6041399999999999  1.0000
  H   H133      1.0  0.3072299999999999  0.25769  0.58635  1.0000
  H   H134      1.0  0.66323  0.35471  0.70911  1.0000
  H   H135      1.0  0.59478  0.19768  0.93793  1.0000
  H   H136      1.0  0.58273  0.44783999999999996  0.8054499999999999  1.0000
  H   H137      1.0  0.5841  0.55834  0.77575  1.0000
  H   H138      1.0  0.05382  0.29951  0.79846  1.0000
  H   H139      1.0  0.4049099999999999  0.36044  0.9386599999999999  1.0000
  H   H140      1.0  0.39848  0.35542  0.00436  1.0000
  H   H141      1.0  0.3732899999999999  0.97293  0.78858  1.0000
  H   H142      1.0  0.65331  0.46508  0.67818  1.0000
  H   H143      1.0  0.37017  0.17985  0.71757  1.0000
  H   H144      1.0  0.3881099999999999  0.08434  0.81788  1.0000
  H   H145      1.0  0.5926799999999998  0.19526  0.00361  1.0000
  H   H146      1.0  0.36534  0.06793999999999999  0.6880299999999999  1.0000
  H   H147      1.0  0.9477899999999999  0.16193  0.77558  1.0000
  H   H148      1.0  0.00951  0.15075  0.81207  1.0000
  H   H149      1.0  0.30869  0.30589  0.89508  1.0000
  H   H150      1.0  0.19789  0.3012699999999999  0.9125399999999999  1.0000
  H   H151      1.0  0.69622  0.2506  0.89565  1.0000
  H   H152      1.0  0.8057  0.24303  0.9136399999999999  1.0000
  C   C1        1.0  0.7968599999999999  0.72694  0.6389799999999999  1.0000
  C   C2        1.0  0.64297  0.89956  0.77672  1.0000
  C   C3        1.0  0.5525899999999999  0.7335499999999999  0.5471799999999999  1.0000
  C   C4        1.0  0.59941  0.9517399999999999  0.72191  1.0000
  C   C5        1.0  0.59974  0.013429999999999997  0.73852  1.0000
  C   C6        1.0  0.37015  0.51479  0.76415  1.0000
  C   C7        1.0  0.37663  0.44821  0.78113  1.0000
  C   C8        1.0  0.11578  0.8027499999999999  0.68524  1.0000
  C   C9        1.0  0.39576  0.7035399999999999  0.71402  1.0000
  C   C10       1.0  0.20810999999999996  0.80188  0.64076  1.0000
  C   C11       1.0  0.6162499999999997  0.01805  0.77466  1.0000
  C   C12       1.0  0.3814199999999999  0.63846  0.73141  1.0000
  C   C13       1.0  0.49121  0.77286  0.45312  1.0000
  C   C14       1.0  0.4444  0.8248299999999998  0.547  1.0000
  C   C15       1.0  0.60663  0.08289  0.79332  1.0000
  C   C16       1.0  0.44067  0.8224  0.51051  1.0000
  C   C17       1.0  0.37303  0.51897  0.7274799999999999  1.0000
  C   C18       1.0  0.4938999999999999  0.77591  0.49210999999999994  1.0000
  C   C19       1.0  0.6388  0.9606  0.7936399999999998  1.0000
  C   C20       1.0  0.37296  0.63462  0.76802  1.0000
  C   C21       1.0  0.49994  0.78024  0.5656999999999999  1.0000
  C   C22       1.0  0.50303  0.78127  0.6052199999999999  1.0000
  C   C23       1.0  0.38049  0.58042  0.7111599999999999  1.0000
  C   C24       1.0  0.88583  0.69377  0.68102  1.0000
  C   C25       1.0  0.61968  0.8942499999999999  0.74105  1.0000
  C   C26       1.0  0.61748  0.8266999999999999  0.72471  1.0000
  C   C27       1.0  0.55022  0.73171  0.51074  1.0000
  C   C28       1.0  0.3691  0.57298  0.7843799999999999  1.0000
  C   C29       1.0  0.29585  0.7728199999999998  0.8610699999999999  1.0000
  C   C30       1.0  0.14302999999999993  0.60045  0.723  1.0000
  C   C31       1.0  0.05325999999999999  0.7673099999999999  0.95271  1.0000
  C   C32       1.0  0.09957  0.54818  0.77777  1.0000
  C   C33       1.0  0.09981  0.4865499999999999  0.7611599999999998  1.0000
  C   C34       1.0  0.86976  0.9856599999999999  0.7366999999999999  1.0000
  C   C35       1.0  0.8765  0.05186999999999999  0.71944  1.0000
  C   C36       1.0  0.6142899999999999  0.69577  0.8148299999999999  1.0000
  C   C37       1.0  0.89434  0.79654  0.78627  1.0000
  C   C38       1.0  0.7067899999999998  0.6974999999999999  0.85926  1.0000
  C   C39       1.0  0.11613  0.48199  0.72499  1.0000
  C   C40       1.0  0.88097  0.862  0.7692799999999999  1.0000
  C   C41       1.0  0.99333  0.72732  0.04681  1.0000
  C   C42       1.0  0.94467  0.6761499999999999  0.95309  1.0000
  C   C43       1.0  0.1066  0.41695  0.70656  1.0000
  C   C44       1.0  0.9415599999999997  0.67854  0.9895599999999999  1.0000
  C   C45       1.0  0.87328  0.9814799999999999  0.77336  1.0000
  C   C46       1.0  0.99543  0.7248  0.00783  1.0000
  C   C47       1.0  0.13876  0.5394099999999998  0.70604  1.0000
  C   C48       1.0  0.8719999999999999  0.8658999999999999  0.73268  1.0000
  C   C49       1.0  0.00026999999999999995  0.72065  0.9343799999999999  1.0000
  C   C50       1.0  0.0028899999999999993  0.71933  0.8949599999999999  1.0000
  C   C51       1.0  0.88077  0.91992  0.7896  1.0000
  C   C52       1.0  0.38558  0.80564  0.81918  1.0000
  C   C53       1.0  0.11971999999999997  0.6057399999999998  0.75866  1.0000
  C   C54       1.0  0.11604  0.67315  0.7751499999999999  1.0000
  C   C55       1.0  0.05157  0.76904  0.9891499999999999  1.0000
  C   C56       1.0  0.8681699999999998  0.92755  0.71641  1.0000
  C   C57       1.0  0.70314  0.72694  0.36102  1.0000
  C   C58       1.0  0.85703  0.89956  0.22327999999999998  1.0000
  C   C59       1.0  0.9474  0.7335499999999999  0.45281  1.0000
  C   C60       1.0  0.90058  0.9517399999999999  0.27808  1.0000
  C   C61       1.0  0.9002499999999998  0.013429999999999997  0.26148  1.0000
  C   C62       1.0  0.12984  0.51479  0.23584999999999998  1.0000
  C   C63       1.0  0.12337  0.44821  0.21887  1.0000
  C   C64       1.0  0.38422  0.8027499999999999  0.31476  1.0000
  C   C65       1.0  0.10423  0.7035399999999999  0.28598  1.0000
  C   C66       1.0  0.29189  0.80188  0.35924  1.0000
  C   C67       1.0  0.88374  0.01805  0.22533  1.0000
  C   C68       1.0  0.11857  0.63845  0.26859  1.0000
  C   C69       1.0  0.00879  0.77286  0.54688  1.0000
  C   C70       1.0  0.055589999999999994  0.8248299999999998  0.453  1.0000
  C   C71       1.0  0.89337  0.08289  0.20668  1.0000
  C   C72       1.0  0.059319999999999984  0.8224  0.48949  1.0000
  C   C73       1.0  0.12696  0.51897  0.27252  1.0000
  C   C74       1.0  0.00609  0.77591  0.50789  1.0000
  C   C75       1.0  0.86119  0.9606  0.20636  1.0000
  C   C76       1.0  0.12703  0.63462  0.23197  1.0000
  C   C77       1.0  4.999999999999997e-05  0.78024  0.4343  1.0000
  C   C78       1.0  0.9969599999999997  0.78126  0.39478  1.0000
  C   C79       1.0  0.11951  0.58042  0.28884  1.0000
  C   C80       1.0  0.61416  0.69377  0.31898  1.0000
  C   C81       1.0  0.88031  0.89424  0.25894  1.0000
  C   C82       1.0  0.8825099999999999  0.8266999999999999  0.2752899999999999  1.0000
  C   C83       1.0  0.94977  0.73171  0.48925  1.0000
  C   C84       1.0  0.1309  0.57298  0.21562  1.0000
  C   C85       1.0  0.20413999999999993  0.7728199999999998  0.13892  1.0000
  C   C86       1.0  0.35696  0.60045  0.277  1.0000
  C   C87       1.0  0.44673  0.7673099999999999  0.04729  1.0000
  C   C88       1.0  0.40042  0.54818  0.22222999999999998  1.0000
  C   C89       1.0  0.4001899999999999  0.4865499999999999  0.23883999999999997  1.0000
  C   C90       1.0  0.63023  0.9856599999999999  0.2633  1.0000
  C   C91       1.0  0.62349  0.05186999999999999  0.28056  1.0000
  C   C92       1.0  0.8857  0.69576  0.18516  1.0000
  C   C93       1.0  0.60566  0.79654  0.21373  1.0000
  C   C94       1.0  0.7932  0.6974999999999999  0.14074  1.0000
  C   C95       1.0  0.38386  0.48199  0.27501  1.0000
  C   C96       1.0  0.61902  0.862  0.23072  1.0000
  C   C97       1.0  0.50666  0.72732  0.95319  1.0000
  C   C98       1.0  0.55532  0.6761499999999999  0.04691  1.0000
  C   C99       1.0  0.39339  0.41695  0.29342999999999997  1.0000
  C   C100      1.0  0.55844  0.67853  0.010439999999999998  1.0000
  C   C101      1.0  0.62671  0.9814799999999999  0.22663999999999998  1.0000
  C   C102      1.0  0.50456  0.7248  0.99217  1.0000
  C   C103      1.0  0.3612299999999999  0.5394099999999998  0.29395999999999994  1.0000
  C   C104      1.0  0.62799  0.8658999999999999  0.26732  1.0000
  C   C105      1.0  0.49972  0.72065  0.06562  1.0000
  C   C106      1.0  0.4971099999999999  0.71933  0.10504  1.0000
  C   C107      1.0  0.61923  0.91992  0.21039  1.0000
  C   C108      1.0  0.11441  0.80564  0.18082  1.0000
  C   C109      1.0  0.38027  0.6057399999999998  0.24134  1.0000
  C   C110      1.0  0.3839599999999999  0.67315  0.22484999999999997  1.0000
  C   C111      1.0  0.4484199999999999  0.76904  0.01085  1.0000
  C   C112      1.0  0.63183  0.92755  0.28359  1.0000
  C   C113      1.0  0.20314  0.27306  0.36102  1.0000
  C   C114      1.0  0.35703  0.10044  0.22327999999999998  1.0000
  C   C115      1.0  0.4474  0.26645  0.45281  1.0000
  C   C116      1.0  0.4005799999999999  0.04825999999999999  0.27808  1.0000
  C   C117      1.0  0.40025  0.98657  0.26148  1.0000
  C   C118      1.0  0.6298399999999997  0.48521  0.23584999999999998  1.0000
  C   C119      1.0  0.6233699999999998  0.5517799999999999  0.21887  1.0000
  C   C120      1.0  0.8842199999999998  0.19724999999999998  0.31476  1.0000
  C   C121      1.0  0.60423  0.29645999999999995  0.28598  1.0000
  C   C122      1.0  0.7918899999999999  0.19812  0.35924  1.0000
  C   C123      1.0  0.38374  0.9819499999999999  0.22533  1.0000
  C   C124      1.0  0.6185699999999997  0.3615399999999999  0.26859  1.0000
  C   C125      1.0  0.50879  0.22714  0.54688  1.0000
  C   C126      1.0  0.55559  0.17516  0.453  1.0000
  C   C127      1.0  0.39337  0.91711  0.20668  1.0000
  C   C128      1.0  0.55932  0.1776  0.48949  1.0000
  C   C129      1.0  0.62696  0.48103  0.27252  1.0000
  C   C130      1.0  0.50609  0.22409  0.50789  1.0000
  C   C131      1.0  0.36119  0.0394  0.20636  1.0000
  C   C132      1.0  0.62703  0.36538  0.23197  1.0000
  C   C133      1.0  0.50005  0.21975999999999998  0.4343  1.0000
  C   C134      1.0  0.49696  0.21872999999999998  0.39478  1.0000
  C   C135      1.0  0.61951  0.41957999999999995  0.28884  1.0000
  C   C136      1.0  0.11416  0.30623  0.31898  1.0000
  C   C137      1.0  0.38031  0.10575  0.25894  1.0000
  C   C138      1.0  0.38251  0.1733  0.2752899999999999  1.0000
  C   C139      1.0  0.44977  0.26829  0.48925  1.0000
  C   C140      1.0  0.6309  0.42702  0.21562  1.0000
  C   C141      1.0  0.70414  0.22716999999999998  0.13892  1.0000
  C   C142      1.0  0.8569599999999998  0.39955000000000007  0.277  1.0000
  C   C143      1.0  0.94673  0.23268999999999998  0.04729  1.0000
  C   C144      1.0  0.9004199999999998  0.45182  0.22222999999999998  1.0000
  C   C145      1.0  0.90019  0.51345  0.23883999999999997  1.0000
  C   C146      1.0  0.13023  0.01434  0.2633  1.0000
  C   C147      1.0  0.12348999999999999  0.9481299999999999  0.28056  1.0000
  C   C148      1.0  0.3857  0.30423  0.18516  1.0000
  C   C149      1.0  0.10566  0.20346  0.21373  1.0000
  C   C150      1.0  0.2931999999999999  0.3025  0.14074  1.0000
  C   C151      1.0  0.8838599999999999  0.51801  0.27501  1.0000
  C   C152      1.0  0.11902  0.138  0.23072  1.0000
  C   C153      1.0  0.00666  0.27268  0.95319  1.0000
  C   C154      1.0  0.05532  0.32385  0.04691  1.0000
  C   C155      1.0  0.89339  0.58305  0.29342999999999997  1.0000
  C   C156      1.0  0.05844  0.32146  0.010439999999999998  1.0000
  C   C157      1.0  0.12671  0.01852  0.22663999999999998  1.0000
  C   C158      1.0  0.00456  0.2752  0.99217  1.0000
  C   C159      1.0  0.86123  0.46059  0.29395999999999994  1.0000
  C   C160      1.0  0.12799  0.1341  0.26732  1.0000
  C   C161      1.0  0.9997199999999999  0.27935  0.06562  1.0000
  C   C162      1.0  0.9971099999999998  0.28067  0.10504  1.0000
  C   C163      1.0  0.11922999999999997  0.08008  0.21039  1.0000
  C   C164      1.0  0.61441  0.19436  0.18082  1.0000
  C   C165      1.0  0.88027  0.39426  0.24134  1.0000
  C   C166      1.0  0.88396  0.32685  0.22484999999999997  1.0000
  C   C167      1.0  0.94842  0.23096  0.01085  1.0000
  C   C168      1.0  0.13183  0.07245  0.28359  1.0000
  C   C169      1.0  0.29686  0.27306  0.6389799999999999  1.0000
  C   C170      1.0  0.14296  0.10044  0.77672  1.0000
  C   C171      1.0  0.05259  0.26645  0.5471799999999999  1.0000
  C   C172      1.0  0.09940999999999998  0.04825999999999999  0.72191  1.0000
  C   C173      1.0  0.09974  0.98657  0.73852  1.0000
  C   C174      1.0  0.8701499999999998  0.48521  0.76415  1.0000
  C   C175      1.0  0.87663  0.5517899999999999  0.78113  1.0000
  C   C176      1.0  0.61578  0.19724999999999998  0.68524  1.0000
  C   C177      1.0  0.8957599999999999  0.29645999999999995  0.71402  1.0000
  C   C178      1.0  0.70811  0.19812  0.64076  1.0000
  C   C179      1.0  0.11625  0.9819499999999999  0.77466  1.0000
  C   C180      1.0  0.8814199999999998  0.36155  0.73141  1.0000
  C   C181      1.0  0.9912099999999998  0.22714  0.45312  1.0000
  C   C182      1.0  0.9443999999999999  0.17517  0.547  1.0000
  C   C183      1.0  0.10662999999999999  0.91711  0.79332  1.0000
  C   C184      1.0  0.94067  0.1776  0.51051  1.0000
  C   C185      1.0  0.87303  0.48103  0.7274799999999999  1.0000
  C   C186      1.0  0.9939  0.22409  0.49210999999999994  1.0000
  C   C187      1.0  0.1388  0.0394  0.7936399999999998  1.0000
  C   C188      1.0  0.87296  0.36538  0.76802  1.0000
  C   C189      1.0  0.99994  0.21975999999999998  0.5656999999999999  1.0000
  C   C190      1.0  0.0030399999999999993  0.21872999999999998  0.6052199999999999  1.0000
  C   C191      1.0  0.8804899999999998  0.41957999999999995  0.7111599999999999  1.0000
  C   C192      1.0  0.38583  0.30623  0.68102  1.0000
  C   C193      1.0  0.11967999999999998  0.10575  0.74105  1.0000
  C   C194      1.0  0.11748  0.1733  0.72471  1.0000
  C   C195      1.0  0.05021999999999999  0.26829  0.51074  1.0000
  C   C196      1.0  0.8691  0.42702  0.7843799999999999  1.0000
  C   C197      1.0  0.7958499999999998  0.22718  0.8610699999999999  1.0000
  C   C198      1.0  0.64303  0.39955000000000007  0.723  1.0000
  C   C199      1.0  0.55326  0.23268999999999998  0.95271  1.0000
  C   C200      1.0  0.59957  0.45182  0.77777  1.0000
  C   C201      1.0  0.5997999999999998  0.51345  0.7611599999999998  1.0000
  C   C202      1.0  0.36976  0.01434  0.7366999999999999  1.0000
  C   C203      1.0  0.3765  0.9481299999999999  0.71944  1.0000
  C   C204      1.0  0.11428999999999997  0.30424  0.8148299999999999  1.0000
  C   C205      1.0  0.39434  0.20346  0.78627  1.0000
  C   C206      1.0  0.20679  0.3025  0.85926  1.0000
  C   C207      1.0  0.61613  0.51801  0.72499  1.0000
  C   C208      1.0  0.38096999999999986  0.138  0.7692799999999999  1.0000
  C   C209      1.0  0.4933299999999999  0.27268  0.04681  1.0000
  C   C210      1.0  0.4446699999999999  0.32385  0.95309  1.0000
  C   C211      1.0  0.6065999999999999  0.58305  0.70656  1.0000
  C   C212      1.0  0.44156  0.32146  0.9895599999999999  1.0000
  C   C213      1.0  0.3732799999999999  0.01852  0.77336  1.0000
  C   C214      1.0  0.49543  0.2752  0.00783  1.0000
  C   C215      1.0  0.63876  0.46059  0.70604  1.0000
  C   C216      1.0  0.372  0.1341  0.73268  1.0000
  C   C217      1.0  0.50027  0.27935  0.9343799999999999  1.0000
  C   C218      1.0  0.50289  0.28067  0.8949599999999999  1.0000
  C   C219      1.0  0.38077  0.08008  0.7896  1.0000
  C   C220      1.0  0.88558  0.19436  0.81918  1.0000
  C   C221      1.0  0.61972  0.39426  0.75866  1.0000
  C   C222      1.0  0.6160399999999998  0.32685  0.7751499999999999  1.0000
  C   C223      1.0  0.55157  0.23096  0.9891499999999999  1.0000
  C   C224      1.0  0.36816999999999994  0.07245  0.71641  1.0000
  N   N1        1.0  0.74275  0.7123  0.66601  1.0000
  N   N2        1.0  0.80031  0.69023  0.6929  1.0000
  N   N3        1.0  0.8879899999999997  0.71699  0.64721  1.0000
  N   N4        1.0  0.96287  0.67984  0.70057  1.0000
  N   N5        1.0  0.24218  0.79308  0.60789  1.0000
  N   N6        1.0  0.25796  0.81819  0.66897  1.0000
  N   N7        1.0  0.19800999999999994  0.81844  0.6971599999999999  1.0000
  N   N8        1.0  0.11781  0.79165  0.64993  1.0000
  N   N9        1.0  0.76749  0.75224  0.6076999999999999  1.0000
  N   N10       1.0  0.24225  0.78704  0.83381  1.0000
  N   N11       1.0  0.30029  0.80875  0.807  1.0000
  N   N12       1.0  0.38708  0.78304  0.8530999999999999  1.0000
  N   N13       1.0  0.4630599999999999  0.8193699999999999  0.79985  1.0000
  N   N14       1.0  0.7412699999999999  0.70723  0.8920299999999999  1.0000
  N   N15       1.0  0.75657  0.68098  0.8310799999999999  1.0000
  N   N16       1.0  0.69656  0.68021  0.8028999999999998  1.0000
  N   N17       1.0  0.61635  0.70716  0.8501199999999999  1.0000
  N   N18       1.0  0.266  0.74742  0.8922199999999999  1.0000
  N   N19       1.0  0.7572399999999998  0.71229  0.33399  1.0000
  N   N20       1.0  0.69968  0.69023  0.30709  1.0000
  N   N21       1.0  0.612  0.71699  0.35279  1.0000
  N   N22       1.0  0.53712  0.67984  0.29942  1.0000
  N   N23       1.0  0.25781  0.79308  0.39211  1.0000
  N   N24       1.0  0.24202999999999997  0.81819  0.33103  1.0000
  N   N25       1.0  0.30198  0.81844  0.30284  1.0000
  N   N26       1.0  0.3821799999999999  0.79165  0.35006  1.0000
  N   N27       1.0  0.7325099999999998  0.75224  0.39228999999999997  1.0000
  N   N28       1.0  0.25775  0.78704  0.16618  1.0000
  N   N29       1.0  0.19970999999999997  0.80874  0.193  1.0000
  N   N30       1.0  0.11291  0.78304  0.14689  1.0000
  N   N31       1.0  0.03693  0.8193699999999999  0.20014  1.0000
  N   N32       1.0  0.75872  0.70722  0.10797  1.0000
  N   N33       1.0  0.7434199999999997  0.68098  0.16892  1.0000
  N   N34       1.0  0.80343  0.68021  0.19709  1.0000
  N   N35       1.0  0.88364  0.70716  0.14986999999999998  1.0000
  N   N36       1.0  0.23399999999999996  0.74742  0.10778  1.0000
  N   N37       1.0  0.25724  0.2877  0.33399  1.0000
  N   N38       1.0  0.19968  0.30977  0.30709  1.0000
  N   N39       1.0  0.11200999999999997  0.28301  0.35279  1.0000
  N   N40       1.0  0.03711999999999999  0.32016  0.29942  1.0000
  N   N41       1.0  0.7578099999999998  0.20692  0.39211  1.0000
  N   N42       1.0  0.7420299999999997  0.18181  0.33103  1.0000
  N   N43       1.0  0.8019799999999998  0.18155999999999997  0.30284  1.0000
  N   N44       1.0  0.8821799999999997  0.20834999999999998  0.35006  1.0000
  N   N45       1.0  0.23251  0.24775999999999998  0.39228999999999997  1.0000
  N   N46       1.0  0.75775  0.21295999999999998  0.16618  1.0000
  N   N47       1.0  0.6997099999999998  0.19125  0.193  1.0000
  N   N48       1.0  0.61291  0.21696  0.14689  1.0000
  N   N49       1.0  0.53693  0.18063  0.20014  1.0000
  N   N50       1.0  0.25872  0.29277  0.10797  1.0000
  N   N51       1.0  0.24341999999999997  0.31902  0.16892  1.0000
  N   N52       1.0  0.30343  0.31979  0.19709  1.0000
  N   N53       1.0  0.38364  0.29284  0.14986999999999998  1.0000
  N   N54       1.0  0.73399  0.25258  0.10778  1.0000
  N   N55       1.0  0.24275  0.2877  0.66601  1.0000
  N   N56       1.0  0.3003099999999999  0.30977  0.6929  1.0000
  N   N57       1.0  0.38799  0.28301  0.64721  1.0000
  N   N58       1.0  0.4628699999999999  0.32016  0.70057  1.0000
  N   N59       1.0  0.7421799999999997  0.20692  0.60789  1.0000
  N   N60       1.0  0.75796  0.18181  0.66897  1.0000
  N   N61       1.0  0.69801  0.18155999999999997  0.6971599999999999  1.0000
  N   N62       1.0  0.6178099999999997  0.20834999999999998  0.64993  1.0000
  N   N63       1.0  0.26749  0.24775999999999998  0.6076999999999999  1.0000
  N   N64       1.0  0.74225  0.21295999999999998  0.83381  1.0000
  N   N65       1.0  0.80029  0.19126  0.807  1.0000
  N   N66       1.0  0.88708  0.21696  0.8530999999999999  1.0000
  N   N67       1.0  0.96306  0.18063  0.79985  1.0000
  N   N68       1.0  0.24127  0.29278  0.8920299999999999  1.0000
  N   N69       1.0  0.25657  0.31902  0.8310799999999999  1.0000
  N   N70       1.0  0.19656  0.31979  0.8028999999999998  1.0000
  N   N71       1.0  0.11635  0.29284  0.8501199999999999  1.0000
  N   N72       1.0  0.7659999999999999  0.25258  0.8922199999999999  1.0000
  O   O1        1.0  0.5929299999999998  0.08449  0.8259  1.0000
  O   O2        1.0  0.66189  0.78117  0.73951  1.0000
  O   O3        1.0  0.61057  0.13698  0.77457  1.0000
  O   O4        1.0  0.56994  0.8181099999999999  0.69623  1.0000
  O   O5        1.0  0.36582  0.39653  0.76187  1.0000
  O   O6        1.0  0.55187  0.7370099999999999  0.43731  1.0000
  O   O7        1.0  0.39789  0.44468  0.8134599999999998  1.0000
  O   O8        1.0  0.4304399999999999  0.8047499999999999  0.43588  1.0000
  O   O9        1.0  0.4442899999999999  0.8176300000000001  0.62094  1.0000
  O   O10       1.0  0.42633  0.70457  0.68242  1.0000
  O   O11       1.0  0.56474  0.74525  0.61946  1.0000
  O   O12       1.0  0.37978  0.75722  0.7307399999999998  1.0000
  O   O13       1.0  0.09291  0.41447  0.67397  1.0000
  O   O14       1.0  0.15784  0.71997  0.76034  1.0000
  O   O15       1.0  0.11061999999999997  0.36335  0.72559  1.0000
  O   O16       1.0  0.06938999999999997  0.68047  0.8039  1.0000
  O   O17       1.0  0.86593  0.10427  0.73821  1.0000
  O   O18       1.0  0.05580999999999999  0.76124  0.06271999999999998  1.0000
  O   O19       1.0  0.89797  0.05428999999999999  0.68713  1.0000
  O   O20       1.0  0.93091  0.69679  0.06392  1.0000
  O   O21       1.0  0.94277  0.68365  0.8795999999999999  1.0000
  O   O22       1.0  0.92641  0.79422  0.81769  1.0000
  O   O23       1.0  0.06528  0.75411  0.88038  1.0000
  O   O24       1.0  0.87593  0.74362  0.76938  1.0000
  O   O25       1.0  0.90706  0.08449  0.1741  1.0000
  O   O26       1.0  0.8381  0.78117  0.26049  1.0000
  O   O27       1.0  0.88943  0.13698  0.22543  1.0000
  O   O28       1.0  0.9300599999999998  0.8181099999999999  0.30376999999999993  1.0000
  O   O29       1.0  0.13417  0.39653  0.23812999999999998  1.0000
  O   O30       1.0  0.94812  0.7370099999999999  0.56269  1.0000
  O   O31       1.0  0.1021  0.44468  0.18653999999999998  1.0000
  O   O32       1.0  0.06955  0.8047499999999999  0.56412  1.0000
  O   O33       1.0  0.05570999999999999  0.8176300000000001  0.37906  1.0000
  O   O34       1.0  0.07367  0.70457  0.31758  1.0000
  O   O35       1.0  0.93525  0.74525  0.38053999999999993  1.0000
  O   O36       1.0  0.12021  0.75722  0.26926  1.0000
  O   O37       1.0  0.4070799999999999  0.41447  0.32603  1.0000
  O   O38       1.0  0.34215  0.71997  0.23965999999999998  1.0000
  O   O39       1.0  0.38937  0.36335  0.27441  1.0000
  O   O40       1.0  0.43061  0.68047  0.19609999999999997  1.0000
  O   O41       1.0  0.63406  0.10427  0.26179  1.0000
  O   O42       1.0  0.44419  0.76124  0.9372700000000002  1.0000
  O   O43       1.0  0.60202  0.05428999999999999  0.31287  1.0000
  O   O44       1.0  0.56909  0.69679  0.9360800000000001  1.0000
  O   O45       1.0  0.55722  0.68365  0.12039  1.0000
  O   O46       1.0  0.57358  0.79422  0.18231  1.0000
  O   O47       1.0  0.43471  0.75411  0.11961000000000001  1.0000
  O   O48       1.0  0.62407  0.74362  0.23061999999999996  1.0000
  O   O49       1.0  0.40706  0.91551  0.1741  1.0000
  O   O50       1.0  0.33809999999999996  0.21883  0.26049  1.0000
  O   O51       1.0  0.38943  0.86302  0.22543  1.0000
  O   O52       1.0  0.4300599999999999  0.18189  0.30376999999999993  1.0000
  O   O53       1.0  0.63417  0.60347  0.23812999999999998  1.0000
  O   O54       1.0  0.44812  0.26298999999999995  0.56269  1.0000
  O   O55       1.0  0.6021  0.55532  0.18653999999999998  1.0000
  O   O56       1.0  0.5695499999999998  0.19525  0.56412  1.0000
  O   O57       1.0  0.5557099999999998  0.18237  0.37906  1.0000
  O   O58       1.0  0.57367  0.29543  0.31758  1.0000
  O   O59       1.0  0.43525  0.25475  0.38053999999999993  1.0000
  O   O60       1.0  0.6202099999999998  0.24278  0.26926  1.0000
  O   O61       1.0  0.90708  0.58553  0.32603  1.0000
  O   O62       1.0  0.8421499999999998  0.28003  0.23965999999999998  1.0000
  O   O63       1.0  0.88937  0.63665  0.27441  1.0000
  O   O64       1.0  0.93061  0.31953  0.19609999999999997  1.0000
  O   O65       1.0  0.13406  0.89573  0.26179  1.0000
  O   O66       1.0  0.9441899999999999  0.23876  0.9372700000000002  1.0000
  O   O67       1.0  0.10201999999999997  0.94571  0.31287  1.0000
  O   O68       1.0  0.06908999999999997  0.30321  0.9360800000000001  1.0000
  O   O69       1.0  0.05721999999999999  0.31635  0.12039  1.0000
  O   O70       1.0  0.07358  0.20578  0.18231  1.0000
  O   O71       1.0  0.9347099999999999  0.24588999999999997  0.11961000000000001  1.0000
  O   O72       1.0  0.12406999999999997  0.25638  0.23061999999999996  1.0000
  O   O73       1.0  0.09292999999999998  0.91551  0.8259  1.0000
  O   O74       1.0  0.16189  0.21883  0.73951  1.0000
  O   O75       1.0  0.11057  0.86302  0.77457  1.0000
  O   O76       1.0  0.06993999999999999  0.18189  0.69623  1.0000
  O   O77       1.0  0.86582  0.60347  0.76187  1.0000
  O   O78       1.0  0.05187  0.26298999999999995  0.43731  1.0000
  O   O79       1.0  0.8978899999999997  0.55532  0.8134599999999998  1.0000
  O   O80       1.0  0.93044  0.19525  0.43588  1.0000
  O   O81       1.0  0.94429  0.18237  0.62094  1.0000
  O   O82       1.0  0.9263299999999998  0.29543  0.68242  1.0000
  O   O83       1.0  0.06474  0.25475  0.61946  1.0000
  O   O84       1.0  0.87978  0.24278  0.7307399999999998  1.0000
  O   O85       1.0  0.5929099999999998  0.58553  0.67397  1.0000
  O   O86       1.0  0.65784  0.28003  0.76034  1.0000
  O   O87       1.0  0.61062  0.63665  0.72559  1.0000
  O   O88       1.0  0.56939  0.31953  0.8039  1.0000
  O   O89       1.0  0.36593  0.89573  0.73821  1.0000
  O   O90       1.0  0.55581  0.23875  0.06271999999999998  1.0000
  O   O91       1.0  0.39797  0.94571  0.68713  1.0000
  O   O92       1.0  0.43091  0.30321  0.06392  1.0000
  O   O93       1.0  0.44277  0.31635  0.8796099999999999  1.0000
  O   O94       1.0  0.42641  0.20578  0.81769  1.0000
  O   O95       1.0  0.56528  0.24588999999999997  0.88038  1.0000
  O   O96       1.0  0.37593  0.25638  0.76938  1.0000
