data_image0
_chemical_formula_structural       Zn16H192C336N24O52
_chemical_formula_sum              "Zn16 H192 C336 N24 O52"
_cell_length_a       17.21856
_cell_length_b       32.11742999999999
_cell_length_c       33.19841
_cell_angle_alpha    89.9859
_cell_angle_beta     89.89783
_cell_angle_gamma    89.94925000000002

_space_group_name_H-M_alt    "P 1"
_space_group_IT_number       1

loop_
  _space_group_symop_operation_xyz
  'x, y, z'

loop_
  _atom_site_type_symbol
  _atom_site_label
  _atom_site_symmetry_multiplicity
  _atom_site_fract_x
  _atom_site_fract_y
  _atom_site_fract_z
  _atom_site_occupancy
  Zn  Zn1       1.0  0.7832600000000001  0.04841  0.24152000000000004  1.0000
  Zn  Zn2       1.0  0.79141  0.9566399999999998  0.28171  1.0000
  Zn  Zn3       1.0  0.91646  0.02386  0.3060100000000001  1.0000
  Zn  Zn4       1.0  0.91604  0.98604  0.21558  1.0000
  Zn  Zn5       1.0  0.71683  0.95148  0.74235  1.0000
  Zn  Zn6       1.0  0.70831  0.044159999999999984  0.7809400000000002  1.0000
  Zn  Zn7       1.0  0.58345  0.9759599999999998  0.80629  1.0000
  Zn  Zn8       1.0  0.58375  0.01372  0.71637  1.0000
  Zn  Zn9       1.0  0.2168  0.5485599999999998  0.25758  1.0000
  Zn  Zn10      1.0  0.20843  0.4558199999999999  0.21899  1.0000
  Zn  Zn11      1.0  0.08354000000000002  0.52405  0.1937  1.0000
  Zn  Zn12      1.0  0.08364  0.48636  0.2837600000000001  1.0000
  Zn  Zn13      1.0  0.28284  0.4527699999999999  0.75661  1.0000
  Zn  Zn14      1.0  0.29142  0.5446  0.71806  1.0000
  Zn  Zn15      1.0  0.41834  0.4761399999999999  0.69367  1.0000
  Zn  Zn16      1.0  0.41596  0.5139999999999998  0.78309  1.0000
  H   H1        1.0  0.55617  0.92992  0.26931  1.0000
  H   H2        1.0  0.3985  0.05856999999999998  0.25617  1.0000
  H   H3        1.0  0.54366  0.06286  0.25581  1.0000
  H   H4        1.0  0.15137  0.9627399999999998  0.20685  1.0000
  H   H5        1.0  0.15862  0.03257  0.31724  1.0000
  H   H6        1.0  0.3038600000000001  0.028969999999999992  0.31595  1.0000
  H   H7        1.0  0.37537  0.8540099999999998  0.31507  1.0000
  H   H8        1.0  0.30345  0.78948  0.33445  1.0000
  H   H9        1.0  0.2005  0.76153  0.28937  1.0000
  H   H10       1.0  0.1681  0.7985499999999998  0.2255  1.0000
  H   H11       1.0  0.2398  0.86216  0.20648  1.0000
  H   H12       1.0  0.4504500000000001  0.8555  0.2103  1.0000
  H   H13       1.0  0.50581  0.8154299999999998  0.15336  1.0000
  H   H14       1.0  0.46539  0.83127  0.08305  1.0000
  H   H15       1.0  0.37065  0.8883499999999998  0.07  1.0000
  H   H16       1.0  0.31538  0.9288799999999998  0.12763000000000002  1.0000
  H   H17       1.0  0.86705  0.1683  0.22369  1.0000
  H   H18       1.0  0.9299700000000001  0.23863999999999994  0.22177000000000005  1.0000
  H   H19       1.0  0.96969  0.14623999999999998  0.3397  1.0000
  H   H20       1.0  0.09066  0.25739  0.22862  1.0000
  H   H21       1.0  0.15138  0.3278  0.22147  1.0000
  H   H22       1.0  0.00907  0.3726699999999999  0.3187300000000001  1.0000
  H   H23       1.0  0.011729999999999999  0.32515  0.4090900000000001  1.0000
  H   H24       1.0  0.105  0.3512699999999999  0.46001  1.0000
  H   H25       1.0  0.21809  0.30785  0.48008  1.0000
  H   H26       1.0  0.23847  0.23834  0.44853  1.0000
  H   H27       1.0  0.14525  0.21267  0.3964  1.0000
  H   H28       1.0  0.80627  0.3159599999999999  0.36457  1.0000
  H   H29       1.0  0.69531  0.30287  0.41089  1.0000
  H   H30       1.0  0.70478  0.24705  0.46298  1.0000
  H   H31       1.0  0.82552  0.20465  0.46822  1.0000
  H   H32       1.0  0.9359300000000002  0.21797  0.4221000000000001  1.0000
  H   H33       1.0  0.89422  0.01459  0.43188  1.0000
  H   H34       1.0  0.85139  0.00631  0.50368  1.0000
  H   H35       1.0  0.73114  0.9201799999999998  0.39652  1.0000
  H   H36       1.0  0.84888  0.93631  0.55449  1.0000
  H   H37       1.0  0.80972  0.9392599999999998  0.6272  1.0000
  H   H38       1.0  0.58704  0.98805  0.5925300000000002  1.0000
  H   H39       1.0  0.52258  0.03911  0.48161  1.0000
  H   H40       1.0  0.55225  0.9262999999999998  0.4133000000000001  1.0000
  H   H41       1.0  0.48002  0.95757  0.35610000000000014  1.0000
  H   H42       1.0  0.42872  0.02952  0.36129  1.0000
  H   H43       1.0  0.44842  0.07029  0.4244300000000001  1.0000
  H   H44       1.0  0.6084  0.8344799999999998  0.47205  1.0000
  H   H45       1.0  0.50854  0.7836099999999998  0.49584  1.0000
  H   H46       1.0  0.39399  0.80847  0.53485  1.0000
  H   H47       1.0  0.3789  0.8839799999999998  0.54976  1.0000
  H   H48       1.0  0.47711  0.93442  0.52534  1.0000
  H   H49       1.0  0.9436099999999998  0.07037  0.76939  1.0000
  H   H50       1.0  0.10111  0.9414599999999997  0.75747  1.0000
  H   H51       1.0  0.95582  0.9373399999999997  0.7569500000000001  1.0000
  H   H52       1.0  0.34913  0.0374  0.7082  1.0000
  H   H53       1.0  0.34031  0.9677599999999997  0.8187  1.0000
  H   H54       1.0  0.19523  0.9713799999999998  0.8171600000000002  1.0000
  H   H55       1.0  0.12436  0.14613999999999994  0.81563  1.0000
  H   H56       1.0  0.19602  0.21073  0.8348900000000002  1.0000
  H   H57       1.0  0.29883  0.23885  0.78963  1.0000
  H   H58       1.0  0.33158  0.20184999999999997  0.72576  1.0000
  H   H59       1.0  0.26023  0.13815999999999995  0.70685  1.0000
  H   H60       1.0  0.05005  0.14445  0.71042  1.0000
  H   H61       1.0  0.9950200000000001  0.18417999999999995  0.65328  1.0000
  H   H62       1.0  0.03592  0.16794  0.58304  1.0000
  H   H63       1.0  0.13091  0.11087  0.5703  1.0000
  H   H64       1.0  0.18579000000000004  0.07064  0.6281400000000001  1.0000
  H   H65       1.0  0.63096  0.83175  0.72404  1.0000
  H   H66       1.0  0.56816  0.7614  0.7224  1.0000
  H   H67       1.0  0.52873  0.8539499999999998  0.84029  1.0000
  H   H68       1.0  0.40899  0.7426799999999998  0.72923  1.0000
  H   H69       1.0  0.34833000000000003  0.6723899999999998  0.72195  1.0000
  H   H70       1.0  0.48923  0.62708  0.81927  1.0000
  H   H71       1.0  0.48697000000000007  0.6743199999999998  0.90995  1.0000
  H   H72       1.0  0.39352  0.64825  0.961  1.0000
  H   H73       1.0  0.28038  0.6916999999999998  0.98114  1.0000
  H   H74       1.0  0.26015  0.7612  0.94956  1.0000
  H   H75       1.0  0.35352  0.78683  0.89733  1.0000
  H   H76       1.0  0.69217  0.68342  0.86461  1.0000
  H   H77       1.0  0.80395  0.69677  0.91013  1.0000
  H   H78       1.0  0.79528  0.75292  0.9619500000000002  1.0000
  H   H79       1.0  0.67454  0.79526  0.96779  1.0000
  H   H80       1.0  0.56336  0.7816499999999997  0.92246  1.0000
  H   H81       1.0  0.60486  0.9862999999999997  0.93179  1.0000
  H   H82       1.0  0.6482600000000001  0.99449  0.00335  1.0000
  H   H83       1.0  0.76901  0.07987  0.8955000000000001  1.0000
  H   H84       1.0  0.6522500000000002  0.06457  0.05402  1.0000
  H   H85       1.0  0.6921  0.062299999999999994  0.1265  1.0000
  H   H86       1.0  0.91408  0.01282  0.09143  1.0000
  H   H87       1.0  0.9779300000000001  0.9605299999999998  0.98008  1.0000
  H   H88       1.0  0.94834  0.07372  0.91233  1.0000
  H   H89       1.0  0.02135  0.04296999999999999  0.85503  1.0000
  H   H90       1.0  0.07292  0.97105  0.8598800000000001  1.0000
  H   H91       1.0  0.052770000000000004  0.92982  0.92276  1.0000
  H   H92       1.0  0.89251  0.16554  0.97107  1.0000
  H   H93       1.0  0.9913799999999999  0.21633  0.99583  1.0000
  H   H94       1.0  0.10494  0.19128  0.0353  1.0000
  H   H95       1.0  0.12050000000000001  0.11560999999999998  0.04937  1.0000
  H   H96       1.0  0.02326  0.06523  0.02394  1.0000
  H   H97       1.0  0.44379  0.42945  0.23048  1.0000
  H   H98       1.0  0.60044  0.55842  0.24257  1.0000
  H   H99       1.0  0.45525  0.56241  0.24334999999999998  1.0000
  H   H100      1.0  0.8484100000000001  0.46265  0.29199  1.0000
  H   H101      1.0  0.84061  0.53226  0.18146000000000004  1.0000
  H   H102      1.0  0.69559  0.52855  0.1828  1.0000
  H   H103      1.0  0.62434  0.35382  0.18461  1.0000
  H   H104      1.0  0.6962700000000001  0.2892499999999999  0.16515  1.0000
  H   H105      1.0  0.79917  0.26111  0.21019  1.0000
  H   H106      1.0  0.83167  0.29803  0.27404  1.0000
  H   H107      1.0  0.76007  0.3616999999999999  0.29317  1.0000
  H   H108      1.0  0.54944  0.35561  0.28977  1.0000
  H   H109      1.0  0.49496999999999997  0.31566  0.34698  1.0000
  H   H110      1.0  0.53614  0.33171  0.41712  1.0000
  H   H111      1.0  0.63066  0.38889  0.4297  1.0000
  H   H112      1.0  0.685  0.4293399999999999  0.37183  1.0000
  H   H113      1.0  0.13065  0.6681499999999998  0.27606000000000014  1.0000
  H   H114      1.0  0.0677  0.7385199999999997  0.27797  1.0000
  H   H115      1.0  0.028370000000000003  0.6462  0.16  1.0000
  H   H116      1.0  0.9086200000000001  0.7575699999999997  0.27152  1.0000
  H   H117      1.0  0.8481  0.8280499999999997  0.27885  1.0000
  H   H118      1.0  0.98893  0.8728899999999998  0.18116  1.0000
  H   H119      1.0  0.98685  0.82564  0.09046000000000003  1.0000
  H   H120      1.0  0.89383  0.8516899999999997  0.0393  1.0000
  H   H121      1.0  0.78103  0.80822  0.019080000000000007  1.0000
  H   H122      1.0  0.76062  0.7387599999999998  0.05075  1.0000
  H   H123      1.0  0.85356  0.7131799999999998  0.1031  1.0000
  H   H124      1.0  0.19179  0.81643  0.13562  1.0000
  H   H125      1.0  0.30368  0.8032  0.08988  1.0000
  H   H126      1.0  0.29519  0.7471699999999998  0.03792  1.0000
  H   H127      1.0  0.17463  0.7048  0.03224  1.0000
  H   H128      1.0  0.06335  0.71831  0.0778  1.0000
  H   H129      1.0  0.10663  0.51439  0.06862  1.0000
  H   H130      1.0  0.14881  0.50652  0.99681  1.0000
  H   H131      1.0  0.27049  0.4201  0.10344  1.0000
  H   H132      1.0  0.15059  0.43704  0.94565  1.0000
  H   H133      1.0  0.18953  0.43858999999999987  0.8729700000000001  1.0000
  H   H134      1.0  0.41271  0.4869999999999999  0.9065  1.0000
  H   H135      1.0  0.47787  0.53904  0.01767  1.0000
  H   H136      1.0  0.44842  0.42614999999999986  0.08587  1.0000
  H   H137      1.0  0.51955  0.45748  0.14337000000000005  1.0000
  H   H138      1.0  0.57009  0.52958  0.13835  1.0000
  H   H139      1.0  0.55108  0.57035  0.07509  1.0000
  H   H140      1.0  0.39265  0.33431  0.02777  1.0000
  H   H141      1.0  0.49249000000000004  0.28331  0.00402  1.0000
  H   H142      1.0  0.60686  0.308  0.9648399999999999  1.0000
  H   H143      1.0  0.62213  0.38349  0.94994  1.0000
  H   H144      1.0  0.52388  0.43405  0.97425  1.0000
  H   H145      1.0  0.05548000000000001  0.57124  0.7293400000000002  1.0000
  H   H146      1.0  0.9005  0.4419299999999999  0.74376  1.0000
  H   H147      1.0  0.04577  0.43829  0.74244  1.0000
  H   H148      1.0  0.65148  0.5374099999999998  0.79322  1.0000
  H   H149      1.0  0.66022  0.46761999999999987  0.68276  1.0000
  H   H150      1.0  0.80531  0.47131  0.68419  1.0000
  H   H151      1.0  0.87548  0.6461  0.68506  1.0000
  H   H152      1.0  0.80328  0.7104999999999998  0.66541  1.0000
  H   H153      1.0  0.70003  0.7385999999999998  0.71048  1.0000
  H   H154      1.0  0.66756  0.70187  0.7745400000000001  1.0000
  H   H155      1.0  0.7396300000000001  0.6383599999999998  0.79381  1.0000
  H   H156      1.0  0.95047  0.6447799999999998  0.78979  1.0000
  H   H157      1.0  0.005569999999999999  0.68481  0.8466500000000001  1.0000
  H   H158      1.0  0.96508  0.66895  0.91701  1.0000
  H   H159      1.0  0.87064  0.61181  0.93017  1.0000
  H   H160      1.0  0.81565  0.57127  0.87265  1.0000
  H   H161      1.0  0.36671  0.3317999999999999  0.7765  1.0000
  H   H162      1.0  0.43033  0.26154  0.7783500000000002  1.0000
  H   H163      1.0  0.46947999999999995  0.35381  0.66031  1.0000
  H   H164      1.0  0.5902  0.24275  0.7712000000000002  1.0000
  H   H165      1.0  0.65102  0.17230999999999994  0.77843  1.0000
  H   H166      1.0  0.50938  0.12733  0.68131  1.0000
  H   H167      1.0  0.5117  0.17501999999999995  0.59099  1.0000
  H   H168      1.0  0.60505  0.1486  0.53997  1.0000
  H   H169      1.0  0.71832  0.19183  0.51973  1.0000
  H   H170      1.0  0.73895  0.26129999999999987  0.5512400000000002  1.0000
  H   H171      1.0  0.6455800000000002  0.28722  0.6034300000000002  1.0000
  H   H172      1.0  0.30666  0.18394  0.63546  1.0000
  H   H173      1.0  0.19573000000000002  0.19711  0.58929  1.0000
  H   H174      1.0  0.20522  0.25304  0.53726  1.0000
  H   H175      1.0  0.32593  0.29537  0.53186  1.0000
  H   H176      1.0  0.43627  0.28196  0.5778500000000002  1.0000
  H   H177      1.0  0.39469  0.48541  0.5678  1.0000
  H   H178      1.0  0.35147000000000006  0.4933799999999999  0.4961400000000001  1.0000
  H   H179      1.0  0.23113  0.57962  0.60351  1.0000
  H   H180      1.0  0.3484  0.56362  0.44538  1.0000
  H   H181      1.0  0.3085  0.56226  0.37285  1.0000
  H   H182      1.0  0.08612  0.5131  0.4076300000000001  1.0000
  H   H183      1.0  0.02214  0.46071  0.51878  1.0000
  H   H184      1.0  0.05226  0.57362  0.58679  1.0000
  H   H185      1.0  0.97992  0.54266  0.64423  1.0000
  H   H186      1.0  0.92837  0.4707899999999999  0.63927  1.0000
  H   H187      1.0  0.94789  0.42979  0.5762  1.0000
  H   H188      1.0  0.1082  0.66535  0.52808  1.0000
  H   H189      1.0  0.00862  0.71634  0.50417  1.0000
  H   H190      1.0  0.8943500000000002  0.6915799999999998  0.46517  1.0000
  H   H191      1.0  0.8791100000000002  0.61606  0.45046  1.0000
  H   H192      1.0  0.9770500000000001  0.5655099999999997  0.475  1.0000
  C   C1        1.0  0.64523  0.99917  0.26171  1.0000
  C   C2        1.0  0.55864  0.9966199999999998  0.26176  1.0000
  C   C3        1.0  0.52161  0.958  0.26576  1.0000
  C   C4        1.0  0.39535  0.99202  0.26156  1.0000
  C   C5        1.0  0.43362  0.03052  0.25877  1.0000
  C   C6        1.0  0.51423  0.03309  0.25843  1.0000
  C   C7        1.0  0.30934  0.99144  0.26248  1.0000
  C   C8        1.0  0.26552  0.9714499999999998  0.23202000000000006  1.0000
  C   C9        1.0  0.18463  0.9762199999999998  0.23138  1.0000
  C   C10       1.0  0.14637  0.99752  0.26233  1.0000
  C   C11       1.0  0.18917  0.01609  0.29342  1.0000
  C   C12       1.0  0.26984  0.013770000000000001  0.29262  1.0000
  C   C13       1.0  0.06001  0.0008799999999999998  0.2618  1.0000
  C   C14       1.0  0.4403  0.95519  0.26511  1.0000
  C   C15       1.0  0.356  0.90009  0.24832000000000004  1.0000
  C   C16       1.0  0.31303  0.86206  0.25952  1.0000
  C   C17       1.0  0.3301  0.8413399999999998  0.29584  1.0000
  C   C18       1.0  0.28969  0.80544  0.30645  1.0000
  C   C19       1.0  0.23152  0.7897999999999997  0.28114000000000006  1.0000
  C   C20       1.0  0.21348  0.81034  0.24523999999999999  1.0000
  C   C21       1.0  0.25417000000000006  0.84626  0.23445  1.0000
  C   C22       1.0  0.34313  0.91756  0.20653  1.0000
  C   C23       1.0  0.37887000000000004  0.8947599999999998  0.17255  1.0000
  C   C24       1.0  0.43296  0.8627599999999997  0.17962  1.0000
  C   C25       1.0  0.46419  0.84017  0.1475  1.0000
  C   C26       1.0  0.44159  0.84917  0.10804  1.0000
  C   C27       1.0  0.38824  0.88129  0.10071000000000002  1.0000
  C   C28       1.0  0.35717  0.904  0.13266  1.0000
  C   C29       1.0  0.8812  0.11034  0.28259  1.0000
  C   C30       1.0  0.91347  0.15339  0.28215  1.0000
  C   C31       1.0  0.90176  0.17945  0.24876000000000004  1.0000
  C   C32       1.0  0.9365999999999999  0.21855  0.24795  1.0000
  C   C33       1.0  0.9799900000000001  0.23336999999999994  0.28074  1.0000
  C   C34       1.0  0.9894999999999999  0.2073  0.31483  1.0000
  C   C35       1.0  0.9587  0.16699999999999995  0.3145100000000001  1.0000
  C   C36       1.0  0.01773  0.27481  0.27842  1.0000
  C   C37       1.0  0.07361  0.28272999999999987  0.24850000000000003  1.0000
  C   C38       1.0  0.10774000000000003  0.32179  0.24443  1.0000
  C   C39       1.0  0.0847  0.3542899999999999  0.27006  1.0000
  C   C40       1.0  0.02817  0.34719  0.2996  1.0000
  C   C41       1.0  0.99585  0.30756  0.30466  1.0000
  C   C42       1.0  0.01859  0.25193  0.36847  1.0000
  C   C43       1.0  0.07237  0.26693  0.3998  1.0000
  C   C44       1.0  0.06106  0.30604  0.4179  1.0000
  C   C45       1.0  0.11359  0.32075  0.44655  1.0000
  C   C46       1.0  0.17729  0.29637  0.45768  1.0000
  C   C47       1.0  0.1888  0.25727  0.43987  1.0000
  C   C48       1.0  0.13701  0.24268  0.4109800000000001  1.0000
  C   C49       1.0  0.9435000000000001  0.27566  0.3621  1.0000
  C   C50       1.0  0.87845  0.26804  0.39021  1.0000
  C   C51       1.0  0.8098200000000002  0.29179  0.38744  1.0000
  C   C52       1.0  0.74794  0.28429  0.41348  1.0000
  C   C53       1.0  0.75334  0.2529099999999999  0.44271  1.0000
  C   C54       1.0  0.82114  0.22917  0.44571  1.0000
  C   C55       1.0  0.88345  0.23668  0.41970000000000013  1.0000
  C   C56       1.0  0.11764000000000001  0.3969299999999999  0.26501000000000013  1.0000
  C   C57       1.0  0.83437  0.97518  0.36689  1.0000
  C   C58       1.0  0.81421  0.96832  0.41001  1.0000
  C   C59       1.0  0.8496  0.99226  0.44016  1.0000
  C   C60       1.0  0.82566  0.98754  0.47993  1.0000
  C   C61       1.0  0.76556  0.95998  0.49022  1.0000
  C   C62       1.0  0.75712  0.93907  0.42005  1.0000
  C   C63       1.0  0.73882  0.95817  0.53258  1.0000
  C   C64       1.0  0.79101  0.9467  0.56307  1.0000
  C   C65       1.0  0.66315  0.9719399999999998  0.54326  1.0000
  C   C66       1.0  0.76973  0.9482899999999997  0.60345  1.0000
  C   C67       1.0  0.6433400000000001  0.9754299999999998  0.58407  1.0000
  C   C68       1.0  0.69574  0.9630899999999998  0.61397  1.0000
  C   C69       1.0  0.67509  0.9677199999999998  0.65729  1.0000
  C   C70       1.0  0.5884400000000001  0.9634699999999998  0.48473999999999995  1.0000
  C   C71       1.0  0.51229  0.02163  0.45407  1.0000
  C   C72       1.0  0.54199  0.98085  0.45138  1.0000
  C   C73       1.0  0.5293500000000001  0.95778  0.4159200000000001  1.0000
  C   C74       1.0  0.48883  0.97531  0.3836400000000001  1.0000
  C   C75       1.0  0.45983  0.01584  0.3866  1.0000
  C   C76       1.0  0.47130000000000005  0.038819999999999986  0.42199  1.0000
  C   C77       1.0  0.7315  0.9351799999999998  0.4598300000000001  1.0000
  C   C78       1.0  0.60844  0.91761  0.48313000000000006  1.0000
  C   C79       1.0  0.54916  0.88763  0.49689000000000005  1.0000
  C   C80       1.0  0.5576900000000001  0.84481  0.48889  1.0000
  C   C81       1.0  0.50193  0.81662  0.50235  1.0000
  C   C82       1.0  0.43732  0.8305999999999998  0.52427  1.0000
  C   C83       1.0  0.4286600000000001  0.8730099999999997  0.53254  1.0000
  C   C84       1.0  0.48397000000000007  0.9014399999999998  0.51874  1.0000
  C   C85       1.0  0.85444  0.0008799999999999997  0.76197  1.0000
  C   C86       1.0  0.94105  0.003559999999999999  0.7623400000000002  1.0000
  C   C87       1.0  0.9780700000000001  0.0422  0.7661100000000002  1.0000
  C   C88       1.0  0.10437  0.00808  0.76242  1.0000
  C   C89       1.0  0.06608  0.9695599999999998  0.75983  1.0000
  C   C90       1.0  0.98547  0.9670499999999997  0.75941  1.0000
  C   C91       1.0  0.19035  0.00869  0.7635100000000002  1.0000
  C   C92       1.0  0.23459000000000002  0.02865  0.7331100000000002  1.0000
  C   C93       1.0  0.31548  0.023939999999999993  0.73266  1.0000
  C   C94       1.0  0.35342  0.00268  0.76367  1.0000
  C   C95       1.0  0.31021  0.9842199999999998  0.7947700000000002  1.0000
  C   C96       1.0  0.22954  0.9864899999999998  0.79381  1.0000
  C   C97       1.0  0.4397500000000001  0.9990899999999999  0.7629300000000002  1.0000
  C   C98       1.0  0.05942  0.044959999999999986  0.76562  1.0000
  C   C99       1.0  0.14399  0.10007999999999997  0.74879  1.0000
  C   C100      1.0  0.18681  0.13814999999999994  0.75997  1.0000
  C   C101      1.0  0.16961  0.15884  0.79632  1.0000
  C   C102      1.0  0.20986  0.19478999999999994  0.80687  1.0000
  C   C103      1.0  0.26797  0.21054  0.78146  1.0000
  C   C104      1.0  0.28622  0.18999999999999995  0.74556  1.0000
  C   C105      1.0  0.24571  0.15403  0.73483  1.0000
  C   C106      1.0  0.15743  0.08243999999999997  0.7070900000000002  1.0000
  C   C107      1.0  0.12201  0.10499  0.6729  1.0000
  C   C108      1.0  0.06782  0.13701999999999995  0.67978  1.0000
  C   C109      1.0  0.03672  0.15942  0.64755  1.0000
  C   C110      1.0  0.05956  0.15019  0.60813  1.0000
  C   C111      1.0  0.11307  0.11808  0.60098  1.0000
  C   C112      1.0  0.14398  0.09554999999999997  0.63305  1.0000
  C   C113      1.0  0.61806  0.8896  0.7828500000000003  1.0000
  C   C114      1.0  0.5848600000000002  0.8467  0.78263  1.0000
  C   C115      1.0  0.59632  0.82062  0.74923  1.0000
  C   C116      1.0  0.56168  0.7814899999999998  0.74858  1.0000
  C   C117      1.0  0.51886  0.7665699999999998  0.78161  1.0000
  C   C118      1.0  0.50935  0.79266  0.8157000000000002  1.0000
  C   C119      1.0  0.53977  0.83309  0.81515  1.0000
  C   C120      1.0  0.48127000000000003  0.7251  0.77919  1.0000
  C   C121      1.0  0.42573  0.7173199999999997  0.74916  1.0000
  C   C122      1.0  0.39159  0.6783  0.74502  1.0000
  C   C123      1.0  0.41402  0.64568  0.7706400000000002  1.0000
  C   C124      1.0  0.47040000000000004  0.65263  0.80017  1.0000
  C   C125      1.0  0.50295  0.69219  0.80525  1.0000
  C   C126      1.0  0.48028000000000004  0.74767  0.86923  1.0000
  C   C127      1.0  0.42641  0.73258  0.90063  1.0000
  C   C128      1.0  0.43763  0.6934699999999998  0.9187700000000002  1.0000
  C   C129      1.0  0.385  0.6787699999999998  0.9475  1.0000
  C   C130      1.0  0.32128000000000007  0.70316  0.95869  1.0000
  C   C131      1.0  0.30983  0.74226  0.9408600000000001  1.0000
  C   C132      1.0  0.36172000000000004  0.75682  0.9119  1.0000
  C   C133      1.0  0.55529  0.7238799999999997  0.86263  1.0000
  C   C134      1.0  0.6205  0.7315  0.89048  1.0000
  C   C135      1.0  0.68904  0.70771  0.8873800000000002  1.0000
  C   C136      1.0  0.7513400000000001  0.7153399999999998  0.91299  1.0000
  C   C137      1.0  0.74638  0.7468799999999998  0.9420600000000002  1.0000
  C   C138      1.0  0.6786  0.7706099999999998  0.9454000000000002  1.0000
  C   C139      1.0  0.61586  0.76297  0.91984  1.0000
  C   C140      1.0  0.3808  0.60311  0.7653800000000001  1.0000
  C   C141      1.0  0.6655200000000001  0.02511  0.86633  1.0000
  C   C142      1.0  0.68553  0.03209  0.90942  1.0000
  C   C143      1.0  0.64994  0.00843  0.93981  1.0000
  C   C144      1.0  0.6742  0.01312  0.9795000000000001  1.0000
  C   C145      1.0  0.73485  0.04040999999999999  0.9895100000000001  1.0000
  C   C146      1.0  0.74301  0.061139999999999986  0.9192000000000001  1.0000
  C   C147      1.0  0.76195  0.04237  0.03177  1.0000
  C   C148      1.0  0.71021  0.05424  0.06240999999999999  1.0000
  C   C149      1.0  0.83763  0.02859  0.04228  1.0000
  C   C150      1.0  0.73189  0.05298999999999999  0.10272  1.0000
  C   C151      1.0  0.8578  0.02540999999999999  0.08302  1.0000
  C   C152      1.0  0.8057300000000002  0.03793  0.11306  1.0000
  C   C153      1.0  0.82638  0.03264  0.15625  1.0000
  C   C154      1.0  0.91213  0.03645  0.9835200000000001  1.0000
  C   C155      1.0  0.98833  0.9782099999999998  0.9526400000000002  1.0000
  C   C156      1.0  0.9585700000000001  0.01899  0.95012  1.0000
  C   C157      1.0  0.9713899999999999  0.04226  0.91477  1.0000
  C   C158      1.0  0.012309999999999998  0.025009999999999994  0.8824400000000002  1.0000
  C   C159      1.0  0.04149000000000001  0.9844999999999998  0.88524  1.0000
  C   C160      1.0  0.02972  0.9612699999999997  0.92049  1.0000
  C   C161      1.0  0.76899  0.06499  0.95887  1.0000
  C   C162      1.0  0.8923300000000002  0.08233  0.98178  1.0000
  C   C163      1.0  0.95148  0.11224  0.99571  1.0000
  C   C164      1.0  0.9428799999999999  0.15512  0.9880500000000001  1.0000
  C   C165      1.0  0.9981  0.18327  0.00205  1.0000
  C   C166      1.0  0.06221000000000001  0.16915999999999995  0.02419  1.0000
  C   C167      1.0  0.07105  0.12667  0.03204  1.0000
  C   C168      1.0  0.01629  0.09828  0.01768  1.0000
  C   C169      1.0  0.35431  0.49890000000000007  0.23812  1.0000
  C   C170      1.0  0.44088  0.49621  0.23774  1.0000
  C   C171      1.0  0.47813  0.45761  0.23382  1.0000
  C   C172      1.0  0.6042  0.4918  0.23743  1.0000
  C   C173      1.0  0.56567  0.53028  0.24017  1.0000
  C   C174      1.0  0.48506  0.53273  0.24074000000000004  1.0000
  C   C175      1.0  0.6902300000000002  0.4912299999999999  0.23644  1.0000
  C   C176      1.0  0.73418  0.4713  0.26691  1.0000
  C   C177      1.0  0.81504  0.4760699999999999  0.26745  1.0000
  C   C178      1.0  0.85326  0.49732  0.23648  1.0000
  C   C179      1.0  0.81031  0.51579  0.20535  1.0000
  C   C180      1.0  0.72965  0.51345  0.2062  1.0000
  C   C181      1.0  0.93963  0.50088  0.23714  1.0000
  C   C182      1.0  0.55946  0.45490999999999987  0.23422  1.0000
  C   C183      1.0  0.64383  0.39984  0.25123  1.0000
  C   C184      1.0  0.6867500000000001  0.3617299999999999  0.24014  1.0000
  C   C185      1.0  0.66963  0.34107  0.20381  1.0000
  C   C186      1.0  0.71002  0.30514999999999987  0.19316  1.0000
  C   C187      1.0  0.76818  0.2894  0.21845  1.0000
  C   C188      1.0  0.78627  0.3099  0.25435  1.0000
  C   C189      1.0  0.74563  0.3458499999999999  0.26519  1.0000
  C   C190      1.0  0.65681  0.4175599999999999  0.2929200000000001  1.0000
  C   C191      1.0  0.62134  0.3949999999999999  0.32715  1.0000
  C   C192      1.0  0.5673  0.3629599999999999  0.32037  1.0000
  C   C193      1.0  0.53651  0.34044999999999986  0.35264  1.0000
  C   C194      1.0  0.55946  0.3496  0.39201000000000014  1.0000
  C   C195      1.0  0.61274  0.38176  0.39906000000000014  1.0000
  C   C196      1.0  0.64337  0.40439999999999987  0.36695  1.0000
  C   C197      1.0  0.11801000000000002  0.6104199999999997  0.21715  1.0000
  C   C198      1.0  0.0846  0.6533199999999998  0.21753  1.0000
  C   C199      1.0  0.096  0.67933  0.25096  1.0000
  C   C200      1.0  0.06121  0.71845  0.25179  1.0000
  C   C201      1.0  0.01825  0.73341  0.21890000000000007  1.0000
  C   C202      1.0  0.0088  0.70741  0.18477000000000005  1.0000
  C   C203      1.0  0.03936  0.66699  0.18517000000000006  1.0000
  C   C204      1.0  0.98078  0.7749399999999997  0.2214  1.0000
  C   C205      1.0  0.92531  0.78288  0.25153  1.0000
  C   C206      1.0  0.89126  0.8219699999999998  0.25568  1.0000
  C   C207      1.0  0.91375  0.85447  0.22995000000000004  1.0000
  C   C208      1.0  0.97007  0.8473799999999998  0.20031  1.0000
  C   C209      1.0  0.00254  0.80776  0.19525  1.0000
  C   C210      1.0  0.9799500000000001  0.75234  0.13122  1.0000
  C   C211      1.0  0.9263400000000003  0.76743  0.09977  1.0000
  C   C212      1.0  0.93763  0.80651  0.0816  1.0000
  C   C213      1.0  0.88526  0.82118  0.0528  1.0000
  C   C214      1.0  0.82173  0.79677  0.04158  1.0000
  C   C215      1.0  0.81018  0.7576999999999998  0.05946000000000001  1.0000
  C   C216      1.0  0.86182  0.7431799999999997  0.08849  1.0000
  C   C217      1.0  0.055  0.77601  0.13776  1.0000
  C   C218      1.0  0.12028000000000001  0.7684199999999998  0.1098  1.0000
  C   C219      1.0  0.18877  0.7921999999999998  0.11279  1.0000
  C   C220      1.0  0.25112  0.78463  0.08705  1.0000
  C   C221      1.0  0.24624999999999997  0.75314  0.05793  1.0000
  C   C222      1.0  0.17854  0.72941  0.05467000000000002  1.0000
  C   C223      1.0  0.11577000000000001  0.737  0.08037  1.0000
  C   C224      1.0  0.8805000000000001  0.8970999999999998  0.23507000000000003  1.0000
  C   C225      1.0  0.16644  0.4750299999999999  0.13354  1.0000
  C   C226      1.0  0.18706  0.4683  0.09035000000000003  1.0000
  C   C227      1.0  0.15139  0.4921699999999999  0.0602  1.0000
  C   C228      1.0  0.17506  0.4876  0.02035  1.0000
  C   C229      1.0  0.23523000000000002  0.4600799999999999  0.0098  1.0000
  C   C230      1.0  0.2443  0.43915  0.08008000000000001  1.0000
  C   C231      1.0  0.26137  0.4581499999999999  0.96727  1.0000
  C   C232      1.0  0.20876  0.44682  0.93692  1.0000
  C   C233      1.0  0.33714  0.4714  0.9561500000000003  1.0000
  C   C234      1.0  0.22982999999999998  0.44786  0.89643  1.0000
  C   C235      1.0  0.35645  0.47462  0.91524  1.0000
  C   C236      1.0  0.30371  0.4624499999999999  0.88545  1.0000
  C   C237      1.0  0.32416  0.46750999999999987  0.8420200000000002  1.0000
  C   C238      1.0  0.41246  0.4632399999999999  0.014540000000000004  1.0000
  C   C239      1.0  0.488  0.52158  0.04525  1.0000
  C   C240      1.0  0.45864  0.48077  0.04789  1.0000
  C   C241      1.0  0.47107000000000004  0.45767  0.08338  1.0000
  C   C242      1.0  0.51096  0.4752399999999999  0.11581000000000002  1.0000
  C   C243      1.0  0.53956  0.51585  0.11292000000000003  1.0000
  C   C244      1.0  0.52843  0.53884  0.07747  1.0000
  C   C245      1.0  0.26962  0.43527  0.04018  1.0000
  C   C246      1.0  0.39249  0.4174199999999999  0.01655  1.0000
  C   C247      1.0  0.45176  0.38735999999999987  0.0027700000000000008  1.0000
  C   C248      1.0  0.44328000000000006  0.34455999999999987  0.01083  1.0000
  C   C249      1.0  0.4990200000000001  0.3163  0.99741  1.0000
  C   C250      1.0  0.56361  0.33019  0.97544  1.0000
  C   C251      1.0  0.57228  0.3725799999999999  0.9671100000000001  1.0000
  C   C252      1.0  0.51694  0.40108  0.98087  1.0000
  C   C253      1.0  0.1457  0.50267  0.73639  1.0000
  C   C254      1.0  0.05924000000000001  0.50464  0.7367400000000001  1.0000
  C   C255      1.0  0.02149  0.54303  0.7332  1.0000
  C   C256      1.0  0.89605  0.50844  0.73826  1.0000
  C   C257      1.0  0.9350300000000001  0.47011  0.7408300000000002  1.0000
  C   C258      1.0  0.01567  0.46792  0.74036  1.0000
  C   C259      1.0  0.81005  0.50881  0.73768  1.0000
  C   C260      1.0  0.76594  0.52879  0.76814  1.0000
  C   C261      1.0  0.68505  0.52399  0.76869  1.0000
  C   C262      1.0  0.64714  0.50262  0.73772  1.0000
  C   C263      1.0  0.69034  0.4841  0.7066500000000002  1.0000
  C   C264      1.0  0.77097  0.48647  0.70751  1.0000
  C   C265      1.0  0.56078  0.49918  0.73819  1.0000
  C   C266      1.0  0.9402400000000001  0.5454  0.73438  1.0000
  C   C267      1.0  0.85583  0.6003  0.75177  1.0000
  C   C268      1.0  0.81287  0.6383399999999998  0.7406700000000002  1.0000
  C   C269      1.0  0.8301  0.6589  0.70426  1.0000
  C   C270      1.0  0.78955  0.6947  0.69352  1.0000
  C   C271      1.0  0.73116  0.7104  0.71881  1.0000
  C   C272      1.0  0.71313  0.69005  0.75485  1.0000
  C   C273      1.0  0.7539700000000001  0.65421  0.76578  1.0000
  C   C274      1.0  0.84326  0.5827599999999997  0.7936000000000002  1.0000
  C   C275      1.0  0.8789400000000002  0.60547  0.82759  1.0000
  C   C276      1.0  0.9329300000000001  0.63749  0.8204900000000003  1.0000
  C   C277      1.0  0.9640200000000001  0.66007  0.85257  1.0000
  C   C278      1.0  0.94143  0.6510199999999998  0.89207  1.0000
  C   C279      1.0  0.88821  0.6188799999999998  0.8994300000000002  1.0000
  C   C280      1.0  0.85729  0.59617  0.86751  1.0000
  C   C281      1.0  0.38108  0.3898  0.7174100000000002  1.0000
  C   C282      1.0  0.4132600000000001  0.3466999999999999  0.71793  1.0000
  C   C283      1.0  0.40159  0.32069  0.75137  1.0000
  C   C284      1.0  0.43661000000000005  0.2815999999999999  0.75213  1.0000
  C   C285      1.0  0.47988000000000003  0.2667199999999999  0.71923  1.0000
  C   C286      1.0  0.48927  0.29274  0.68511  1.0000
  C   C287      1.0  0.45852  0.3330499999999999  0.68551  1.0000
  C   C288      1.0  0.51765  0.22526999999999994  0.7214900000000002  1.0000
  C   C289      1.0  0.57343  0.21734999999999993  0.75137  1.0000
  C   C290      1.0  0.60758  0.17827999999999994  0.75544  1.0000
  C   C291      1.0  0.58477  0.14576  0.72984  1.0000
  C   C292      1.0  0.5283  0.15286  0.70037  1.0000
  C   C293      1.0  0.4959100000000001  0.1925  0.6953  1.0000
  C   C294      1.0  0.51864  0.24812  0.6314900000000002  1.0000
  C   C295      1.0  0.57252  0.23309  0.60011  1.0000
  C   C296      1.0  0.56115  0.19399  0.5820700000000002  1.0000
  C   C297      1.0  0.61369  0.17913  0.55338  1.0000
  C   C298      1.0  0.67749  0.20339999999999994  0.54216  1.0000
  C   C299      1.0  0.68914  0.24249  0.55994  1.0000
  C   C300      1.0  0.63729  0.25722  0.58887  1.0000
  C   C301      1.0  0.4436  0.22437  0.63793  1.0000
  C   C302      1.0  0.37872  0.23192  0.60981  1.0000
  C   C303      1.0  0.31017  0.20814999999999995  0.61261  1.0000
  C   C304      1.0  0.24833000000000002  0.21568999999999994  0.58664  1.0000
  C   C305      1.0  0.25377  0.24710999999999994  0.55744  1.0000
  C   C306      1.0  0.32154  0.27083  0.55436  1.0000
  C   C307      1.0  0.3837900000000001  0.26328  0.5803100000000002  1.0000
  C   C308      1.0  0.61768  0.10309  0.73495  1.0000
  C   C309      1.0  0.33466  0.5247599999999998  0.63301  1.0000
  C   C310      1.0  0.31431  0.5314699999999998  0.5899000000000001  1.0000
  C   C311      1.0  0.34976  0.5075999999999998  0.55963  1.0000
  C   C312      1.0  0.32561  0.5121899999999998  0.5199  1.0000
  C   C313      1.0  0.26523  0.5396599999999998  0.50973  1.0000
  C   C314      1.0  0.257  0.56065  0.57995  1.0000
  C   C315      1.0  0.23843  0.5417299999999998  0.46742  1.0000
  C   C316      1.0  0.2903600000000001  0.55359  0.43688  1.0000
  C   C317      1.0  0.16263  0.52836  0.45679  1.0000
  C   C318      1.0  0.26868  0.5527499999999997  0.39655  1.0000
  C   C319      1.0  0.14253  0.52544  0.41604  1.0000
  C   C320      1.0  0.19472  0.538  0.38609  1.0000
  C   C321      1.0  0.17371  0.5332599999999997  0.34284  1.0000
  C   C322      1.0  0.088  0.5364  0.51544  1.0000
  C   C323      1.0  0.011910000000000002  0.47826999999999986  0.54631  1.0000
  C   C324      1.0  0.04170000000000001  0.519  0.54889  1.0000
  C   C325      1.0  0.029180000000000008  0.5421799999999999  0.58432  1.0000
  C   C326      1.0  0.9886600000000001  0.5248199999999997  0.61672  1.0000
  C   C327      1.0  0.9595400000000001  0.48432  0.61388  1.0000
  C   C328      1.0  0.9709  0.4612199999999999  0.57851  1.0000
  C   C329      1.0  0.23116  0.56447  0.54023  1.0000
  C   C330      1.0  0.10804  0.58221  0.51715  1.0000
  C   C331      1.0  0.04895  0.6122699999999998  0.50336  1.0000
  C   C332      1.0  0.05757000000000001  0.6550899999999997  0.5112500000000001  1.0000
  C   C333      1.0  0.00199  0.6833299999999998  0.49772  1.0000
  C   C334      1.0  0.93751  0.6694  0.47581000000000007  1.0000
  C   C335      1.0  0.9288  0.62699  0.46764  1.0000
  C   C336      1.0  0.98393  0.5985  0.48151  1.0000
  N   N1        1.0  0.40441  0.91681  0.27323  1.0000
  N   N2        1.0  0.67502  0.9050699999999998  0.4698500000000001  1.0000
  N   N3        1.0  0.30066  0.9499699999999998  0.19986  1.0000
  N   N4        1.0  0.03644  0.21958  0.34728  1.0000
  N   N5        1.0  0.9359100000000001  0.30217  0.33309  1.0000
  N   N6        1.0  0.61155  0.98709  0.51389  1.0000
  N   N7        1.0  0.0953  0.08336  0.7736700000000002  1.0000
  N   N8        1.0  0.82582  0.09495  0.96858  1.0000
  N   N9        1.0  0.19993  0.04996  0.70075  1.0000
  N   N10       1.0  0.4627200000000001  0.78027  0.84833  1.0000
  N   N11       1.0  0.56291  0.69742  0.8335800000000002  1.0000
  N   N12       1.0  0.88895  0.013049999999999997  0.012870000000000001  1.0000
  N   N13       1.0  0.59547  0.41649999999999987  0.22622  1.0000
  N   N14       1.0  0.32604000000000005  0.40505  0.030120000000000008  1.0000
  N   N15       1.0  0.69932  0.44998  0.29926  1.0000
  N   N16       1.0  0.9621399999999999  0.71986  0.15223  1.0000
  N   N17       1.0  0.06254  0.8024199999999998  0.16685000000000005  1.0000
  N   N18       1.0  0.38934000000000013  0.48661  0.98519  1.0000
  N   N19       1.0  0.90372  0.5836  0.72649  1.0000
  N   N20       1.0  0.17461  0.59461  0.53041  1.0000
  N   N21       1.0  0.80083  0.5503399999999998  0.80026  1.0000
  N   N22       1.0  0.5363  0.2804899999999999  0.6526  1.0000
  N   N23       1.0  0.43605000000000005  0.1978  0.66691  1.0000
  N   N24       1.0  0.11108  0.51293  0.48613  1.0000
  O   O1        1.0  0.85197  0.00404  0.26132  1.0000
  O   O2        1.0  0.6754  0.03532  0.25678  1.0000
  O   O3        1.0  0.026759999999999996  0.99364  0.22808  1.0000
  O   O4        1.0  0.68226  0.9649599999999998  0.26657  1.0000
  O   O5        1.0  0.02685  0.01069  0.29497  1.0000
  O   O6        1.0  0.8282799999999999  0.10218999999999998  0.25666  1.0000
  O   O7        1.0  0.90943  0.08524  0.30865  1.0000
  O   O8        1.0  0.16742  0.40203  0.23665  1.0000
  O   O9        1.0  0.09347  0.42503999999999986  0.28918  1.0000
  O   O10       1.0  0.88705  0.00223  0.35924  1.0000
  O   O11       1.0  0.79646  0.95401  0.34101  1.0000
  O   O12       1.0  0.61229  0.98752  0.66539  1.0000
  O   O13       1.0  0.72226  0.9521199999999997  0.68285  1.0000
  O   O14       1.0  0.64825  0.99604  0.7617500000000001  1.0000
  O   O15       1.0  0.82454  0.96456  0.75792  1.0000
  O   O16       1.0  0.473  0.006289999999999998  0.72915  1.0000
  O   O17       1.0  0.81717  0.03518  0.76561  1.0000
  O   O18       1.0  0.47296  0.9890699999999998  0.79598  1.0000
  O   O19       1.0  0.6684900000000001  0.89784  0.75557  1.0000
  O   O20       1.0  0.59358  0.91461  0.80999  1.0000
  O   O21       1.0  0.33277999999999996  0.59809  0.7363100000000002  1.0000
  O   O22       1.0  0.40287  0.57499  0.79004  1.0000
  O   O23       1.0  0.6129800000000001  0.9979999999999999  0.85882  1.0000
  O   O24       1.0  0.70351  0.046159999999999986  0.8403  1.0000
  O   O25       1.0  0.88692  0.01073  0.16397  1.0000
  O   O26       1.0  0.78137  0.04976999999999999  0.18202  1.0000
  O   O27       1.0  0.14822  0.50399  0.23828  1.0000
  O   O28       1.0  0.32448  0.5352799999999998  0.24219  1.0000
  O   O29       1.0  0.9728  0.49372  0.2709  1.0000
  O   O30       1.0  0.3171  0.46466  0.23443  1.0000
  O   O31       1.0  0.9729600000000002  0.51085  0.20406  1.0000
  O   O32       1.0  0.16849  0.60219  0.24429000000000003  1.0000
  O   O33       1.0  0.09358  0.58542  0.19003  1.0000
  O   O34       1.0  0.8325  0.90235  0.26422  1.0000
  O   O35       1.0  0.90257  0.9249699999999997  0.21010000000000004  1.0000
  O   O36       1.0  0.11344  0.50197  0.14111  1.0000
  O   O37       1.0  0.20405000000000004  0.45384999999999986  0.15957  1.0000
  O   O38       1.0  0.38686  0.48745  0.83411  1.0000
  O   O39       1.0  0.27717  0.45217  0.81622  1.0000
  O   O40       1.0  0.35219  0.49691  0.73738  1.0000
  O   O41       1.0  0.17634  0.4664099999999999  0.7392400000000002  1.0000
  O   O42       1.0  0.52711  0.50635  0.77186  1.0000
  O   O43       1.0  0.18225  0.53724  0.73346  1.0000
  O   O44       1.0  0.52777  0.48941  0.70501  1.0000
  O   O45       1.0  0.32798  0.3981099999999999  0.74328  1.0000
  O   O46       1.0  0.4096700000000001  0.41478  0.69132  1.0000
  O   O47       1.0  0.66736  0.09802  0.7633  1.0000
  O   O48       1.0  0.59358  0.07494999999999997  0.7108800000000002  1.0000
  O   O49       1.0  0.38745  0.4977799999999999  0.6406500000000003  1.0000
  O   O50       1.0  0.2966  0.5460699999999998  0.6588300000000002  1.0000
  O   O51       1.0  0.11217  0.51235  0.33503  1.0000
  O   O52       1.0  0.21932  0.54986  0.3171  1.0000
