data_image0
_chemical_formula_structural       Zn12H168C276N12O48
_chemical_formula_sum              "Zn12 H168 C276 N12 O48"
_cell_length_a       27.89716
_cell_length_b       27.8956
_cell_length_c       27.89582
_cell_angle_alpha    89.99953999999998
_cell_angle_beta     90.0
_cell_angle_gamma    90.0

_space_group_name_H-M_alt    "P 1"
_space_group_IT_number       1

loop_
  _space_group_symop_operation_xyz
  'x, y, z'

loop_
  _atom_site_type_symbol
  _atom_site_label
  _atom_site_symmetry_multiplicity
  _atom_site_fract_x
  _atom_site_fract_y
  _atom_site_fract_z
  _atom_site_occupancy
  Zn  Zn1       1.0  0.9999899999999999  0.4998800000000001  0.70098  1.0000
  Zn  Zn2       1.0  0.9999899999999999  0.50012  0.29901000000000005  1.0000
  Zn  Zn3       1.0  0.70099  0.0  0.5  1.0000
  Zn  Zn4       1.0  0.29901  0.0  0.5  1.0000
  Zn  Zn5       1.0  0.49998  0.7009900000000002  0.9996700000000001  1.0000
  Zn  Zn6       1.0  0.49998  0.29901000000000005  0.00033  1.0000
  Zn  Zn7       1.0  1e-05  0.4996600000000001  0.79901  1.0000
  Zn  Zn8       1.0  1e-05  0.50034  0.20099000000000006  1.0000
  Zn  Zn9       1.0  0.50003  0.20098  0.00011000000000000003  1.0000
  Zn  Zn10      1.0  0.50003  0.79901  0.9998900000000001  1.0000
  Zn  Zn11      1.0  0.20099  0.0  0.5  1.0000
  Zn  Zn12      1.0  0.79901  0.0  0.5  1.0000
  H   H1        1.0  0.10808  0.39084000000000013  0.8260300000000003  1.0000
  H   H2        1.0  0.17098  0.32765  0.82678  1.0000
  H   H3        1.0  0.02365  0.57011  0.62419  1.0000
  H   H4        1.0  0.02518  0.5732600000000001  0.53419  1.0000
  H   H5        1.0  0.89193  0.60909  0.82604  1.0000
  H   H6        1.0  0.8290499999999998  0.6722900000000002  0.82675  1.0000
  H   H7        1.0  0.9763499999999999  0.42982  0.6241400000000003  1.0000
  H   H8        1.0  0.97483  0.4267200000000001  0.53415  1.0000
  H   H9        1.0  0.89193  0.39091  0.17396  1.0000
  H   H10       1.0  0.8290499999999998  0.3277100000000001  0.17324000000000006  1.0000
  H   H11       1.0  0.9763499999999999  0.5701800000000001  0.37585  1.0000
  H   H12       1.0  0.97483  0.5732700000000001  0.46584  1.0000
  H   H13       1.0  0.10808  0.6091600000000001  0.17396  1.0000
  H   H14       1.0  0.17098  0.6723500000000002  0.17322  1.0000
  H   H15       1.0  0.02365  0.4298800000000001  0.37581  1.0000
  H   H16       1.0  0.02518  0.42674  0.46581  1.0000
  H   H17       1.0  0.82735  0.10865  0.39088  1.0000
  H   H18       1.0  0.8274699999999999  0.1712  0.32727  1.0000
  H   H19       1.0  0.82735  0.8913500000000002  0.6091100000000003  1.0000
  H   H20       1.0  0.8274699999999999  0.8288  0.6727300000000003  1.0000
  H   H21       1.0  0.17269  0.89137  0.39086  1.0000
  H   H22       1.0  0.17256  0.8288300000000002  0.32725  1.0000
  H   H23       1.0  0.17269  0.10863000000000003  0.6091300000000002  1.0000
  H   H24       1.0  0.17256  0.17117000000000004  0.6727500000000001  1.0000
  H   H25       1.0  0.3908  0.82604  0.10820000000000003  1.0000
  H   H26       1.0  0.32762  0.8267800000000002  0.17108000000000004  1.0000
  H   H27       1.0  0.57014  0.62418  0.02362  1.0000
  H   H28       1.0  0.57327  0.53419  0.02517000000000001  1.0000
  H   H29       1.0  0.60923  0.82604  0.8917300000000002  1.0000
  H   H30       1.0  0.67243  0.8267700000000002  0.8288400000000002  1.0000
  H   H31       1.0  0.42985  0.6241500000000001  0.9763300000000001  1.0000
  H   H32       1.0  0.42674  0.53416  0.97482  1.0000
  H   H33       1.0  0.3908  0.17396  0.8918000000000003  1.0000
  H   H34       1.0  0.32762  0.17321  0.8289200000000001  1.0000
  H   H35       1.0  0.57014  0.3758200000000001  0.9763800000000002  1.0000
  H   H36       1.0  0.57327  0.4658100000000001  0.9748300000000002  1.0000
  H   H37       1.0  0.60923  0.17395000000000005  0.10827000000000003  1.0000
  H   H38       1.0  0.67243  0.17323  0.17115  1.0000
  H   H39       1.0  0.42985  0.37585000000000013  0.02367  1.0000
  H   H40       1.0  0.42674  0.46583  0.02517000000000001  1.0000
  H   H41       1.0  0.89113  0.60873  0.67255  1.0000
  H   H42       1.0  0.8275  0.6713000000000002  0.67245  1.0000
  H   H43       1.0  0.10891  0.3911900000000001  0.67255  1.0000
  H   H44       1.0  0.17255  0.32862  0.6724700000000002  1.0000
  H   H45       1.0  0.89113  0.39127  0.32744000000000006  1.0000
  H   H46       1.0  0.8275  0.32870000000000005  0.3275400000000001  1.0000
  H   H47       1.0  0.10891  0.6088000000000002  0.32744000000000006  1.0000
  H   H48       1.0  0.17255  0.6713700000000002  0.32753  1.0000
  H   H49       1.0  0.60894  0.32743  0.10900000000000003  1.0000
  H   H50       1.0  0.67149  0.32755  0.17262  1.0000
  H   H51       1.0  0.39108  0.32743  0.8910500000000002  1.0000
  H   H52       1.0  0.32853  0.3275300000000001  0.8274200000000003  1.0000
  H   H53       1.0  0.39108  0.6725600000000002  0.10895000000000003  1.0000
  H   H54       1.0  0.32853  0.6724700000000001  0.17257000000000006  1.0000
  H   H55       1.0  0.60894  0.67257  0.8909900000000002  1.0000
  H   H56       1.0  0.67149  0.6724500000000002  0.82738  1.0000
  H   H57       1.0  0.32615999999999995  0.8910400000000003  0.39163  1.0000
  H   H58       1.0  0.32686  0.82783  0.32874  1.0000
  H   H59       1.0  0.32615999999999995  0.10896  0.60836  1.0000
  H   H60       1.0  0.32686  0.17216  0.6712600000000002  1.0000
  H   H61       1.0  0.67387  0.8910000000000001  0.6083200000000002  1.0000
  H   H62       1.0  0.67317  0.82779  0.6712200000000003  1.0000
  H   H63       1.0  0.87584  0.07003  0.52399  1.0000
  H   H64       1.0  0.96583  0.07314  0.52554  1.0000
  H   H65       1.0  0.67387  0.10900000000000003  0.39167000000000013  1.0000
  H   H66       1.0  0.67317  0.17221  0.32878000000000007  1.0000
  H   H67       1.0  0.87584  0.92997  0.4760000000000001  1.0000
  H   H68       1.0  0.96583  0.92686  0.4744600000000001  1.0000
  H   H69       1.0  0.89106  0.609  0.17257000000000006  1.0000
  H   H70       1.0  0.8284999999999999  0.67261  0.17245  1.0000
  H   H71       1.0  0.10892  0.3910500000000001  0.17256000000000005  1.0000
  H   H72       1.0  0.17147  0.32743  0.17247000000000007  1.0000
  H   H73       1.0  0.10892  0.60894  0.8274300000000002  1.0000
  H   H74       1.0  0.17147  0.67257  0.8275300000000002  1.0000
  H   H75       1.0  0.89106  0.391  0.8274200000000003  1.0000
  H   H76       1.0  0.8284999999999999  0.32738  0.8275500000000002  1.0000
  H   H77       1.0  0.17384  0.89163  0.60895  1.0000
  H   H78       1.0  0.17314  0.8287300000000002  0.67216  1.0000
  H   H79       1.0  0.37582  0.9767600000000002  0.42972000000000005  1.0000
  H   H80       1.0  0.46581  0.9752500000000002  0.42659000000000014  1.0000
  H   H81       1.0  0.17384  0.10837  0.39104  1.0000
  H   H82       1.0  0.17314  0.17127  0.32784  1.0000
  H   H83       1.0  0.37582  0.023240000000000007  0.57028  1.0000
  H   H84       1.0  0.46581  0.024750000000000008  0.57341  1.0000
  H   H85       1.0  0.82612  0.10832000000000003  0.6090100000000003  1.0000
  H   H86       1.0  0.8268199999999998  0.17121000000000006  0.67222  1.0000
  H   H87       1.0  0.6241599999999999  0.023990000000000008  0.42997000000000013  1.0000
  H   H88       1.0  0.53417  0.025530000000000008  0.42686  1.0000
  H   H89       1.0  0.82612  0.8916800000000003  0.39098000000000005  1.0000
  H   H90       1.0  0.8268199999999998  0.82879  0.32778  1.0000
  H   H91       1.0  0.6241599999999999  0.9760100000000003  0.57003  1.0000
  H   H92       1.0  0.53417  0.97447  0.5731400000000001  1.0000
  H   H93       1.0  0.60888  0.17256  0.89126  1.0000
  H   H94       1.0  0.6725  0.17246000000000006  0.8286900000000001  1.0000
  H   H95       1.0  0.39109  0.17255000000000006  0.10880000000000002  1.0000
  H   H96       1.0  0.32745  0.17247  0.17137  1.0000
  H   H97       1.0  0.60888  0.82744  0.10873000000000002  1.0000
  H   H98       1.0  0.6725  0.82754  0.17131000000000005  1.0000
  H   H99       1.0  0.39109  0.82745  0.8911900000000003  1.0000
  H   H100      1.0  0.32745  0.82753  0.82862  1.0000
  H   H101      1.0  0.1092  0.3918  0.3260400000000001  1.0000
  H   H102      1.0  0.17238  0.3289200000000001  0.32678  1.0000
  H   H103      1.0  0.92986  0.47638000000000014  0.12418000000000003  1.0000
  H   H104      1.0  0.92673  0.4748300000000001  0.03419  1.0000
  H   H105      1.0  0.89078  0.60828  0.32605000000000006  1.0000
  H   H106      1.0  0.82758  0.67116  0.32677000000000006  1.0000
  H   H107      1.0  0.07015  0.52367  0.12415000000000002  1.0000
  H   H108      1.0  0.07326  0.52518  0.03417  1.0000
  H   H109      1.0  0.1092  0.6081900000000001  0.6739600000000001  1.0000
  H   H110      1.0  0.17238  0.67107  0.6732200000000003  1.0000
  H   H111      1.0  0.92986  0.52362  0.8758200000000003  1.0000
  H   H112      1.0  0.92673  0.52517  0.9658100000000002  1.0000
  H   H113      1.0  0.89078  0.3917200000000001  0.67395  1.0000
  H   H114      1.0  0.82758  0.32884  0.67323  1.0000
  H   H115      1.0  0.07015  0.4763300000000001  0.8758400000000001  1.0000
  H   H116      1.0  0.07326  0.47482000000000013  0.96583  1.0000
  H   H117      1.0  0.39192  0.6739600000000002  0.8908400000000001  1.0000
  H   H118      1.0  0.32902  0.67322  0.8276500000000002  1.0000
  H   H119      1.0  0.47635  0.8758100000000002  0.07012  1.0000
  H   H120      1.0  0.47483  0.9658100000000001  0.07326  1.0000
  H   H121      1.0  0.6080699999999999  0.6739500000000003  0.1091  1.0000
  H   H122      1.0  0.67095  0.67324  0.17230000000000006  1.0000
  H   H123      1.0  0.52366  0.87585  0.92982  1.0000
  H   H124      1.0  0.52519  0.96584  0.92672  1.0000
  H   H125      1.0  0.6080699999999999  0.32604  0.8909  1.0000
  H   H126      1.0  0.67095  0.32676  0.8277  1.0000
  H   H127      1.0  0.52366  0.12415  0.07017000000000001  1.0000
  H   H128      1.0  0.52519  0.03416  0.07327000000000003  1.0000
  H   H129      1.0  0.39192  0.32604  0.10915000000000002  1.0000
  H   H130      1.0  0.32902  0.3267800000000001  0.17234000000000005  1.0000
  H   H131      1.0  0.47635  0.12419000000000002  0.9298800000000003  1.0000
  H   H132      1.0  0.47483  0.03419  0.9267400000000002  1.0000
  H   H133      1.0  0.67265  0.10913000000000003  0.60863  1.0000
  H   H134      1.0  0.67252  0.17275000000000004  0.67118  1.0000
  H   H135      1.0  0.67265  0.8908700000000003  0.3913600000000001  1.0000
  H   H136      1.0  0.67252  0.8272500000000002  0.32882  1.0000
  H   H137      1.0  0.32731  0.10913000000000003  0.39137  1.0000
  H   H138      1.0  0.32744  0.17274  0.3288300000000001  1.0000
  H   H139      1.0  0.12417  0.92972  0.5232600000000001  1.0000
  H   H140      1.0  0.03418  0.9266  0.52477  1.0000
  H   H141      1.0  0.32731  0.8908700000000003  0.60863  1.0000
  H   H142      1.0  0.32744  0.8272500000000002  0.67117  1.0000
  H   H143      1.0  0.12417  0.07027000000000001  0.47674  1.0000
  H   H144      1.0  0.03418  0.0734  0.4752300000000001  1.0000
  H   H145      1.0  0.24989  0.3131400000000001  0.8126800000000002  1.0000
  H   H146      1.0  0.75013  0.6868200000000002  0.8126500000000002  1.0000
  H   H147      1.0  0.75013  0.3131800000000001  0.18735  1.0000
  H   H148      1.0  0.24989  0.68686  0.18732000000000001  1.0000
  H   H149      1.0  0.81304  0.24989000000000006  0.31297000000000014  1.0000
  H   H150      1.0  0.81304  0.7501100000000003  0.68702  1.0000
  H   H151      1.0  0.18699  0.75016  0.31294  1.0000
  H   H152      1.0  0.18699  0.24984  0.68706  1.0000
  H   H153      1.0  0.31281  0.8128900000000001  0.24984  1.0000
  H   H154      1.0  0.68722  0.81285  0.7501100000000003  1.0000
  H   H155      1.0  0.31281  0.18711000000000003  0.75016  1.0000
  H   H156      1.0  0.68722  0.18715000000000007  0.24989000000000003  1.0000
  H   H157      1.0  0.74987  0.6873500000000002  0.18683000000000002  1.0000
  H   H158      1.0  0.25012  0.31268  0.18685000000000004  1.0000
  H   H159      1.0  0.25012  0.68732  0.8131500000000003  1.0000
  H   H160      1.0  0.74987  0.3126500000000001  0.8131700000000002  1.0000
  H   H161      1.0  0.1872  0.7498400000000002  0.6871100000000002  1.0000
  H   H162      1.0  0.1872  0.25016  0.31289  1.0000
  H   H163      1.0  0.81278  0.25011  0.6871400000000002  1.0000
  H   H164      1.0  0.81278  0.74989  0.31285000000000013  1.0000
  H   H165      1.0  0.68695  0.18703  0.7498800000000002  1.0000
  H   H166      1.0  0.31302  0.18706000000000006  0.25016000000000005  1.0000
  H   H167      1.0  0.68695  0.8129700000000002  0.25012000000000006  1.0000
  H   H168      1.0  0.31302  0.81294  0.7498400000000002  1.0000
  C   C1        1.0  0.12268  0.37702000000000013  0.79267  1.0000
  C   C2        1.0  0.15806  0.34186  0.7928400000000001  1.0000
  C   C3        1.0  0.01305  0.5395  0.6024000000000002  1.0000
  C   C4        1.0  0.01347  0.5409  0.5525600000000003  1.0000
  C   C5        1.0  0.87735  0.6228900000000002  0.7926600000000003  1.0000
  C   C6        1.0  0.84197  0.65807  0.7928200000000002  1.0000
  C   C7        1.0  0.98695  0.46045  0.60238  1.0000
  C   C8        1.0  0.9865299999999999  0.45907  0.55253  1.0000
  C   C9        1.0  0.87735  0.3771000000000001  0.20733000000000004  1.0000
  C   C10       1.0  0.84197  0.3419300000000001  0.20718  1.0000
  C   C11       1.0  0.98695  0.53955  0.3976200000000001  1.0000
  C   C12       1.0  0.9865299999999999  0.54092  0.4474700000000001  1.0000
  C   C13       1.0  0.12268  0.6229800000000002  0.20732000000000003  1.0000
  C   C14       1.0  0.15806  0.65814  0.20716000000000007  1.0000
  C   C15       1.0  0.01305  0.46050000000000013  0.3975900000000001  1.0000
  C   C16       1.0  0.01347  0.4591  0.4474400000000001  1.0000
  C   C17       1.0  0.79381  0.12291  0.37707  1.0000
  C   C18       1.0  0.79366  0.15817000000000006  0.3416900000000001  1.0000
  C   C19       1.0  0.79381  0.8770900000000001  0.6229200000000001  1.0000
  C   C20       1.0  0.79366  0.84183  0.6583  1.0000
  C   C21       1.0  0.20622  0.87711  0.37704  1.0000
  C   C22       1.0  0.20638  0.8418600000000003  0.3416700000000001  1.0000
  C   C23       1.0  0.20622  0.12288  0.6229500000000001  1.0000
  C   C24       1.0  0.20638  0.15814  0.65833  1.0000
  C   C25       1.0  0.37698  0.79267  0.12277000000000003  1.0000
  C   C26       1.0  0.3418  0.7928300000000001  0.15816  1.0000
  C   C27       1.0  0.53953  0.6024  0.013020000000000004  1.0000
  C   C28       1.0  0.54091  0.55255  0.013460000000000003  1.0000
  C   C29       1.0  0.62307  0.79268  0.8771500000000001  1.0000
  C   C30       1.0  0.65824  0.7928200000000002  0.8417700000000002  1.0000
  C   C31       1.0  0.46047  0.6023800000000002  0.9869300000000002  1.0000
  C   C32       1.0  0.45908999999999994  0.55254  0.9865200000000001  1.0000
  C   C33       1.0  0.37698  0.20733  0.8772300000000002  1.0000
  C   C34       1.0  0.3418  0.20716000000000007  0.8418400000000003  1.0000
  C   C35       1.0  0.53953  0.3976  0.9869700000000002  1.0000
  C   C36       1.0  0.54091  0.4474400000000001  0.9865300000000002  1.0000
  C   C37       1.0  0.62307  0.20732000000000006  0.12285000000000003  1.0000
  C   C38       1.0  0.65824  0.20717000000000002  0.15823000000000004  1.0000
  C   C39       1.0  0.46047  0.39761000000000013  0.013070000000000003  1.0000
  C   C40       1.0  0.45908999999999994  0.4474600000000001  0.01347  1.0000
  C   C41       1.0  0.87734  0.623  0.7061  1.0000
  C   C42       1.0  0.84195  0.65826  0.7062600000000002  1.0000
  C   C43       1.0  0.12271  0.37692  0.7060900000000002  1.0000
  C   C44       1.0  0.1581  0.3416700000000001  0.70627  1.0000
  C   C45       1.0  0.87734  0.377  0.2939000000000001  1.0000
  C   C46       1.0  0.84195  0.34174  0.29374  1.0000
  C   C47       1.0  0.12271  0.6230800000000001  0.29391  1.0000
  C   C48       1.0  0.1581  0.65833  0.29373  1.0000
  C   C49       1.0  0.62319  0.29389  0.12282  1.0000
  C   C50       1.0  0.65845  0.29373  0.15821  1.0000
  C   C51       1.0  0.37683  0.2938800000000001  0.8772500000000002  1.0000
  C   C52       1.0  0.34158  0.29371  0.8418400000000003  1.0000
  C   C53       1.0  0.37683  0.70611  0.12275000000000003  1.0000
  C   C54       1.0  0.34158  0.70629  0.15815000000000007  1.0000
  C   C55       1.0  0.62319  0.70611  0.8771800000000001  1.0000
  C   C56       1.0  0.65845  0.7062700000000001  0.84179  1.0000
  C   C57       1.0  0.29279  0.8772300000000002  0.37704  1.0000
  C   C58       1.0  0.29292999999999997  0.8420500000000001  0.34166000000000013  1.0000
  C   C59       1.0  0.29279  0.12277000000000003  0.6229500000000001  1.0000
  C   C60       1.0  0.29292999999999997  0.15795000000000006  0.65833  1.0000
  C   C61       1.0  0.70724  0.87719  0.6229200000000001  1.0000
  C   C62       1.0  0.7071  0.8420100000000003  0.6583  1.0000
  C   C63       1.0  0.89762  0.039460000000000016  0.51324  1.0000
  C   C64       1.0  0.94746  0.04084  0.5136700000000001  1.0000
  C   C65       1.0  0.70724  0.12281  0.37708000000000014  1.0000
  C   C66       1.0  0.7071  0.15799  0.3417  1.0000
  C   C67       1.0  0.89762  0.9605400000000002  0.4867600000000001  1.0000
  C   C68       1.0  0.94746  0.95915  0.4863200000000001  1.0000
  C   C69       1.0  0.8768  0.6228100000000001  0.20612000000000005  1.0000
  C   C70       1.0  0.84155  0.6582000000000001  0.20627000000000006  1.0000
  C   C71       1.0  0.12316  0.37725000000000003  0.20611000000000002  1.0000
  C   C72       1.0  0.15842  0.3418500000000001  0.20628  1.0000
  C   C73       1.0  0.12316  0.62275  0.79388  1.0000
  C   C74       1.0  0.15842  0.65815  0.7937100000000002  1.0000
  C   C75       1.0  0.8768  0.37718  0.79388  1.0000
  C   C76       1.0  0.84155  0.3418000000000001  0.7937300000000003  1.0000
  C   C77       1.0  0.20721  0.87704  0.6227600000000002  1.0000
  C   C78       1.0  0.20707  0.8416600000000002  0.65794  1.0000
  C   C79       1.0  0.3976  0.9871800000000002  0.4604  1.0000
  C   C80       1.0  0.44745  0.98677  0.45901  1.0000
  C   C81       1.0  0.20721  0.12296000000000003  0.3772300000000001  1.0000
  C   C82       1.0  0.20707  0.15834  0.34205000000000013  1.0000
  C   C83       1.0  0.3976  0.012820000000000002  0.5396000000000001  1.0000
  C   C84       1.0  0.44745  0.01323  0.5409900000000002  1.0000
  C   C85       1.0  0.7927499999999998  0.12292000000000002  0.62281  1.0000
  C   C86       1.0  0.7929  0.1583  0.6579900000000002  1.0000
  C   C87       1.0  0.60238  0.013240000000000004  0.46053  1.0000
  C   C88       1.0  0.55254  0.01367  0.4591500000000001  1.0000
  C   C89       1.0  0.7927499999999998  0.8770800000000002  0.3771800000000001  1.0000
  C   C90       1.0  0.7929  0.8417  0.34200000000000014  1.0000
  C   C91       1.0  0.60238  0.9867600000000001  0.53946  1.0000
  C   C92       1.0  0.55254  0.98633  0.5408400000000001  1.0000
  C   C93       1.0  0.62267  0.20610000000000003  0.8769900000000002  1.0000
  C   C94       1.0  0.65805  0.20626  0.8417300000000002  1.0000
  C   C95       1.0  0.37729  0.20609000000000005  0.12307000000000001  1.0000
  C   C96       1.0  0.3419  0.20627000000000006  0.15832000000000004  1.0000
  C   C97       1.0  0.62267  0.7939000000000002  0.123  1.0000
  C   C98       1.0  0.65805  0.79373  0.15826  1.0000
  C   C99       1.0  0.37729  0.7939100000000001  0.87692  1.0000
  C   C100      1.0  0.3419  0.79373  0.8416700000000003  1.0000
  C   C101      1.0  0.12302  0.3772300000000001  0.29266  1.0000
  C   C102      1.0  0.1582  0.3418400000000001  0.29283  1.0000
  C   C103      1.0  0.96047  0.48698000000000013  0.10240000000000003  1.0000
  C   C104      1.0  0.95909  0.4865400000000001  0.05255000000000001  1.0000
  C   C105      1.0  0.87694  0.62285  0.29268  1.0000
  C   C106      1.0  0.84176  0.65823  0.29283  1.0000
  C   C107      1.0  0.03953  0.51307  0.10239000000000002  1.0000
  C   C108      1.0  0.04091  0.5134800000000002  0.05254  1.0000
  C   C109      1.0  0.12302  0.62277  0.7073300000000002  1.0000
  C   C110      1.0  0.1582  0.65815  0.7071700000000002  1.0000
  C   C111      1.0  0.96047  0.51302  0.8976  1.0000
  C   C112      1.0  0.95909  0.51346  0.9474400000000001  1.0000
  C   C113      1.0  0.87694  0.3771500000000001  0.70731  1.0000
  C   C114      1.0  0.84176  0.34177  0.7071700000000002  1.0000
  C   C115      1.0  0.03953  0.48693  0.8976100000000002  1.0000
  C   C116      1.0  0.04091  0.48652  0.9474600000000002  1.0000
  C   C117      1.0  0.37731999999999993  0.7073300000000001  0.8770300000000002  1.0000
  C   C118      1.0  0.34194  0.70716  0.8418600000000002  1.0000
  C   C119      1.0  0.48696  0.8976000000000001  0.0395  1.0000
  C   C120      1.0  0.48654  0.9474400000000001  0.04090000000000001  1.0000
  C   C121      1.0  0.62265  0.7073300000000001  0.12290000000000002  1.0000
  C   C122      1.0  0.65803  0.70717  0.15808  1.0000
  C   C123      1.0  0.51306  0.89762  0.9604500000000002  1.0000
  C   C124      1.0  0.51348  0.94746  0.95907  1.0000
  C   C125      1.0  0.62265  0.2926700000000001  0.8771000000000002  1.0000
  C   C126      1.0  0.65803  0.29283  0.84192  1.0000
  C   C127      1.0  0.51306  0.10238000000000003  0.039550000000000016  1.0000
  C   C128      1.0  0.51348  0.05253  0.04092000000000001  1.0000
  C   C129      1.0  0.37731999999999993  0.2926700000000001  0.12297000000000002  1.0000
  C   C130      1.0  0.34194  0.29284  0.15813  1.0000
  C   C131      1.0  0.48696  0.10240000000000003  0.9604900000000002  1.0000
  C   C132      1.0  0.48654  0.052550000000000006  0.9591  1.0000
  C   C133      1.0  0.70618  0.12294000000000002  0.6229000000000002  1.0000
  C   C134      1.0  0.70634  0.15832  0.65816  1.0000
  C   C135      1.0  0.70618  0.8770600000000002  0.37709  1.0000
  C   C136      1.0  0.70634  0.8416800000000002  0.3418400000000001  1.0000
  C   C137      1.0  0.29378  0.12295000000000003  0.3771100000000001  1.0000
  C   C138      1.0  0.29363  0.15833000000000005  0.34186  1.0000
  C   C139      1.0  0.1024  0.9604  0.51283  1.0000
  C   C140      1.0  0.05255  0.9590100000000003  0.51324  1.0000
  C   C141      1.0  0.29378  0.8770500000000002  0.6228900000000002  1.0000
  C   C142      1.0  0.29363  0.8416700000000003  0.65814  1.0000
  C   C143      1.0  0.1024  0.0396  0.4871700000000001  1.0000
  C   C144      1.0  0.05255  0.04099  0.4867500000000001  1.0000
  C   C145      1.0  0.0  0.49999  0.5265  1.0000
  C   C146      1.0  0.0  0.50001  0.4735000000000001  1.0000
  C   C147      1.0  0.52649  0.0  0.5  1.0000
  C   C148      1.0  0.47349  0.0  0.5  1.0000
  C   C149      1.0  0.50001  0.5265000000000001  0.0  1.0000
  C   C150      1.0  0.50001  0.47350000000000003  0.0  1.0000
  C   C151      1.0  0.0  0.49999  0.9735000000000003  1.0000
  C   C152      1.0  0.0  0.5  0.026500000000000003  1.0000
  C   C153      1.0  0.50001  0.026500000000000006  1e-05  1.0000
  C   C154      1.0  0.50001  0.9735  0.9999900000000002  1.0000
  C   C155      1.0  0.0265  0.0  0.5  1.0000
  C   C156      1.0  0.97351  0.0  0.5  1.0000
  C   C157      1.0  0.06642  0.4328200000000001  0.74986  1.0000
  C   C158      1.0  0.10456  0.3950200000000001  0.74938  1.0000
  C   C159      1.0  0.17649  0.32344000000000006  0.7496100000000001  1.0000
  C   C160      1.0  0.21407  0.28591  0.7498100000000002  1.0000
  C   C161      1.0  0.93364  0.56705  0.7498400000000002  1.0000
  C   C162      1.0  0.89548  0.6048800000000002  0.74938  1.0000
  C   C163      1.0  0.82354  0.6765  0.7496  1.0000
  C   C164      1.0  0.78596  0.71404  0.7497800000000002  1.0000
  C   C165      1.0  0.93364  0.43295  0.25015  1.0000
  C   C166      1.0  0.89548  0.3951200000000001  0.2506200000000001  1.0000
  C   C167      1.0  0.82354  0.3235  0.2504  1.0000
  C   C168      1.0  0.78596  0.28596000000000005  0.25022  1.0000
  C   C169      1.0  0.06642  0.56717  0.25014  1.0000
  C   C170      1.0  0.10456  0.6049800000000001  0.2506200000000001  1.0000
  C   C171      1.0  0.17649  0.6765600000000003  0.25038000000000005  1.0000
  C   C172      1.0  0.21407  0.7140900000000002  0.25019  1.0000
  C   C173      1.0  0.75015  0.067  0.4333400000000001  1.0000
  C   C174      1.0  0.75053  0.10481000000000001  0.39521  1.0000
  C   C175      1.0  0.75032  0.17643000000000006  0.3232900000000001  1.0000
  C   C176      1.0  0.75019  0.21406  0.2857800000000001  1.0000
  C   C177      1.0  0.75015  0.933  0.5666600000000002  1.0000
  C   C178      1.0  0.75053  0.8951900000000002  0.6047900000000003  1.0000
  C   C179      1.0  0.75032  0.8235700000000002  0.6767100000000003  1.0000
  C   C180      1.0  0.75019  0.7859400000000002  0.7142200000000001  1.0000
  C   C181      1.0  0.24983999999999998  0.9330500000000003  0.4332700000000001  1.0000
  C   C182      1.0  0.24951  0.89523  0.39517000000000013  1.0000
  C   C183      1.0  0.24971  0.82361  0.32325  1.0000
  C   C184      1.0  0.24983999999999998  0.78599  0.2857400000000001  1.0000
  C   C185      1.0  0.24983999999999998  0.06695000000000001  0.5667200000000001  1.0000
  C   C186      1.0  0.24951  0.10477  0.60483  1.0000
  C   C187      1.0  0.24971  0.17639  0.6767500000000002  1.0000
  C   C188      1.0  0.24983999999999998  0.21401000000000006  0.7142600000000002  1.0000
  C   C189      1.0  0.43284  0.74987  0.06644  1.0000
  C   C190      1.0  0.39498  0.7493900000000002  0.10460000000000003  1.0000
  C   C191      1.0  0.32334  0.74962  0.17659000000000005  1.0000
  C   C192      1.0  0.28579  0.74981  0.21419000000000002  1.0000
  C   C193      1.0  0.56719  0.74987  0.9333700000000003  1.0000
  C   C194      1.0  0.60507  0.7494100000000001  0.8953000000000002  1.0000
  C   C195      1.0  0.67669  0.7496  0.8233500000000002  1.0000
  C   C196      1.0  0.71424  0.74978  0.7857600000000002  1.0000
  C   C197      1.0  0.43284  0.25013  0.9335600000000002  1.0000
  C   C198      1.0  0.39498  0.25061000000000005  0.8953900000000002  1.0000
  C   C199      1.0  0.32334  0.25038  0.8234100000000002  1.0000
  C   C200      1.0  0.28579  0.25019  0.7858000000000003  1.0000
  C   C201      1.0  0.56719  0.25013  0.06663  1.0000
  C   C202      1.0  0.60507  0.25059000000000003  0.1047  1.0000
  C   C203      1.0  0.67669  0.2504  0.17664  1.0000
  C   C204      1.0  0.71424  0.25022  0.21424000000000004  1.0000
  C   C205      1.0  0.93281  0.56663  0.24987000000000006  1.0000
  C   C206      1.0  0.89493  0.6047000000000002  0.24941000000000005  1.0000
  C   C207      1.0  0.82331  0.6766400000000002  0.24960000000000004  1.0000
  C   C208      1.0  0.78576  0.71424  0.24978000000000006  1.0000
  C   C209      1.0  0.06716  0.43357  0.24987000000000006  1.0000
  C   C210      1.0  0.10502  0.3954  0.24939  1.0000
  C   C211      1.0  0.17666  0.32341  0.24962  1.0000
  C   C212      1.0  0.21421  0.28581  0.24981000000000006  1.0000
  C   C213      1.0  0.06716  0.56643  0.7501300000000001  1.0000
  C   C214      1.0  0.10502  0.6046000000000002  0.75061  1.0000
  C   C215      1.0  0.17666  0.67659  0.7503800000000003  1.0000
  C   C216      1.0  0.21421  0.7141900000000002  0.75019  1.0000
  C   C217      1.0  0.93281  0.4333700000000001  0.7501300000000001  1.0000
  C   C218      1.0  0.89493  0.3953000000000001  0.7505900000000001  1.0000
  C   C219      1.0  0.82331  0.3233500000000001  0.75039  1.0000
  C   C220      1.0  0.78576  0.28576000000000007  0.75022  1.0000
  C   C221      1.0  0.25016  0.93327  0.5669500000000001  1.0000
  C   C222      1.0  0.25049  0.8951700000000002  0.60477  1.0000
  C   C223      1.0  0.2503  0.82325  0.6763900000000003  1.0000
  C   C224      1.0  0.25016  0.78574  0.71401  1.0000
  C   C225      1.0  0.25016  0.06672000000000002  0.43305  1.0000
  C   C226      1.0  0.25049  0.10483000000000003  0.3952300000000001  1.0000
  C   C227      1.0  0.2503  0.17675  0.32361  1.0000
  C   C228      1.0  0.25016  0.21426  0.28599  1.0000
  C   C229      1.0  0.74984  0.06667  0.5670000000000002  1.0000
  C   C230      1.0  0.74947  0.1048  0.60481  1.0000
  C   C231      1.0  0.74967  0.17672000000000004  0.67643  1.0000
  C   C232      1.0  0.7497999999999999  0.21422  0.71405  1.0000
  C   C233      1.0  0.74984  0.9333300000000002  0.433  1.0000
  C   C234      1.0  0.74947  0.8952  0.39519  1.0000
  C   C235      1.0  0.74967  0.82328  0.32357000000000014  1.0000
  C   C236      1.0  0.7497999999999999  0.7857800000000003  0.28595000000000004  1.0000
  C   C237      1.0  0.56637  0.24984  0.9329400000000002  1.0000
  C   C238      1.0  0.60452  0.24938000000000005  0.8951100000000002  1.0000
  C   C239      1.0  0.67645  0.24960000000000004  0.82349  1.0000
  C   C240      1.0  0.71404  0.24978000000000006  0.7859500000000001  1.0000
  C   C241      1.0  0.43358  0.24985000000000004  0.06717000000000001  1.0000
  C   C242      1.0  0.39544  0.24938000000000005  0.10497  1.0000
  C   C243      1.0  0.32350999999999996  0.24962000000000006  0.17656  1.0000
  C   C244      1.0  0.28593  0.24981000000000003  0.21409  1.0000
  C   C245      1.0  0.56637  0.75015  0.06705000000000003  1.0000
  C   C246      1.0  0.60452  0.75062  0.10488  1.0000
  C   C247      1.0  0.67645  0.7504000000000001  0.17651  1.0000
  C   C248      1.0  0.71404  0.7502200000000001  0.21404000000000006  1.0000
  C   C249      1.0  0.43358  0.75014  0.93283  1.0000
  C   C250      1.0  0.39544  0.75062  0.89502  1.0000
  C   C251      1.0  0.32350999999999996  0.7503800000000003  0.8234400000000002  1.0000
  C   C252      1.0  0.28593  0.7501900000000002  0.78591  1.0000
  C   C253      1.0  0.24991  0.28551  0.7851800000000002  1.0000
  C   C254      1.0  0.75012  0.7144500000000003  0.7851400000000002  1.0000
  C   C255      1.0  0.75012  0.28555  0.21486000000000002  1.0000
  C   C256      1.0  0.24991  0.71449  0.21482000000000007  1.0000
  C   C257      1.0  0.78548  0.24996000000000004  0.28541  1.0000
  C   C258      1.0  0.78548  0.7500400000000002  0.7145900000000002  1.0000
  C   C259      1.0  0.21454999999999994  0.75008  0.28537000000000007  1.0000
  C   C260      1.0  0.21454999999999994  0.24991000000000005  0.7146200000000003  1.0000
  C   C261      1.0  0.28524  0.7853200000000002  0.24992000000000006  1.0000
  C   C262      1.0  0.71479  0.78528  0.75003  1.0000
  C   C263      1.0  0.28524  0.21468000000000004  0.7500800000000002  1.0000
  C   C264      1.0  0.71479  0.21472000000000005  0.24996000000000004  1.0000
  C   C265      1.0  0.74988  0.71486  0.21445  1.0000
  C   C266      1.0  0.25009  0.28518000000000004  0.21449  1.0000
  C   C267      1.0  0.25009  0.7148200000000001  0.7855100000000003  1.0000
  C   C268      1.0  0.74988  0.28514  0.7855400000000002  1.0000
  C   C269      1.0  0.21477  0.74991  0.7146800000000002  1.0000
  C   C270      1.0  0.21477  0.25008  0.28532  1.0000
  C   C271      1.0  0.78521  0.25004  0.7147100000000001  1.0000
  C   C272      1.0  0.78521  0.74996  0.2852900000000001  1.0000
  C   C273      1.0  0.71451  0.2146  0.7499500000000002  1.0000
  C   C274      1.0  0.28545  0.21463000000000004  0.2500800000000001  1.0000
  C   C275      1.0  0.71451  0.7854000000000002  0.25004  1.0000
  C   C276      1.0  0.28545  0.78537  0.7499100000000002  1.0000
  N   N1        1.0  0.0  0.4999600000000001  0.6268500000000002  1.0000
  N   N2        1.0  0.0  0.50003  0.37315  1.0000
  N   N3        1.0  0.62684  0.0  0.5  1.0000
  N   N4        1.0  0.37314  0.0  0.5  1.0000
  N   N5        1.0  0.5  0.62685  0.99995  1.0000
  N   N6        1.0  0.5  0.37314000000000014  4e-05  1.0000
  N   N7        1.0  0.0  0.4999500000000001  0.8731400000000002  1.0000
  N   N8        1.0  0.0  0.50005  0.12686  1.0000
  N   N9        1.0  0.5  0.12685  3.0000000000000008e-05  1.0000
  N   N10       1.0  0.5  0.8731500000000002  0.9999600000000001  1.0000
  N   N11       1.0  0.12686  0.0  0.5  1.0000
  N   N12       1.0  0.87316  0.0  0.5  1.0000
  O   O1        1.0  0.05083  0.44742000000000004  0.7094200000000002  1.0000
  O   O2        1.0  0.94928  0.55254  0.7093900000000002  1.0000
  O   O3        1.0  0.94928  0.4474600000000001  0.29061000000000003  1.0000
  O   O4        1.0  0.05083  0.5525800000000001  0.2905800000000001  1.0000
  O   O5        1.0  0.70925  0.05228  0.44769  1.0000
  O   O6        1.0  0.70925  0.94772  0.5523  1.0000
  O   O7        1.0  0.29073  0.9477700000000002  0.44768000000000013  1.0000
  O   O8        1.0  0.29073  0.05223  0.55232  1.0000
  O   O9        1.0  0.44747999999999993  0.70941  0.05091  1.0000
  O   O10       1.0  0.55244  0.70934  0.9485700000000002  1.0000
  O   O11       1.0  0.44747999999999993  0.2905800000000001  0.9490800000000003  1.0000
  O   O12       1.0  0.55244  0.29066  0.05143000000000001  1.0000
  O   O13       1.0  0.94771  0.55221  0.7907900000000002  1.0000
  O   O14       1.0  0.05231  0.4476  0.7908200000000002  1.0000
  O   O15       1.0  0.94771  0.44779  0.20921000000000006  1.0000
  O   O16       1.0  0.05231  0.5523900000000002  0.20918  1.0000
  O   O17       1.0  0.55247  0.20923  0.05229000000000002  1.0000
  O   O18       1.0  0.44759  0.20919000000000004  0.94773  1.0000
  O   O19       1.0  0.44759  0.79081  0.05227000000000001  1.0000
  O   O20       1.0  0.55247  0.7907600000000002  0.9477100000000003  1.0000
  O   O21       1.0  0.20929  0.94766  0.4484800000000001  1.0000
  O   O22       1.0  0.20929  0.05233  0.55152  1.0000
  O   O23       1.0  0.79068  0.94762  0.55137  1.0000
  O   O24       1.0  0.79068  0.05238  0.44862  1.0000
  O   O25       1.0  0.94754  0.55229  0.29077  1.0000
  O   O26       1.0  0.05241  0.44773  0.2908100000000001  1.0000
  O   O27       1.0  0.05241  0.55226  0.70918  1.0000
  O   O28       1.0  0.94754  0.4477100000000001  0.7092300000000002  1.0000
  O   O29       1.0  0.29071  0.9484800000000002  0.5523300000000002  1.0000
  O   O30       1.0  0.29071  0.05152  0.44766000000000006  1.0000
  O   O31       1.0  0.70932  0.05141  0.55237  1.0000
  O   O32       1.0  0.70932  0.9485900000000002  0.4476300000000001  1.0000
  O   O33       1.0  0.55229  0.29079  0.9477900000000002  1.0000
  O   O34       1.0  0.44769  0.29082  0.05239000000000001  1.0000
  O   O35       1.0  0.55229  0.70921  0.05221000000000001  1.0000
  O   O36       1.0  0.44769  0.7091800000000003  0.9476100000000002  1.0000
  O   O37       1.0  0.05252  0.44911000000000006  0.20942000000000005  1.0000
  O   O38       1.0  0.9475599999999998  0.55143  0.20934000000000005  1.0000
  O   O39       1.0  0.05252  0.55089  0.79058  1.0000
  O   O40       1.0  0.9475599999999998  0.4485700000000001  0.7906500000000001  1.0000
  O   O41       1.0  0.44918  0.7905700000000002  0.9474200000000003  1.0000
  O   O42       1.0  0.55074  0.79061  0.05254  1.0000
  O   O43       1.0  0.55074  0.20939000000000005  0.9474500000000002  1.0000
  O   O44       1.0  0.44918  0.20942000000000002  0.052580000000000016  1.0000
  O   O45       1.0  0.7907499999999998  0.0523  0.55229  1.0000
  O   O46       1.0  0.7907499999999998  0.9477000000000001  0.4477100000000001  1.0000
  O   O47       1.0  0.20926999999999998  0.05232000000000001  0.44777  1.0000
  O   O48       1.0  0.20926999999999998  0.9476800000000002  0.55222  1.0000
