data_image0
_chemical_formula_structural       Cu62H144C96S48I8N192
_chemical_formula_sum              "Cu62 H144 C96 S48 I8 N192"
_cell_length_a       25.56291
_cell_length_b       25.563
_cell_length_c       25.56266
_cell_angle_alpha    59.84252999999998
_cell_angle_beta     59.85461999999999
_cell_angle_gamma    59.85506

_symmetry_space_group_name_H-M    'P 1'
_symmetry_Int_Tables_number       1

loop_
  _symmetry_equiv_pos_as_xyz
  'x,y,z'

loop_
  _atom_site_type_symbol
  _atom_site_label
  _atom_site_symmetry_multiplicity
  _atom_site_fract_x
  _atom_site_fract_y
  _atom_site_fract_z
  _atom_site_occupancy
  Cu  Cu1       1.0  0.026260000000000023  0.19372  0.63519  1.0000
  Cu  Cu2       1.0  0.8660100000000004  0.22760999999999998  0.66983  1.0000
  Cu  Cu3       1.0  0.14483999999999997  0.63535  0.19373000000000004  1.0000
  Cu  Cu4       1.0  0.23661  0.66968  0.22761  1.0000
  Cu  Cu5       1.0  0.63527  0.14495  0.02633  1.0000
  Cu  Cu6       1.0  0.66957  0.23655000000000004  0.8662  1.0000
  Cu  Cu7       1.0  0.19347999999999999  0.026159999999999996  0.14479  1.0000
  Cu  Cu8       1.0  0.22748999999999994  0.86606  0.23638  1.0000
  Cu  Cu9       1.0  0.19367999999999988  0.63524  0.02626  1.0000
  Cu  Cu10      1.0  0.22761000000000012  0.66986  0.86607  1.0000
  Cu  Cu11      1.0  0.6354899999999998  0.19366  0.14483  1.0000
  Cu  Cu12      1.0  0.6697299999999998  0.22761000000000003  0.2365  1.0000
  Cu  Cu13      1.0  0.14494000000000004  0.026339999999999985  0.63521  1.0000
  Cu  Cu14      1.0  0.23652999999999993  0.86618  0.66957  1.0000
  Cu  Cu15      1.0  0.026120000000000004  0.14476  0.19351  1.0000
  Cu  Cu16      1.0  0.86604  0.23636  0.22752  1.0000
  Cu  Cu17      1.0  0.6351899999999999  0.026289999999999997  0.1937  1.0000
  Cu  Cu18      1.0  0.6700199999999998  0.866  0.22743  1.0000
  Cu  Cu19      1.0  0.19363999999999998  0.14488  0.63545  1.0000
  Cu  Cu20      1.0  0.22768999999999992  0.23652000000000006  0.66956  1.0000
  Cu  Cu21      1.0  0.026300000000000004  0.63526  0.14498  1.0000
  Cu  Cu22      1.0  0.86625  0.6694299999999999  0.23652  1.0000
  Cu  Cu23      1.0  0.14477999999999996  0.19359  0.02619  1.0000
  Cu  Cu24      1.0  0.23645000000000008  0.22732000000000002  0.8659599999999998  1.0000
  Cu  Cu25      1.0  0.5262499999999999  0.13517000000000007  0.69374  1.0000
  Cu  Cu26      1.0  0.36598999999999987  0.16982000000000003  0.72762  1.0000
  Cu  Cu27      1.0  0.64486  0.6937600000000002  0.13532  1.0000
  Cu  Cu28      1.0  0.73664  0.72762  0.16968  1.0000
  Cu  Cu29      1.0  0.13525000000000004  0.52633  0.6449599999999999  1.0000
  Cu  Cu30      1.0  0.16956000000000002  0.36617  0.73656  1.0000
  Cu  Cu31      1.0  0.6934900000000002  0.6448  0.52615  1.0000
  Cu  Cu32      1.0  0.72752  0.7364  0.36602  1.0000
  Cu  Cu33      1.0  0.6937  0.52625  0.13522  1.0000
  Cu  Cu34      1.0  0.72763  0.36604  0.16984  1.0000
  Cu  Cu35      1.0  0.13547  0.64485  0.6936799999999999  1.0000
  Cu  Cu36      1.0  0.16971999999999973  0.7365300000000002  0.72763  1.0000
  Cu  Cu37      1.0  0.64495  0.13518  0.52633  1.0000
  Cu  Cu38      1.0  0.73656  0.16956999999999994  0.36614  1.0000
  Cu  Cu39      1.0  0.52611  0.69353  0.64477  1.0000
  Cu  Cu40      1.0  0.366  0.7275400000000001  0.7363699999999999  1.0000
  Cu  Cu41      1.0  0.13515999999999995  0.69373  0.52628  1.0000
  Cu  Cu42      1.0  0.17000999999999988  0.7274500000000002  0.36597  1.0000
  Cu  Cu43      1.0  0.6936499999999999  0.13544  0.64489  1.0000
  Cu  Cu44      1.0  0.7277099999999997  0.16955999999999993  0.73654  1.0000
  Cu  Cu45      1.0  0.5262999999999998  0.64499  0.13524  1.0000
  Cu  Cu46      1.0  0.36622  0.73655  0.16942  1.0000
  Cu  Cu47      1.0  0.6447899999999996  0.52619  0.6936  1.0000
  Cu  Cu48      1.0  0.7364799999999998  0.36593  0.7273299999999999  1.0000
  Cu  Cu49      1.0  0.14619999999999994  0.14631  0.56183  1.0000
  Cu  Cu50      1.0  0.14618999999999993  0.56183  0.14624  1.0000
  Cu  Cu51      1.0  0.5617799999999998  0.14623  0.14626  1.0000
  Cu  Cu52      1.0  0.14596  0.14596999999999993  0.14601  1.0000
  Cu  Cu53      1.0  0.6462099999999998  0.06181999999999998  0.64631  1.0000
  Cu  Cu54      1.0  0.6462  0.64625  0.06181  1.0000
  Cu  Cu55      1.0  0.06177000000000001  0.64627  0.64624  1.0000
  Cu  Cu56      1.0  0.6459599999999998  0.6460100000000001  0.64597  1.0000
  Cu  Cu57      1.0  0.7497999999999996  0.24989000000000003  0.74991  1.0000
  Cu  Cu58      1.0  0.24994999999999984  0.7499900000000003  0.24972  1.0000
  Cu  Cu59      1.0  0.24995000000000006  0.7499099999999999  0.74981  1.0000
  Cu  Cu60      1.0  0.7500099999999997  0.24976  0.24982999999999997  1.0000
  Cu  Cu61      1.0  0.7500099999999996  0.74979  0.24992  1.0000
  Cu  Cu62      1.0  0.2497399999999998  0.24984000000000006  0.7499399999999999  1.0000
  H   H1        1.0  0.88546  0.30178  0.80542  1.0000
  H   H2        1.0  0.05529999999999999  0.23397999999999997  0.70783  1.0000
  H   H3        1.0  0.018280000000000112  0.24478999999999998  0.7790199999999999  1.0000
  H   H4        1.0  0.06939000000000005  0.3782599999999999  0.54588  1.0000
  H   H5        1.0  0.15112  0.38367  0.63026  1.0000
  H   H6        1.0  0.08048999999999984  0.42504000000000003  0.61797  1.0000
  H   H7        1.0  0.006549999999999902  0.8054  0.30202  1.0000
  H   H8        1.0  0.0025899999999998494  0.7079800000000003  0.23423  1.0000
  H   H9        1.0  0.95716  0.7790799999999999  0.24531  1.0000
  H   H10       1.0  0.006469999999999976  0.54626  0.37822  1.0000
  H   H11       1.0  0.83448  0.63056  0.38372999999999996  1.0000
  H   H12       1.0  0.8759999999999998  0.61784  0.42525  1.0000
  H   H13       1.0  0.80439  0.006430000000000002  0.88626  1.0000
  H   H14       1.0  0.7075499999999999  0.0023500000000000057  0.056029999999999996  1.0000
  H   H15       1.0  0.7784800000000002  0.9567399999999999  0.01922  1.0000
  H   H16       1.0  0.5460299999999999  0.007440000000000002  0.06931  1.0000
  H   H17       1.0  0.6307  0.83522  0.15092  1.0000
  H   H18       1.0  0.6180599999999996  0.8773  0.08047  1.0000
  H   H19       1.0  0.3028599999999999  0.8863100000000002  0.006299999999999999  1.0000
  H   H20       1.0  0.23418  0.05597  0.00238  1.0000
  H   H21       1.0  0.24592  0.019369999999999978  0.95661  1.0000
  H   H22       1.0  0.3779399999999999  0.06887  0.00666  1.0000
  H   H23       1.0  0.38355000000000006  0.15070000000000003  0.8345999999999999  1.0000
  H   H24       1.0  0.42530000000000007  0.08051000000000005  0.8764599999999999  1.0000
  H   H25       1.0  0.3022599999999999  0.80501  0.88547  1.0000
  H   H26       1.0  0.23402999999999993  0.70785  0.05530999999999999  1.0000
  H   H27       1.0  0.24492000000000008  0.7790199999999999  0.01826  1.0000
  H   H28       1.0  0.37809999999999977  0.54612  0.06924  1.0000
  H   H29       1.0  0.3836099999999998  0.63038  0.15103  1.0000
  H   H30       1.0  0.4249799999999998  0.61794  0.08047  1.0000
  H   H31       1.0  0.8043399999999998  0.30319  0.00643  1.0000
  H   H32       1.0  0.7077599999999997  0.23452  0.00257  1.0000
  H   H33       1.0  0.7790200000000002  0.24519000000000002  0.9571799999999999  1.0000
  H   H34       1.0  0.54646  0.37816  0.00646  1.0000
  H   H35       1.0  0.63077  0.38365  0.83445  1.0000
  H   H36       1.0  0.6178600000000002  0.4252900000000001  0.8759399999999999  1.0000
  H   H37       1.0  0.006459999999999985  0.88622  0.80492  1.0000
  H   H38       1.0  0.0023400000000000135  0.055980000000000016  0.7078  1.0000
  H   H39       1.0  0.95684  0.019030000000000002  0.77874  1.0000
  H   H40       1.0  0.007379999999999976  0.06939999999999999  0.546  1.0000
  H   H41       1.0  0.8351599999999999  0.15106000000000003  0.63055  1.0000
  H   H42       1.0  0.87721  0.08059000000000002  0.6179899999999999  1.0000
  H   H43       1.0  0.8862699999999998  0.006300000000000001  0.30304  1.0000
  H   H44       1.0  0.055850000000000004  0.0024400000000000077  0.23423  1.0000
  H   H45       1.0  0.019360000000000044  0.9568299999999998  0.24551  1.0000
  H   H46       1.0  0.06894999999999998  0.006529999999999998  0.37802  1.0000
  H   H47       1.0  0.15084000000000009  0.8344799999999999  0.38358  1.0000
  H   H48       1.0  0.08064000000000002  0.87622  0.4254299999999999  1.0000
  H   H49       1.0  0.8053900000000004  0.8855200000000001  0.30184  1.0000
  H   H50       1.0  0.70772  0.05537000000000001  0.23405  1.0000
  H   H51       1.0  0.77877  0.018329999999999992  0.24522  1.0000
  H   H52       1.0  0.5458999999999999  0.06938999999999998  0.37819  1.0000
  H   H53       1.0  0.63033  0.15105  0.38364  1.0000
  H   H54       1.0  0.61809  0.08038999999999999  0.42493  1.0000
  H   H55       1.0  0.3030699999999999  0.006459999999999987  0.8044500000000001  1.0000
  H   H56       1.0  0.23445999999999995  0.0025400000000000036  0.70783  1.0000
  H   H57       1.0  0.24533999999999997  0.9570799999999999  0.77903  1.0000
  H   H58       1.0  0.3781099999999999  0.006519999999999995  0.54648  1.0000
  H   H59       1.0  0.38361  0.8345  0.63065  1.0000
  H   H60       1.0  0.42517000000000005  0.8760099999999998  0.61784  1.0000
  H   H61       1.0  0.8861900000000001  0.80438  0.006449999999999999  1.0000
  H   H62       1.0  0.055940000000000004  0.70762  0.00236  1.0000
  H   H63       1.0  0.019140000000000174  0.7786999999999997  0.95686  1.0000
  H   H64       1.0  0.06937999999999998  0.546  0.007359999999999999  1.0000
  H   H65       1.0  0.1511599999999998  0.63054  0.83514  1.0000
  H   H66       1.0  0.08065999999999997  0.61803  0.87712  1.0000
  H   H67       1.0  0.006310000000000001  0.30195000000000005  0.88632  1.0000
  H   H68       1.0  0.002409999999999997  0.23401  0.05597  1.0000
  H   H69       1.0  0.9565899999999998  0.24606999999999998  0.01924  1.0000
  H   H70       1.0  0.006590000000000039  0.3780299999999999  0.06909  1.0000
  H   H71       1.0  0.8345500000000001  0.38365  0.15086  1.0000
  H   H72       1.0  0.8763699999999995  0.4252900000000001  0.08055  1.0000
  H   H73       1.0  0.38541  0.30542  0.80179  1.0000
  H   H74       1.0  0.5552600000000001  0.20783999999999997  0.73399  1.0000
  H   H75       1.0  0.5182299999999997  0.27907000000000004  0.74475  1.0000
  H   H76       1.0  0.56943  0.045860000000000005  0.87827  1.0000
  H   H77       1.0  0.6511399999999999  0.13027  0.88367  1.0000
  H   H78       1.0  0.58052  0.11795  0.9250599999999999  1.0000
  H   H79       1.0  0.50659  0.8020700000000001  0.30536  1.0000
  H   H80       1.0  0.5026099999999997  0.7342200000000001  0.20801  1.0000
  H   H81       1.0  0.45721  0.74527  0.27913  1.0000
  H   H82       1.0  0.50646  0.87823  0.04625  1.0000
  H   H83       1.0  0.33447000000000005  0.88373  0.13054  1.0000
  H   H84       1.0  0.3759600000000001  0.92527  0.1178  1.0000
  H   H85       1.0  0.30437000000000003  0.38621  0.50647  1.0000
  H   H86       1.0  0.20756999999999995  0.55599  0.50236  1.0000
  H   H87       1.0  0.2785300000000001  0.51916  0.45677999999999996  1.0000
  H   H88       1.0  0.04604000000000001  0.5693  0.50744  1.0000
  H   H89       1.0  0.13066999999999995  0.65098  0.33521  1.0000
  H   H90       1.0  0.11804999999999999  0.58053  0.37725  1.0000
  H   H91       1.0  0.8028999999999995  0.50635  0.38626  1.0000
  H   H92       1.0  0.7341900000000001  0.5023899999999999  0.55593  1.0000
  H   H93       1.0  0.7458900000000004  0.45664999999999994  0.51931  1.0000
  H   H94       1.0  0.87794  0.50666  0.56887  1.0000
  H   H95       1.0  0.8835399999999995  0.33458  0.65076  1.0000
  H   H96       1.0  0.92532  0.37641  0.58057  1.0000
  H   H97       1.0  0.8022799999999998  0.38542  0.30498999999999993  1.0000
  H   H98       1.0  0.73405  0.55527  0.20786  1.0000
  H   H99       1.0  0.74489  0.51821  0.27906  1.0000
  H   H100      1.0  0.87811  0.56927  0.04609  1.0000
  H   H101      1.0  0.8836199999999999  0.65106  0.13036  1.0000
  H   H102      1.0  0.9250099999999998  0.58051  0.1179  1.0000
  H   H103      1.0  0.3042999999999999  0.5064800000000002  0.80323  1.0000
  H   H104      1.0  0.20779999999999993  0.50259  0.73451  1.0000
  H   H105      1.0  0.2790799999999999  0.45723  0.74514  1.0000
  H   H106      1.0  0.04646999999999993  0.5064500000000001  0.8781599999999999  1.0000
  H   H107      1.0  0.13075000000000006  0.33444000000000007  0.8836299999999999  1.0000
  H   H108      1.0  0.11784000000000004  0.37589  0.9253  1.0000
  H   H109      1.0  0.50649  0.3049  0.38616999999999996  1.0000
  H   H110      1.0  0.5023600000000001  0.20782000000000006  0.55594  1.0000
  H   H111      1.0  0.45687999999999995  0.2787799999999999  0.51897  1.0000
  H   H112      1.0  0.50739  0.04601000000000005  0.5693799999999999  1.0000
  H   H113      1.0  0.3351599999999998  0.13051999999999997  0.6511  1.0000
  H   H114      1.0  0.3771799999999999  0.11797  0.58063  1.0000
  H   H115      1.0  0.3862199999999999  0.80308  0.50634  1.0000
  H   H116      1.0  0.5558100000000001  0.7342399999999999  0.50244  1.0000
  H   H117      1.0  0.5192999999999999  0.7454699999999999  0.45688  1.0000
  H   H118      1.0  0.5689799999999999  0.87803  0.50651  1.0000
  H   H119      1.0  0.6508800000000001  0.8835800000000001  0.33445  1.0000
  H   H120      1.0  0.5806999999999998  0.92545  0.37617  1.0000
  H   H121      1.0  0.30539999999999995  0.80186  0.38547  1.0000
  H   H122      1.0  0.20773999999999976  0.7340700000000001  0.55533  1.0000
  H   H123      1.0  0.27881  0.74517  0.51828  1.0000
  H   H124      1.0  0.045869999999999855  0.8782100000000002  0.56943  1.0000
  H   H125      1.0  0.13032000000000007  0.88365  0.65109  1.0000
  H   H126      1.0  0.1180599999999999  0.9249600000000001  0.58044  1.0000
  H   H127      1.0  0.8031099999999999  0.30442  0.50651  1.0000
  H   H128      1.0  0.7344499999999998  0.20786  0.50255  1.0000
  H   H129      1.0  0.74531  0.27909  0.45713  1.0000
  H   H130      1.0  0.87811  0.04648999999999998  0.50651  1.0000
  H   H131      1.0  0.8836  0.13063000000000002  0.33448  1.0000
  H   H132      1.0  0.9252  0.11782  0.37595  1.0000
  H   H133      1.0  0.38614999999999994  0.50649  0.30435  1.0000
  H   H134      1.0  0.5559  0.50238  0.20764  1.0000
  H   H135      1.0  0.5190799999999998  0.4569  0.27874  1.0000
  H   H136      1.0  0.56937  0.5073599999999998  0.046  1.0000
  H   H137      1.0  0.6512099999999998  0.33513  0.1305  1.0000
  H   H138      1.0  0.5806999999999999  0.37707999999999997  0.11799999999999998  1.0000
  H   H139      1.0  0.5063499999999999  0.38628  0.80197  1.0000
  H   H140      1.0  0.5024300000000002  0.55594  0.73402  1.0000
  H   H141      1.0  0.45662999999999987  0.51919  0.74602  1.0000
  H   H142      1.0  0.5065799999999999  0.5691200000000002  0.87803  1.0000
  H   H143      1.0  0.3345299999999998  0.6509100000000001  0.88364  1.0000
  H   H144      1.0  0.3763199999999999  0.58061  0.9253  1.0000
  C   C1        1.0  0.8582099999999998  0.26576  0.7670499999999999  1.0000
  C   C2        1.0  0.9606999999999997  0.2528499999999999  0.74032  1.0000
  C   C3        1.0  0.11308000000000006  0.2764299999999999  0.57808  1.0000
  C   C4        1.0  0.12694999999999998  0.33884999999999993  0.60414  1.0000
  C   C5        1.0  0.10856000000000007  0.76696  0.26592  1.0000
  C   C6        1.0  0.04567000000000004  0.74038  0.25309999999999994  1.0000
  C   C7        1.0  0.03259999999999996  0.57809  0.27643  1.0000
  C   C8        1.0  0.9298999999999998  0.60431  0.33886  1.0000
  C   C9        1.0  0.7667399999999999  0.10840000000000007  0.8586599999999999  1.0000
  C   C10       1.0  0.7400100000000001  0.04548000000000007  0.9613099999999999  1.0000
  C   C11       1.0  0.5776  0.03314  0.11346  1.0000
  C   C12       1.0  0.6041499999999999  0.9305999999999999  0.12707  1.0000
  C   C13       1.0  0.26602  0.8586599999999999  0.1083  1.0000
  C   C14       1.0  0.25323000000000007  0.9612800000000001  0.04539  1.0000
  C   C15       1.0  0.27619  0.11297  0.03266  1.0000
  C   C16       1.0  0.33867  0.12676  0.9300199999999998  1.0000
  C   C17       1.0  0.26584  0.7670699999999998  0.8581800000000002  1.0000
  C   C18       1.0  0.25288000000000016  0.7403499999999998  0.96071  1.0000
  C   C19       1.0  0.27632  0.57804  0.11321  1.0000
  C   C20       1.0  0.33877  0.60415  0.12698  1.0000
  C   C21       1.0  0.7670399999999998  0.26603  0.10841  1.0000
  C   C22       1.0  0.7404  0.2532  0.04557  1.0000
  C   C23       1.0  0.5780999999999998  0.27639  0.03261  1.0000
  C   C24       1.0  0.60441  0.3388300000000001  0.9298899999999999  1.0000
  C   C25       1.0  0.10843000000000005  0.8586  0.76675  1.0000
  C   C26       1.0  0.0455300000000001  0.96126  0.74012  1.0000
  C   C27       1.0  0.03306  0.11353000000000002  0.57762  1.0000
  C   C28       1.0  0.93053  0.12716  0.60409  1.0000
  C   C29       1.0  0.8585899999999997  0.10828  0.26604  1.0000
  C   C30       1.0  0.9612099999999998  0.04542000000000001  0.25318  1.0000
  C   C31       1.0  0.11292000000000003  0.032569999999999995  0.27624  1.0000
  C   C32       1.0  0.12675999999999985  0.92991  0.33874  1.0000
  C   C33       1.0  0.7671100000000001  0.85824  0.26572  1.0000
  C   C34       1.0  0.74024  0.96075  0.25294  1.0000
  C   C35       1.0  0.5780399999999999  0.11316  0.27638  1.0000
  C   C36       1.0  0.6041399999999998  0.12697  0.3388  1.0000
  C   C37       1.0  0.26604999999999995  0.10843999999999995  0.76698  1.0000
  C   C38       1.0  0.25316999999999995  0.045590000000000026  0.74041  1.0000
  C   C39       1.0  0.27635  0.03266000000000003  0.57807  1.0000
  C   C40       1.0  0.33876  0.92995  0.60436  1.0000
  C   C41       1.0  0.8586099999999998  0.7667500000000003  0.10839999999999998  1.0000
  C   C42       1.0  0.96125  0.7401200000000001  0.045509999999999995  1.0000
  C   C43       1.0  0.11342999999999998  0.5776500000000001  0.0331  1.0000
  C   C44       1.0  0.12714000000000003  0.60413  0.9305399999999999  1.0000
  C   C45       1.0  0.10835000000000003  0.26592000000000005  0.8586599999999999  1.0000
  C   C46       1.0  0.04545000000000016  0.25318  0.9612799999999999  1.0000
  C   C47       1.0  0.03258999999999999  0.27623  0.11297  1.0000
  C   C48       1.0  0.9299599999999998  0.33873  0.12684  1.0000
  C   C49       1.0  0.3581699999999998  0.26704  0.76577  1.0000
  C   C50       1.0  0.46065999999999996  0.24032000000000006  0.75287  1.0000
  C   C51       1.0  0.61308  0.07811000000000003  0.7764399999999999  1.0000
  C   C52       1.0  0.6269699999999999  0.10413999999999998  0.83886  1.0000
  C   C53       1.0  0.6085999999999999  0.7659399999999998  0.26695  1.0000
  C   C54       1.0  0.54569  0.75311  0.24037999999999998  1.0000
  C   C55       1.0  0.5325799999999998  0.77644  0.07810999999999998  1.0000
  C   C56       1.0  0.4298899999999999  0.8388699999999999  0.10431  1.0000
  C   C57       1.0  0.26672  0.35862999999999995  0.60842  1.0000
  C   C58       1.0  0.24001  0.46128  0.54549  1.0000
  C   C59       1.0  0.07761000000000008  0.6134699999999998  0.53312  1.0000
  C   C60       1.0  0.1041300000000001  0.6271  0.43058  1.0000
  C   C61       1.0  0.7660399999999998  0.6083400000000002  0.35862  1.0000
  C   C62       1.0  0.7532499999999999  0.54541  0.46125  1.0000
  C   C63       1.0  0.7761899999999999  0.53264  0.61296  1.0000
  C   C64       1.0  0.8386899999999999  0.43  0.62677  1.0000
  C   C65       1.0  0.7658699999999998  0.35815  0.26705  1.0000
  C   C66       1.0  0.75289  0.46067  0.24035  1.0000
  C   C67       1.0  0.77633  0.61322  0.07805  1.0000
  C   C68       1.0  0.8387899999999998  0.627  0.10412999999999999  1.0000
  C   C69       1.0  0.2670299999999999  0.60844  0.76604  1.0000
  C   C70       1.0  0.24041000000000004  0.5456  0.75321  1.0000
  C   C71       1.0  0.07813000000000013  0.5325899999999999  0.7764  1.0000
  C   C72       1.0  0.10442000000000011  0.42987  0.8388299999999999  1.0000
  C   C73       1.0  0.60846  0.26674000000000003  0.35857  1.0000
  C   C74       1.0  0.5455499999999998  0.24012  0.46122  1.0000
  C   C75       1.0  0.5330499999999998  0.07761999999999997  0.61353  1.0000
  C   C76       1.0  0.43052999999999997  0.10407  0.62718  1.0000
  C   C77       1.0  0.3585599999999998  0.76606  0.60831  1.0000
  C   C78       1.0  0.4611799999999999  0.7532  0.54543  1.0000
  C   C79       1.0  0.61291  0.77625  0.53254  1.0000
  C   C80       1.0  0.62679  0.83875  0.42987999999999993  1.0000
  C   C81       1.0  0.26709000000000005  0.76575  0.35821  1.0000
  C   C82       1.0  0.24024  0.75296  0.46072  1.0000
  C   C83       1.0  0.0780499999999999  0.7764  0.61316  1.0000
  C   C84       1.0  0.1041300000000001  0.8388199999999999  0.62699  1.0000
  C   C85       1.0  0.76606  0.26697000000000004  0.60848  1.0000
  C   C86       1.0  0.7531699999999998  0.24042000000000002  0.54561  1.0000
  C   C87       1.0  0.7763599999999999  0.0781  0.53264  1.0000
  C   C88       1.0  0.83877  0.10435  0.42991999999999997  1.0000
  C   C89       1.0  0.35858  0.60843  0.26674  1.0000
  C   C90       1.0  0.46120999999999973  0.54553  0.24011  1.0000
  C   C91       1.0  0.61343  0.5330899999999998  0.07765  1.0000
  C   C92       1.0  0.6271599999999999  0.4305300000000001  0.10411  1.0000
  C   C93       1.0  0.60838  0.35864  0.76594  1.0000
  C   C94       1.0  0.54546  0.46125  0.75319  1.0000
  C   C95       1.0  0.5325600000000001  0.61297  0.77624  1.0000
  C   C96       1.0  0.4299399999999998  0.62687  0.83873  1.0000
  S   S1        1.0  0.7763899999999999  0.2854199999999999  0.8043900000000002  1.0000
  S   S2        1.0  0.08598  0.25395  0.54542  1.0000
  S   S3        1.0  0.13316999999999996  0.80429  0.28559  1.0000
  S   S4        1.0  0.11506999999999998  0.54542  0.25383  1.0000
  S   S5        1.0  0.80424  0.13330000000000003  0.7768299999999999  1.0000
  S   S6        1.0  0.5450399999999997  0.11564  0.08631  1.0000
  S   S7        1.0  0.2855899999999999  0.77685  0.13318  1.0000
  S   S8        1.0  0.25352  0.08565  0.11513  1.0000
  S   S9        1.0  0.28540999999999994  0.80444  0.77637  1.0000
  S   S10       1.0  0.2538  0.54544  0.0861  1.0000
  S   S11       1.0  0.8043399999999998  0.28564  0.13309  1.0000
  S   S12       1.0  0.54553  0.25376  0.1151  1.0000
  S   S13       1.0  0.13324999999999995  0.7767800000000001  0.8042499999999999  1.0000
  S   S14       1.0  0.11554000000000003  0.08646999999999999  0.54501  1.0000
  S   S15       1.0  0.7768099999999998  0.13309  0.2857  1.0000
  S   S16       1.0  0.08560999999999998  0.11504  0.25357  1.0000
  S   S17       1.0  0.8044299999999996  0.77641  0.28538  1.0000
  S   S18       1.0  0.5454199999999999  0.08601000000000002  0.25389  1.0000
  S   S19       1.0  0.2855599999999999  0.13313000000000005  0.8043799999999999  1.0000
  S   S20       1.0  0.25373  0.11517  0.5455  1.0000
  S   S21       1.0  0.7768  0.8043  0.13324  1.0000
  S   S22       1.0  0.08627000000000004  0.54509  0.11561  1.0000
  S   S23       1.0  0.13313999999999998  0.28563  0.77685  1.0000
  S   S24       1.0  0.11505000000000004  0.25358  0.08572  1.0000
  S   S25       1.0  0.27634999999999993  0.30437  0.78543  1.0000
  S   S26       1.0  0.5859999999999997  0.04543  0.75396  1.0000
  S   S27       1.0  0.63321  0.78562  0.30427  1.0000
  S   S28       1.0  0.6150499999999999  0.75384  0.04542  1.0000
  S   S29       1.0  0.3042099999999999  0.27679000000000004  0.63334  1.0000
  S   S30       1.0  0.045039999999999886  0.58633  0.61561  1.0000
  S   S31       1.0  0.7856  0.63322  0.27681  1.0000
  S   S32       1.0  0.7535299999999996  0.61511  0.58566  1.0000
  S   S33       1.0  0.78543  0.27632999999999996  0.30442  1.0000
  S   S34       1.0  0.7538099999999998  0.58611  0.04544  1.0000
  S   S35       1.0  0.3043199999999999  0.63313  0.78566  1.0000
  S   S36       1.0  0.04554000000000005  0.6150800000000001  0.75378  1.0000
  S   S37       1.0  0.63329  0.30422999999999994  0.27675  1.0000
  S   S38       1.0  0.61552  0.04499999999999999  0.58649  1.0000
  S   S39       1.0  0.27676999999999996  0.78571  0.63313  1.0000
  S   S40       1.0  0.58562  0.75359  0.615  1.0000
  S   S41       1.0  0.30439999999999995  0.7854000000000001  0.27637  1.0000
  S   S42       1.0  0.04541999999999999  0.7539100000000001  0.58603  1.0000
  S   S43       1.0  0.78557  0.30437  0.63317  1.0000
  S   S44       1.0  0.75374  0.04552000000000003  0.61514  1.0000
  S   S45       1.0  0.27675999999999995  0.63329  0.30428  1.0000
  S   S46       1.0  0.58628  0.6156  0.04508  1.0000
  S   S47       1.0  0.63318  0.27680999999999994  0.78566  1.0000
  S   S48       1.0  0.6150199999999999  0.5857400000000001  0.75359  1.0000
  I   I1        1.0  0.09418999999999997  0.09394000000000001  0.71768  1.0000
  I   I2        1.0  0.09394999999999998  0.71769  0.09426  1.0000
  I   I3        1.0  0.7176999999999998  0.09421  0.09393  1.0000
  I   I4        1.0  0.09412  0.09409  0.09405  1.0000
  I   I5        1.0  0.5942  0.21765999999999994  0.59395  1.0000
  I   I6        1.0  0.5939699999999999  0.59427  0.21766  1.0000
  I   I7        1.0  0.21767999999999993  0.59394  0.59422  1.0000
  I   I8        1.0  0.59412  0.59406  0.5941  1.0000
  N   N1        1.0  0.8942800000000001  0.24289999999999995  0.7176  1.0000
  N   N2        1.0  0.9587300000000001  0.23437000000000002  0.70174  1.0000
  N   N3        1.0  0.9001599999999998  0.27022000000000007  0.7838799999999999  1.0000
  N   N4        1.0  0.01376  0.25782000000000005  0.73636  1.0000
  N   N5        1.0  0.15241000000000005  0.23938999999999996  0.61255  1.0000
  N   N6        1.0  0.16098999999999997  0.2786599999999999  0.62923  1.0000
  N   N7        1.0  0.09653  0.3394199999999999  0.57215  1.0000
  N   N8        1.0  0.12521999999999994  0.39347  0.60408  1.0000
  N   N9        1.0  0.14499999999999996  0.71752  0.24303  1.0000
  N   N10       1.0  0.10492  0.70179  0.23453  1.0000
  N   N11       1.0  0.04516999999999987  0.78388  0.27044  1.0000
  N   N12       1.0  0.99154  0.7364099999999999  0.25818  1.0000
  N   N13       1.0  0.9958300000000002  0.6124  0.23943999999999996  1.0000
  N   N14       1.0  0.9310699999999997  0.6291699999999998  0.2787  1.0000
  N   N15       1.0  0.99188  0.57233  0.33942  1.0000
  N   N16       1.0  0.8768799999999997  0.6042899999999999  0.39345  1.0000
  N   N17       1.0  0.71733  0.14486000000000002  0.89461  1.0000
  N   N18       1.0  0.7014799999999998  0.10475999999999996  0.95912  1.0000
  N   N19       1.0  0.7836399999999999  0.04488999999999999  0.90079  1.0000
  N   N20       1.0  0.7359299999999996  0.99137  0.01458  1.0000
  N   N21       1.0  0.6120299999999999  0.99611  0.15284  1.0000
  N   N22       1.0  0.62905  0.93145  0.16123999999999997  1.0000
  N   N23       1.0  0.5718599999999998  0.99265  0.09687  1.0000
  N   N24       1.0  0.6043499999999999  0.8777300000000001  0.1252  1.0000
  N   N25       1.0  0.24287000000000003  0.8945399999999999  0.14478  1.0000
  N   N26       1.0  0.23446999999999993  0.95901  0.10469  1.0000
  N   N27       1.0  0.27069999999999994  0.90085  0.04481  1.0000
  N   N28       1.0  0.25831999999999994  0.014560000000000073  0.9913399999999999  1.0000
  N   N29       1.0  0.23921000000000006  0.15242000000000003  0.99582  1.0000
  N   N30       1.0  0.27852  0.16094  0.9310899999999999  1.0000
  N   N31       1.0  0.33919  0.09645000000000002  0.992  1.0000
  N   N32       1.0  0.39326000000000005  0.12511000000000003  0.877  1.0000
  N   N33       1.0  0.24288999999999994  0.71763  0.8943  1.0000
  N   N34       1.0  0.23433000000000007  0.7018100000000002  0.9587699999999999  1.0000
  N   N35       1.0  0.27025999999999994  0.78396  0.90016  1.0000
  N   N36       1.0  0.2579000000000001  0.7363599999999999  0.01376  1.0000
  N   N37       1.0  0.23931999999999995  0.61243  0.15261  1.0000
  N   N38       1.0  0.27860999999999986  0.62917  0.1611  1.0000
  N   N39       1.0  0.3392999999999999  0.57213  0.09663  1.0000
  N   N40       1.0  0.39338000000000006  0.60414  0.1252  1.0000
  N   N41       1.0  0.71763  0.24303  0.14492  1.0000
  N   N42       1.0  0.70193  0.23449  0.10484999999999998  1.0000
  N   N43       1.0  0.7840099999999999  0.27057  0.04491  1.0000
  N   N44       1.0  0.7363599999999999  0.25834000000000007  0.9914399999999999  1.0000
  N   N45       1.0  0.6123800000000001  0.23941  0.99584  1.0000
  N   N46       1.0  0.62921  0.27868000000000004  0.93107  1.0000
  N   N47       1.0  0.5724000000000001  0.33938  0.99187  1.0000
  N   N48       1.0  0.60444  0.3934  0.87683  1.0000
  N   N49       1.0  0.14489000000000005  0.8945699999999998  0.71728  1.0000
  N   N50       1.0  0.10477  0.95911  0.70148  1.0000
  N   N51       1.0  0.04498999999999997  0.90074  0.7837  1.0000
  N   N52       1.0  0.9913899999999999  0.014510000000000006  0.73614  1.0000
  N   N53       1.0  0.9960399999999999  0.15287999999999996  0.61205  1.0000
  N   N54       1.0  0.9313899999999997  0.1613  0.62902  1.0000
  N   N55       1.0  0.9925899999999996  0.09693000000000002  0.57185  1.0000
  N   N56       1.0  0.8776899999999997  0.12532  0.60425  1.0000
  N   N57       1.0  0.8944599999999998  0.14479000000000003  0.2429  1.0000
  N   N58       1.0  0.9589499999999994  0.10469999999999999  0.23444  1.0000
  N   N59       1.0  0.90079  0.044789999999999996  0.27066  1.0000
  N   N60       1.0  0.01447999999999993  0.99135  0.25825  1.0000
  N   N61       1.0  0.15231000000000006  0.99576  0.23925999999999997  1.0000
  N   N62       1.0  0.16088999999999998  0.93102  0.27858  1.0000
  N   N63       1.0  0.09641000000000002  0.9918899999999999  0.33926  1.0000
  N   N64       1.0  0.12520000000000003  0.87686  0.39332  1.0000
  N   N65       1.0  0.7176799999999995  0.89432  0.24282  1.0000
  N   N66       1.0  0.7017500000000001  0.9587799999999999  0.23434  1.0000
  N   N67       1.0  0.7838  0.90022  0.27032  1.0000
  N   N68       1.0  0.7361699999999998  0.013809999999999994  0.258  1.0000
  N   N69       1.0  0.61253  0.15247  0.23934  1.0000
  N   N70       1.0  0.62924  0.16102  0.27861  1.0000
  N   N71       1.0  0.5720799999999999  0.09663000000000001  0.33937  1.0000
  N   N72       1.0  0.6041299999999998  0.12515999999999997  0.39343  1.0000
  N   N73       1.0  0.24298999999999998  0.14494  0.71761  1.0000
  N   N74       1.0  0.23444999999999996  0.10487  0.70193  1.0000
  N   N75       1.0  0.27055  0.04496000000000002  0.784  1.0000
  N   N76       1.0  0.2583  0.99146  0.73638  1.0000
  N   N77       1.0  0.23935999999999996  0.9958800000000001  0.61232  1.0000
  N   N78       1.0  0.27860999999999997  0.93111  0.62916  1.0000
  N   N79       1.0  0.33931999999999995  0.9919300000000001  0.57232  1.0000
  N   N80       1.0  0.39332999999999996  0.8769000000000001  0.60435  1.0000
  N   N81       1.0  0.8945700000000001  0.71734  0.14488  1.0000
  N   N82       1.0  0.9590699999999996  0.7015599999999999  0.10478  1.0000
  N   N83       1.0  0.9007199999999999  0.78375  0.0449  1.0000
  N   N84       1.0  0.014500000000000051  0.73611  0.99139  1.0000
  N   N85       1.0  0.15278999999999993  0.6121000000000001  0.99609  1.0000
  N   N86       1.0  0.16125000000000014  0.6290799999999999  0.9314199999999999  1.0000
  N   N87       1.0  0.09689999999999988  0.5718600000000003  0.9926  1.0000
  N   N88       1.0  0.1253599999999999  0.60426  0.87767  1.0000
  N   N89       1.0  0.1448200000000001  0.24285  0.89451  1.0000
  N   N90       1.0  0.10474999999999997  0.23447999999999997  0.95901  1.0000
  N   N91       1.0  0.044949999999999955  0.27065000000000006  0.9008499999999999  1.0000
  N   N92       1.0  0.9914099999999999  0.25825  0.014529999999999998  1.0000
  N   N93       1.0  0.9957799999999998  0.23924  0.15231  1.0000
  N   N94       1.0  0.93105  0.27855  0.16092  1.0000
  N   N95       1.0  0.9919499999999998  0.33926  0.0965  1.0000
  N   N96       1.0  0.8769599999999997  0.39334  0.12518  1.0000
  N   N97       1.0  0.39425999999999983  0.21756999999999999  0.74293  1.0000
  N   N98       1.0  0.45870999999999995  0.20174000000000006  0.73438  1.0000
  N   N99       1.0  0.40012  0.28388  0.7702199999999999  1.0000
  N   N100      1.0  0.5137199999999998  0.23638  0.75782  1.0000
  N   N101      1.0  0.65241  0.11256999999999999  0.7394  1.0000
  N   N102      1.0  0.661  0.12924000000000002  0.77867  1.0000
  N   N103      1.0  0.59655  0.07215  0.83944  1.0000
  N   N104      1.0  0.6252499999999998  0.10407  0.8934799999999999  1.0000
  N   N105      1.0  0.6450300000000001  0.74305  0.21750999999999998  1.0000
  N   N106      1.0  0.60494  0.73454  0.20179  1.0000
  N   N107      1.0  0.5451999999999998  0.77045  0.28388  1.0000
  N   N108      1.0  0.49156  0.75817  0.23644  1.0000
  N   N109      1.0  0.4958099999999999  0.73945  0.11242  1.0000
  N   N110      1.0  0.43106000000000005  0.77871  0.12917  1.0000
  N   N111      1.0  0.4918699999999999  0.83943  0.07234  1.0000
  N   N112      1.0  0.3768599999999999  0.89346  0.10425999999999999  1.0000
  N   N113      1.0  0.21730999999999978  0.39459  0.64488  1.0000
  N   N114      1.0  0.20148000000000002  0.4591  0.6047699999999999  1.0000
  N   N115      1.0  0.28364  0.40076  0.54492  1.0000
  N   N116      1.0  0.23596000000000003  0.51455  0.49137  1.0000
  N   N117      1.0  0.11202999999999988  0.6528500000000003  0.4961  1.0000
  N   N118      1.0  0.12904  0.66126  0.4314299999999999  1.0000
  N   N119      1.0  0.07184000000000006  0.5968999999999999  0.49263999999999997  1.0000
  N   N120      1.0  0.10432  0.62525  0.37772  1.0000
  N   N121      1.0  0.7428900000000002  0.6448  0.39451  1.0000
  N   N122      1.0  0.7344700000000001  0.60471  0.45899  1.0000
  N   N123      1.0  0.7707099999999996  0.54484  0.4008  1.0000
  N   N124      1.0  0.7583199999999995  0.49135  0.51452  1.0000
  N   N125      1.0  0.7392199999999999  0.49579999999999996  0.65241  1.0000
  N   N126      1.0  0.7785300000000002  0.43107  0.66095  1.0000
  N   N127      1.0  0.8391999999999998  0.49198  0.59646  1.0000
  N   N128      1.0  0.89326  0.37697  0.62516  1.0000
  N   N129      1.0  0.74292  0.39428  0.2176  1.0000
  N   N130      1.0  0.73435  0.45874  0.2018  1.0000
  N   N131      1.0  0.77028  0.40010999999999997  0.28395  1.0000
  N   N132      1.0  0.7579099999999998  0.51372  0.23638  1.0000
  N   N133      1.0  0.73934  0.65261  0.11244  1.0000
  N   N134      1.0  0.7786200000000001  0.66111  0.12917  1.0000
  N   N135      1.0  0.8393199999999997  0.59665  0.07212  1.0000
  N   N136      1.0  0.8934000000000001  0.62525  0.10411  1.0000
  N   N137      1.0  0.21762000000000004  0.64494  0.74304  1.0000
  N   N138      1.0  0.20193999999999998  0.60487  0.73448  1.0000
  N   N139      1.0  0.28401999999999994  0.5449500000000002  0.7705699999999999  1.0000
  N   N140      1.0  0.23639000000000002  0.4914600000000001  0.75833  1.0000
  N   N141      1.0  0.11240999999999991  0.4958199999999999  0.73941  1.0000
  N   N142      1.0  0.12921999999999992  0.43105  0.77868  1.0000
  N   N143      1.0  0.07240999999999992  0.4918500000000001  0.83938  1.0000
  N   N144      1.0  0.10441999999999997  0.3768  0.89339  1.0000
  N   N145      1.0  0.6449099999999998  0.21727  0.39454  1.0000
  N   N146      1.0  0.60478  0.20147000000000004  0.45908  1.0000
  N   N147      1.0  0.54502  0.2837  0.4007  1.0000
  N   N148      1.0  0.49140999999999996  0.23617  0.51447  1.0000
  N   N149      1.0  0.4960299999999998  0.11205000000000002  0.65289  1.0000
  N   N150      1.0  0.43138999999999983  0.12899999999999998  0.66131  1.0000
  N   N151      1.0  0.4925899999999998  0.07183000000000003  0.59695  1.0000
  N   N152      1.0  0.3776799999999998  0.10422  0.62536  1.0000
  N   N153      1.0  0.39444  0.74294  0.6448  1.0000
  N   N154      1.0  0.45892  0.7344599999999999  0.60472  1.0000
  N   N155      1.0  0.40073999999999993  0.7706799999999999  0.54481  1.0000
  N   N156      1.0  0.51443  0.75824  0.49136  1.0000
  N   N157      1.0  0.6523000000000001  0.73926  0.49574  1.0000
  N   N158      1.0  0.6609  0.7785799999999999  0.431  1.0000
  N   N159      1.0  0.5964199999999998  0.83927  0.49185999999999996  1.0000
  N   N160      1.0  0.6252500000000002  0.8933199999999999  0.37682  1.0000
  N   N161      1.0  0.21764999999999998  0.7428500000000001  0.39429  1.0000
  N   N162      1.0  0.20173999999999997  0.7343599999999999  0.45876  1.0000
  N   N163      1.0  0.28379000000000015  0.7703299999999998  0.40018  1.0000
  N   N164      1.0  0.23620000000000008  0.7579999999999999  0.51377  1.0000
  N   N165      1.0  0.1125400000000001  0.73935  0.65247  1.0000
  N   N166      1.0  0.12924000000000008  0.7786199999999999  0.66103  1.0000
  N   N167      1.0  0.07207000000000002  0.83939  0.59664  1.0000
  N   N168      1.0  0.10411000000000005  0.8934399999999999  0.62521  1.0000
  N   N169      1.0  0.7429999999999997  0.21759999999999996  0.6449599999999999  1.0000
  N   N170      1.0  0.7344400000000001  0.20194  0.60489  1.0000
  N   N171      1.0  0.7705599999999999  0.284  0.54499  1.0000
  N   N172      1.0  0.7582899999999998  0.23642  0.4914799999999999  1.0000
  N   N173      1.0  0.7393700000000001  0.11234000000000001  0.49586  1.0000
  N   N174      1.0  0.77862  0.12917  0.43109  1.0000
  N   N175      1.0  0.83933  0.07233  0.49191  1.0000
  N   N176      1.0  0.89334  0.10431999999999997  0.37687  1.0000
  N   N177      1.0  0.39454999999999985  0.64491  0.21732  1.0000
  N   N178      1.0  0.45905000000000007  0.60481  0.20155  1.0000
  N   N179      1.0  0.40068  0.54494  0.28374  1.0000
  N   N180      1.0  0.5144600000000001  0.49140999999999996  0.23613  1.0000
  N   N181      1.0  0.65279  0.49608  0.11209999999999999  1.0000
  N   N182      1.0  0.6612699999999998  0.43141  0.12906  1.0000
  N   N183      1.0  0.5969199999999999  0.49259  0.07184  1.0000
  N   N184      1.0  0.62541  0.37765  0.10422  1.0000
  N   N185      1.0  0.6448399999999999  0.39449  0.74288  1.0000
  N   N186      1.0  0.6047599999999999  0.459  0.73448  1.0000
  N   N187      1.0  0.5449699999999998  0.4008200000000001  0.77066  1.0000
  N   N188      1.0  0.49141999999999997  0.5145  0.75825  1.0000
  N   N189      1.0  0.49576  0.65232  0.73924  1.0000
  N   N190      1.0  0.43104  0.66094  0.77855  1.0000
  N   N191      1.0  0.4919199999999998  0.59652  0.83927  1.0000
  N   N192      1.0  0.3769299999999999  0.62524  0.89334  1.0000
