data_image0
_chemical_formula_structural       Cd24H48C240S48O96
_chemical_formula_sum              "Cd24 H48 C240 S48 O96"
_cell_length_a       28.05029
_cell_length_b       28.04867
_cell_length_c       28.04859
_cell_angle_alpha    60.07057
_cell_angle_beta     60.063500000000005
_cell_angle_gamma    60.0636

_space_group_name_H-M_alt    "P 1"
_space_group_IT_number       1

loop_
  _space_group_symop_operation_xyz
  'x, y, z'

loop_
  _atom_site_type_symbol
  _atom_site_label
  _atom_site_symmetry_multiplicity
  _atom_site_fract_x
  _atom_site_fract_y
  _atom_site_fract_z
  _atom_site_occupancy
  Cd  Cd1       1.0  0.5454199999999999  0.08391  0.4546  1.0000
  Cd  Cd2       1.0  0.08386999999999999  0.5455  0.91599  1.0000
  Cd  Cd3       1.0  0.9161299999999999  0.45449  0.08401  1.0000
  Cd  Cd4       1.0  0.45458000000000004  0.91609  0.5454  1.0000
  Cd  Cd5       1.0  0.9161099999999998  0.54539  0.45459  1.0000
  Cd  Cd6       1.0  0.45451  0.08400000000000002  0.9161399999999998  1.0000
  Cd  Cd7       1.0  0.5455  0.9160000000000001  0.08386  1.0000
  Cd  Cd8       1.0  0.08389999999999997  0.45460999999999996  0.54541  1.0000
  Cd  Cd9       1.0  0.08400000000000002  0.91615  0.45448  1.0000
  Cd  Cd10      1.0  0.5454  0.45455999999999996  0.91612  1.0000
  Cd  Cd11      1.0  0.45459999999999984  0.54544  0.08388  1.0000
  Cd  Cd12      1.0  0.9160000000000001  0.08385000000000001  0.54552  1.0000
  Cd  Cd13      1.0  0.9545099999999996  0.41613000000000006  0.584  1.0000
  Cd  Cd14      1.0  0.4161099999999997  0.9545800000000001  0.04539  1.0000
  Cd  Cd15      1.0  0.5839  0.04541000000000004  0.9546099999999998  1.0000
  Cd  Cd16      1.0  0.04549999999999997  0.58386  0.416  1.0000
  Cd  Cd17      1.0  0.584  0.95447  0.41615  1.0000
  Cd  Cd18      1.0  0.04539999999999997  0.41611  0.95456  1.0000
  Cd  Cd19      1.0  0.9546000000000001  0.58388  0.04544000000000001  1.0000
  Cd  Cd20      1.0  0.41601  0.04552000000000001  0.58385  1.0000
  Cd  Cd21      1.0  0.41613999999999995  0.584  0.95449  1.0000
  Cd  Cd22      1.0  0.9545799999999995  0.045399999999999996  0.41609  1.0000
  Cd  Cd23      1.0  0.04543000000000009  0.9545899999999999  0.58391  1.0000
  Cd  Cd24      1.0  0.58387  0.41599  0.04551  1.0000
  H   H1        1.0  0.7097999999999999  0.88434  0.44306999999999996  1.0000
  H   H2        1.0  0.8844000000000002  0.7099300000000001  0.96262  1.0000
  H   H3        1.0  0.9627199999999998  0.44307  0.88446  1.0000
  H   H4        1.0  0.4430600000000001  0.9626100000000001  0.70998  1.0000
  H   H5        1.0  0.9626399999999999  0.70995  0.44306  1.0000
  H   H6        1.0  0.44308  0.88447  0.96272  1.0000
  H   H7        1.0  0.7098999999999999  0.9626299999999999  0.8844100000000001  1.0000
  H   H8        1.0  0.88435  0.44307  0.70979  1.0000
  H   H9        1.0  0.88446  0.96272  0.44306999999999996  1.0000
  H   H10       1.0  0.70995  0.44305  0.96264  1.0000
  H   H11       1.0  0.44307999999999975  0.70978  0.8843400000000001  1.0000
  H   H12       1.0  0.96264  0.8843900000000001  0.7099099999999999  1.0000
  H   H13       1.0  0.7901099999999999  0.61558  0.53737  1.0000
  H   H14       1.0  0.61565  0.79021  0.056929999999999994  1.0000
  H   H15       1.0  0.5373699999999998  0.05694000000000005  0.7900499999999999  1.0000
  H   H16       1.0  0.05692999999999993  0.53728  0.61553  1.0000
  H   H17       1.0  0.5373600000000001  0.79009  0.6156  1.0000
  H   H18       1.0  0.05692999999999993  0.61565  0.79021  1.0000
  H   H19       1.0  0.7900499999999998  0.53736  0.05694  1.0000
  H   H20       1.0  0.61554  0.05693  0.53728  1.0000
  H   H21       1.0  0.6156099999999998  0.53738  0.79006  1.0000
  H   H22       1.0  0.7902  0.05693  0.61566  1.0000
  H   H23       1.0  0.056949999999999994  0.79001  0.53738  1.0000
  H   H24       1.0  0.5372899999999998  0.61554  0.056929999999999994  1.0000
  H   H25       1.0  0.2902100000000001  0.11564999999999998  0.55693  1.0000
  H   H26       1.0  0.11560999999999999  0.29006  0.03738  1.0000
  H   H27       1.0  0.037289999999999955  0.55693  0.11554  1.0000
  H   H28       1.0  0.5569499999999997  0.03737999999999998  0.29002  1.0000
  H   H29       1.0  0.03737  0.29005  0.55694  1.0000
  H   H30       1.0  0.55693  0.11553  0.03728  1.0000
  H   H31       1.0  0.29011  0.03736  0.11559  1.0000
  H   H32       1.0  0.11565000000000002  0.55692  0.29022  1.0000
  H   H33       1.0  0.11554000000000003  0.03726999999999999  0.55693  1.0000
  H   H34       1.0  0.29005000000000003  0.55694  0.03736  1.0000
  H   H35       1.0  0.55693  0.29021  0.11566  1.0000
  H   H36       1.0  0.03735999999999996  0.1156  0.29009  1.0000
  H   H37       1.0  0.20990000000000006  0.3844099999999999  0.46264  1.0000
  H   H38       1.0  0.38435  0.20978000000000002  0.94307  1.0000
  H   H39       1.0  0.46264  0.94305  0.20995  1.0000
  H   H40       1.0  0.94307  0.46272  0.38447  1.0000
  H   H41       1.0  0.4626400000000001  0.20989999999999995  0.3844  1.0000
  H   H42       1.0  0.9430699999999995  0.38434000000000007  0.20979  1.0000
  H   H43       1.0  0.20995000000000005  0.46263999999999994  0.94306  1.0000
  H   H44       1.0  0.38445999999999997  0.9430700000000001  0.46271999999999996  1.0000
  H   H45       1.0  0.3844000000000001  0.46261  0.20994  1.0000
  H   H46       1.0  0.20979999999999993  0.9430700000000001  0.38434999999999997  1.0000
  H   H47       1.0  0.9430499999999996  0.20998000000000003  0.46262  1.0000
  H   H48       1.0  0.46272  0.38446  0.94307  1.0000
  C   C1        1.0  0.65493  0.0007400000000000029  0.44773  1.0000
  C   C2        1.0  0.7147499999999999  0.96018  0.44112  1.0000
  C   C3        1.0  0.7364599999999999  0.90431  0.44  1.0000
  C   C4        1.0  0.7960799999999998  0.87612  0.43628  1.0000
  C   C5        1.0  0.8184499999999997  0.91207  0.43581  1.0000
  C   C6        1.0  0.0007099999999999019  0.65495  0.89663  1.0000
  C   C7        1.0  0.9601699999999995  0.71476  0.88394  1.0000
  C   C8        1.0  0.90432  0.7365500000000001  0.9191299999999999  1.0000
  C   C9        1.0  0.8761400000000001  0.79615  0.89143  1.0000
  C   C10       1.0  0.91207  0.81844  0.8336499999999999  1.0000
  C   C11       1.0  0.8966799999999999  0.44774  0.0008  1.0000
  C   C12       1.0  0.884  0.44110999999999995  0.96023  1.0000
  C   C13       1.0  0.9192099999999999  0.4399800000000001  0.90438  1.0000
  C   C14       1.0  0.89148  0.43626000000000004  0.8761599999999999  1.0000
  C   C15       1.0  0.8336900000000002  0.4358  0.91205  1.0000
  C   C16       1.0  0.4477299999999999  0.89657  0.65485  1.0000
  C   C17       1.0  0.4411299999999999  0.8838799999999999  0.7147000000000001  1.0000
  C   C18       1.0  0.43999000000000016  0.91909  0.73654  1.0000
  C   C19       1.0  0.43626999999999994  0.89136  0.7961499999999999  1.0000
  C   C20       1.0  0.43583000000000005  0.83355  0.81841  1.0000
  C   C21       1.0  0.8965799999999998  0.6548399999999999  0.44773  1.0000
  C   C22       1.0  0.8838999999999999  0.7146899999999999  0.44112999999999997  1.0000
  C   C23       1.0  0.9191200000000002  0.7365199999999998  0.43999  1.0000
  C   C24       1.0  0.8913899999999997  0.79614  0.43626999999999994  1.0000
  C   C25       1.0  0.8335799999999995  0.81841  0.43583  1.0000
  C   C26       1.0  0.44774  0.0007900000000000013  0.89669  1.0000
  C   C27       1.0  0.44111999999999996  0.96022  0.88401  1.0000
  C   C28       1.0  0.43999  0.9043699999999999  0.91922  1.0000
  C   C29       1.0  0.43625999999999965  0.8761500000000001  0.89149  1.0000
  C   C30       1.0  0.43581  0.91203  0.8337  1.0000
  C   C31       1.0  0.6549399999999999  0.8966399999999999  0.0007  1.0000
  C   C32       1.0  0.71476  0.88395  0.96016  1.0000
  C   C33       1.0  0.7365399999999998  0.9191400000000001  0.90432  1.0000
  C   C34       1.0  0.7961399999999998  0.8914399999999999  0.87613  1.0000
  C   C35       1.0  0.8184599999999997  0.8336699999999999  0.91205  1.0000
  C   C36       1.0  0.0007400000000000837  0.44772999999999996  0.65493  1.0000
  C   C37       1.0  0.9601899999999992  0.44111000000000006  0.71474  1.0000
  C   C38       1.0  0.9043200000000002  0.44  0.73645  1.0000
  C   C39       1.0  0.87612  0.4362700000000001  0.79607  1.0000
  C   C40       1.0  0.9120700000000002  0.43581  0.81845  1.0000
  C   C41       1.0  0.0007999999999999091  0.89668  0.44774  1.0000
  C   C42       1.0  0.96023  0.884  0.44112  1.0000
  C   C43       1.0  0.9043799999999996  0.91921  0.43999  1.0000
  C   C44       1.0  0.87616  0.8914799999999999  0.43626  1.0000
  C   C45       1.0  0.9120499999999999  0.83369  0.43581  1.0000
  C   C46       1.0  0.6548500000000002  0.44773000000000013  0.89658  1.0000
  C   C47       1.0  0.7146999999999997  0.44112999999999997  0.8839  1.0000
  C   C48       1.0  0.7365299999999999  0.43999  0.91912  1.0000
  C   C49       1.0  0.7961399999999998  0.4362700000000001  0.89138  1.0000
  C   C50       1.0  0.81841  0.43583  0.83357  1.0000
  C   C51       1.0  0.44772999999999985  0.65495  0.00072  1.0000
  C   C52       1.0  0.4411199999999999  0.71475  0.9601700000000001  1.0000
  C   C53       1.0  0.4399999999999995  0.73645  0.9043000000000001  1.0000
  C   C54       1.0  0.4362799999999999  0.79607  0.87611  1.0000
  C   C55       1.0  0.43582000000000004  0.81845  0.9120699999999999  1.0000
  C   C56       1.0  0.8966299999999999  0.0006799999999999938  0.65497  1.0000
  C   C57       1.0  0.8839499999999997  0.96015  0.71478  1.0000
  C   C58       1.0  0.9191499999999996  0.90431  0.73654  1.0000
  C   C59       1.0  0.8914500000000001  0.87612  0.7961399999999998  1.0000
  C   C60       1.0  0.8336699999999997  0.91204  0.81845  1.0000
  C   C61       1.0  0.8450599999999997  0.49929999999999997  0.60336  1.0000
  C   C62       1.0  0.7852399999999998  0.5398400000000001  0.61605  1.0000
  C   C63       1.0  0.76347  0.59568  0.58085  1.0000
  C   C64       1.0  0.7038599999999999  0.6238700000000001  0.60855  1.0000
  C   C65       1.0  0.6815499999999998  0.58795  0.66633  1.0000
  C   C66       1.0  0.4992599999999999  0.84507  0.05227  1.0000
  C   C67       1.0  0.5398099999999998  0.78525  0.058879999999999995  1.0000
  C   C68       1.0  0.59568  0.76355  0.06  1.0000
  C   C69       1.0  0.6238799999999999  0.70393  0.06372  1.0000
  C   C70       1.0  0.58793  0.68155  0.06419  1.0000
  C   C71       1.0  0.6034199999999998  0.05227000000000008  0.8451499999999998  1.0000
  C   C72       1.0  0.6161000000000001  0.058869999999999985  0.78531  1.0000
  C   C73       1.0  0.58089  0.060009999999999994  0.76348  1.0000
  C   C74       1.0  0.6086199999999999  0.06372999999999998  0.70386  1.0000
  C   C75       1.0  0.66642  0.06417  0.68159  1.0000
  C   C76       1.0  0.05225999999999997  0.6033  0.49921  1.0000
  C   C77       1.0  0.05888999999999997  0.6159900000000001  0.53977  1.0000
  C   C78       1.0  0.06002000000000001  0.5807800000000001  0.59562  1.0000
  C   C79       1.0  0.06374000000000007  0.6085099999999999  0.62385  1.0000
  C   C80       1.0  0.06420000000000002  0.6663  0.58797  1.0000
  C   C81       1.0  0.6033700000000004  0.84503  0.49931999999999993  1.0000
  C   C82       1.0  0.6160599999999999  0.7852199999999999  0.53985  1.0000
  C   C83       1.0  0.58085  0.76346  0.59569  1.0000
  C   C84       1.0  0.6085499999999995  0.7038600000000002  0.62387  1.0000
  C   C85       1.0  0.6663299999999995  0.68154  0.58795  1.0000
  C   C86       1.0  0.05226999999999984  0.4992800000000001  0.84505  1.0000
  C   C87       1.0  0.05888000000000007  0.53982  0.78524  1.0000
  C   C88       1.0  0.060000000000000143  0.59569  0.7635499999999998  1.0000
  C   C89       1.0  0.06371999999999983  0.6238800000000003  0.7039299999999998  1.0000
  C   C90       1.0  0.06419000000000018  0.5879299999999997  0.68155  1.0000
  C   C91       1.0  0.8451499999999998  0.60342  0.05227  1.0000
  C   C92       1.0  0.7853099999999996  0.6161  0.05887  1.0000
  C   C93       1.0  0.7634799999999999  0.58088  0.06001  1.0000
  C   C94       1.0  0.7038599999999998  0.60861  0.06373  1.0000
  C   C95       1.0  0.68159  0.66643  0.06417  1.0000
  C   C96       1.0  0.4992099999999998  0.052259999999999994  0.60331  1.0000
  C   C97       1.0  0.5397699999999997  0.05888  0.616  1.0000
  C   C98       1.0  0.5956200000000001  0.060009999999999994  0.58078  1.0000
  C   C99       1.0  0.6238499999999998  0.06374000000000002  0.60851  1.0000
  C   C100      1.0  0.58796  0.06419  0.66631  1.0000
  C   C101      1.0  0.49929999999999986  0.6033600000000002  0.84505  1.0000
  C   C102      1.0  0.53983  0.61606  0.78523  1.0000
  C   C103      1.0  0.59568  0.58087  0.76345  1.0000
  C   C104      1.0  0.62386  0.60857  0.70385  1.0000
  C   C105      1.0  0.5879299999999998  0.66635  0.68155  1.0000
  C   C106      1.0  0.8450699999999998  0.05227000000000001  0.49926  1.0000
  C   C107      1.0  0.7852599999999997  0.05888  0.53981  1.0000
  C   C108      1.0  0.7635499999999996  0.060000000000000026  0.59569  1.0000
  C   C109      1.0  0.7039199999999998  0.06372  0.62388  1.0000
  C   C110      1.0  0.68155  0.06419000000000002  0.58793  1.0000
  C   C111      1.0  0.05228000000000009  0.8451399999999999  0.60342  1.0000
  C   C112      1.0  0.05887999999999994  0.7853000000000001  0.61611  1.0000
  C   C113      1.0  0.06000999999999992  0.76346  0.5809  1.0000
  C   C114      1.0  0.06373000000000005  0.70384  0.60863  1.0000
  C   C115      1.0  0.06416999999999999  0.68159  0.66644  1.0000
  C   C116      1.0  0.6033199999999996  0.4992  0.05226000000000001  1.0000
  C   C117      1.0  0.6159999999999999  0.53977  0.058879999999999995  1.0000
  C   C118      1.0  0.5807899999999999  0.59562  0.06001  1.0000
  C   C119      1.0  0.6085199999999995  0.62384  0.06374  1.0000
  C   C120      1.0  0.66631  0.58795  0.06419  1.0000
  C   C121      1.0  0.3450699999999998  0.9992500000000001  0.55227  1.0000
  C   C122      1.0  0.2852599999999998  0.03981  0.55888  1.0000
  C   C123      1.0  0.26354999999999995  0.09569000000000001  0.56  1.0000
  C   C124      1.0  0.20391999999999996  0.12388000000000002  0.56372  1.0000
  C   C125      1.0  0.18155  0.08792  0.56419  1.0000
  C   C126      1.0  0.9992899999999999  0.34505  0.10337  1.0000
  C   C127      1.0  0.03983000000000001  0.28523000000000004  0.11605999999999998  1.0000
  C   C128      1.0  0.09567999999999999  0.26345  0.08087  1.0000
  C   C129      1.0  0.12385999999999998  0.20385  0.10857  1.0000
  C   C130      1.0  0.08793000000000002  0.18155  0.16635  1.0000
  C   C131      1.0  0.10331999999999988  0.55226  0.9992000000000001  1.0000
  C   C132      1.0  0.11599999999999998  0.55888  0.03977  1.0000
  C   C133      1.0  0.08079  0.56001  0.09562  1.0000
  C   C134      1.0  0.10851999999999996  0.56374  0.12384  1.0000
  C   C135      1.0  0.16631  0.56419  0.08794999999999999  1.0000
  C   C136      1.0  0.5522699999999996  0.10341999999999998  0.34515  1.0000
  C   C137      1.0  0.55887  0.11611000000000003  0.2853  1.0000
  C   C138      1.0  0.5600099999999999  0.0809  0.26346  1.0000
  C   C139      1.0  0.56373  0.10863000000000002  0.20385  1.0000
  C   C140      1.0  0.56417  0.16644  0.18159  1.0000
  C   C141      1.0  0.10343000000000002  0.3451499999999999  0.55227  1.0000
  C   C142      1.0  0.11609999999999997  0.28531  0.55887  1.0000
  C   C143      1.0  0.08089000000000005  0.26348  0.56001  1.0000
  C   C144      1.0  0.10862  0.20386  0.56373  1.0000
  C   C145      1.0  0.16642  0.18159000000000006  0.56417  1.0000
  C   C146      1.0  0.5522599999999998  0.99921  0.10331  1.0000
  C   C147      1.0  0.5588799999999998  0.03976999999999999  0.11598999999999998  1.0000
  C   C148      1.0  0.5600099999999999  0.09562  0.08078  1.0000
  C   C149      1.0  0.56374  0.12385  0.10851  1.0000
  C   C150      1.0  0.56419  0.08796  0.1663  1.0000
  C   C151      1.0  0.3450599999999999  0.10335000000000003  0.9993  1.0000
  C   C152      1.0  0.28524  0.11605  0.03984  1.0000
  C   C153      1.0  0.2634599999999999  0.08085  0.09567999999999999  1.0000
  C   C154      1.0  0.2038599999999999  0.10855000000000001  0.12387  1.0000
  C   C155      1.0  0.18155  0.16633  0.08794999999999999  1.0000
  C   C156      1.0  0.9992599999999997  0.55226  0.34507  1.0000
  C   C157      1.0  0.039819999999999994  0.55888  0.28526  1.0000
  C   C158      1.0  0.09567999999999997  0.56  0.26356  1.0000
  C   C159      1.0  0.12387999999999999  0.56372  0.20393  1.0000
  C   C160      1.0  0.08793000000000005  0.5641899999999999  0.18155000000000002  1.0000
  C   C161      1.0  0.99921  0.10331000000000003  0.55226  1.0000
  C   C162      1.0  0.03976999999999999  0.11600000000000002  0.55888  1.0000
  C   C163      1.0  0.09562000000000002  0.08077999999999999  0.56001  1.0000
  C   C164      1.0  0.12384999999999993  0.10851000000000001  0.56374  1.0000
  C   C165      1.0  0.08795999999999995  0.16631000000000007  0.56419  1.0000
  C   C166      1.0  0.34514999999999996  0.55227  0.10342  1.0000
  C   C167      1.0  0.28531  0.55887  0.1161  1.0000
  C   C168      1.0  0.26348000000000005  0.56001  0.08089  1.0000
  C   C169      1.0  0.20386  0.56373  0.10862  1.0000
  C   C170      1.0  0.18158999999999997  0.56417  0.16643  1.0000
  C   C171      1.0  0.5522699999999999  0.3450500000000001  0.99928  1.0000
  C   C172      1.0  0.5588799999999998  0.28524  0.03983  1.0000
  C   C173      1.0  0.5599999999999998  0.26355  0.0957  1.0000
  C   C174      1.0  0.56372  0.20393  0.12389  1.0000
  C   C175      1.0  0.5641899999999997  0.18155  0.08794  1.0000
  C   C176      1.0  0.10336999999999996  0.99931  0.34503  1.0000
  C   C177      1.0  0.11605999999999995  0.03984999999999998  0.28522  1.0000
  C   C178      1.0  0.08085000000000002  0.09568999999999997  0.26346  1.0000
  C   C179      1.0  0.10854999999999997  0.12386999999999997  0.20386000000000004  1.0000
  C   C180      1.0  0.16633  0.08795  0.18155000000000002  1.0000
  C   C181      1.0  0.15494000000000005  0.50069  0.39664  1.0000
  C   C182      1.0  0.21476000000000003  0.46016  0.38395  1.0000
  C   C183      1.0  0.23654  0.40432000000000007  0.41914999999999997  1.0000
  C   C184      1.0  0.29614  0.37613  0.39145  1.0000
  C   C185      1.0  0.31845000000000007  0.41204  0.33367  1.0000
  C   C186      1.0  0.50074  0.15493000000000004  0.94773  1.0000
  C   C187      1.0  0.46018999999999993  0.21473999999999996  0.94112  1.0000
  C   C188      1.0  0.40432  0.23644  0.94  1.0000
  C   C189      1.0  0.37611999999999984  0.29607  0.93628  1.0000
  C   C190      1.0  0.41207  0.31844  0.93581  1.0000
  C   C191      1.0  0.39657999999999993  0.94773  0.15485  1.0000
  C   C192      1.0  0.3839  0.9411199999999998  0.21469  1.0000
  C   C193      1.0  0.41911999999999994  0.93999  0.23652  1.0000
  C   C194      1.0  0.39138999999999985  0.93626  0.29614  1.0000
  C   C195      1.0  0.33357999999999993  0.93582  0.31841  1.0000
  C   C196      1.0  0.94774  0.39668999999999993  0.50079  1.0000
  C   C197      1.0  0.9411199999999998  0.38401  0.46023  1.0000
  C   C198      1.0  0.93999  0.41922000000000004  0.40438  1.0000
  C   C199      1.0  0.9362599999999999  0.39149000000000006  0.37615  1.0000
  C   C200      1.0  0.9358099999999998  0.33370000000000005  0.41204  1.0000
  C   C201      1.0  0.39663999999999977  0.15497  0.50069  1.0000
  C   C202      1.0  0.38394  0.21478  0.46015  1.0000
  C   C203      1.0  0.41914999999999997  0.23654000000000006  0.40430999999999995  1.0000
  C   C204      1.0  0.39144999999999996  0.29614  0.37613  1.0000
  C   C205      1.0  0.33367  0.31845  0.4120500000000001  1.0000
  C   C206      1.0  0.9477299999999999  0.50072  0.15495  1.0000
  C   C207      1.0  0.9411199999999996  0.4601700000000001  0.21476000000000003  1.0000
  C   C208      1.0  0.9399999999999995  0.4043  0.23645  1.0000
  C   C209      1.0  0.93628  0.37611  0.29607  1.0000
  C   C210      1.0  0.93581  0.41206  0.31845  1.0000
  C   C211      1.0  0.15485000000000002  0.39658  0.94773  1.0000
  C   C212      1.0  0.21470000000000006  0.38389000000000006  0.94113  1.0000
  C   C213      1.0  0.23652999999999996  0.4191100000000001  0.9399899999999999  1.0000
  C   C214      1.0  0.29613999999999996  0.39138  0.9362700000000002  1.0000
  C   C215      1.0  0.3184099999999998  0.33357  0.93583  1.0000
  C   C216      1.0  0.5007999999999999  0.9477400000000001  0.39669000000000004  1.0000
  C   C217      1.0  0.46023  0.94111  0.38399999999999995  1.0000
  C   C218      1.0  0.40438  0.93998  0.41922000000000004  1.0000
  C   C219      1.0  0.37615999999999983  0.93626  0.39148999999999995  1.0000
  C   C220      1.0  0.4120499999999999  0.9358  0.33369  1.0000
  C   C221      1.0  0.5007099999999999  0.39663  0.15495  1.0000
  C   C222      1.0  0.46016999999999997  0.38393  0.21476999999999996  1.0000
  C   C223      1.0  0.40431999999999996  0.41913000000000006  0.23655  1.0000
  C   C224      1.0  0.37614  0.39142  0.29615  1.0000
  C   C225      1.0  0.41207  0.33365  0.31845  1.0000
  C   C226      1.0  0.15493  0.94772  0.50074  1.0000
  C   C227      1.0  0.21475  0.94111  0.46019000000000004  1.0000
  C   C228      1.0  0.23646000000000014  0.93999  0.40430999999999995  1.0000
  C   C229      1.0  0.29607999999999995  0.9362699999999999  0.37612  1.0000
  C   C230      1.0  0.31844999999999984  0.93581  0.41207  1.0000
  C   C231      1.0  0.9477200000000001  0.15485000000000002  0.39657999999999993  1.0000
  C   C232      1.0  0.94113  0.21469999999999995  0.38389  1.0000
  C   C233      1.0  0.9399899999999998  0.23654000000000006  0.4191  1.0000
  C   C234      1.0  0.93627  0.29615  0.39137  1.0000
  C   C235      1.0  0.9358299999999996  0.3184100000000001  0.33356  1.0000
  C   C236      1.0  0.39668999999999993  0.50079  0.94774  1.0000
  C   C237      1.0  0.38400000000000006  0.46023000000000003  0.94112  1.0000
  C   C238      1.0  0.41921000000000014  0.4043700000000001  0.9399899999999999  1.0000
  C   C239      1.0  0.3914799999999998  0.37615  0.93626  1.0000
  C   C240      1.0  0.33369  0.41204  0.93581  1.0000
  S   S1        1.0  0.7669500000000002  0.97984  0.43724  1.0000
  S   S2        1.0  0.97981  0.7668799999999999  0.8160399999999999  1.0000
  S   S3        1.0  0.8160699999999995  0.43724999999999997  0.97983  1.0000
  S   S4        1.0  0.4372700000000001  0.81595  0.76675  1.0000
  S   S5        1.0  0.8159700000000002  0.7667499999999999  0.43727  1.0000
  S   S6        1.0  0.4372500000000001  0.97981  0.81608  1.0000
  S   S7        1.0  0.7668999999999999  0.8160500000000002  0.9797799999999999  1.0000
  S   S8        1.0  0.9798300000000001  0.4372399999999999  0.76695  1.0000
  S   S9        1.0  0.9798199999999998  0.8160599999999999  0.4372500000000001  1.0000
  S   S10       1.0  0.76677  0.43726999999999994  0.81596  1.0000
  S   S11       1.0  0.43724999999999997  0.76696  0.97982  1.0000
  S   S12       1.0  0.8160499999999997  0.97978  0.76691  1.0000
  S   S13       1.0  0.7330999999999996  0.5202099999999998  0.68394  1.0000
  S   S14       1.0  0.5201699999999999  0.73305  0.06276  1.0000
  S   S15       1.0  0.6840299999999998  0.06273000000000001  0.73324  1.0000
  S   S16       1.0  0.06275  0.68392  0.52019  1.0000
  S   S17       1.0  0.6839599999999999  0.73309  0.52022  1.0000
  S   S18       1.0  0.06276000000000002  0.5201700000000001  0.73304  1.0000
  S   S19       1.0  0.7332399999999998  0.68404  0.06273  1.0000
  S   S20       1.0  0.5201799999999999  0.06274999999999999  0.68393  1.0000
  S   S21       1.0  0.52019  0.68396  0.73311  1.0000
  S   S22       1.0  0.73306  0.06275999999999997  0.52016  1.0000
  S   S23       1.0  0.06273000000000001  0.73324  0.68404  1.0000
  S   S24       1.0  0.6839299999999999  0.52017  0.06275  1.0000
  S   S25       1.0  0.23305999999999988  0.020159999999999994  0.56276  1.0000
  S   S26       1.0  0.020189999999999986  0.23311  0.18395999999999998  1.0000
  S   S27       1.0  0.1839299999999999  0.56275  0.02017  1.0000
  S   S28       1.0  0.56273  0.18404000000000004  0.23324999999999999  1.0000
  S   S29       1.0  0.18402999999999994  0.23324000000000006  0.56273  1.0000
  S   S30       1.0  0.56275  0.02019  0.18392  1.0000
  S   S31       1.0  0.23310000000000003  0.18394  0.02022  1.0000
  S   S32       1.0  0.020170000000000056  0.56276  0.23305  1.0000
  S   S33       1.0  0.020179999999999972  0.18393  0.56275  1.0000
  S   S34       1.0  0.23324000000000003  0.56273  0.18404  1.0000
  S   S35       1.0  0.56276  0.23303999999999997  0.02018  1.0000
  S   S36       1.0  0.18395999999999993  0.020220000000000012  0.23308999999999996  1.0000
  S   S37       1.0  0.2669000000000001  0.47978000000000004  0.31606  1.0000
  S   S38       1.0  0.47983  0.26695  0.93724  1.0000
  S   S39       1.0  0.31597000000000003  0.93727  0.26676  1.0000
  S   S40       1.0  0.9372499999999998  0.3160800000000001  0.47980999999999996  1.0000
  S   S41       1.0  0.31605000000000005  0.26691  0.47978  1.0000
  S   S42       1.0  0.9372399999999999  0.4798200000000001  0.26696  1.0000
  S   S43       1.0  0.26676999999999995  0.31596  0.93727  1.0000
  S   S44       1.0  0.47982  0.93725  0.31607  1.0000
  S   S45       1.0  0.47980999999999985  0.31604000000000004  0.26689  1.0000
  S   S46       1.0  0.26694999999999997  0.93724  0.47983999999999993  1.0000
  S   S47       1.0  0.9372700000000002  0.26674999999999993  0.31596  1.0000
  S   S48       1.0  0.31607  0.47983000000000003  0.93725  1.0000
  O   O1        1.0  0.6152300000000003  0.98464  0.45511  1.0000
  O   O2        1.0  0.6423799999999997  0.05137000000000002  0.44772  1.0000
  O   O3        1.0  0.98464  0.61532  0.94501  1.0000
  O   O4        1.0  0.05132999999999994  0.6423700000000001  0.8586  1.0000
  O   O5        1.0  0.94507  0.45508  0.9848  1.0000
  O   O6        1.0  0.8586399999999998  0.44772999999999996  0.051410000000000004  1.0000
  O   O7        1.0  0.45505  0.94499  0.6153  1.0000
  O   O8        1.0  0.44771999999999956  0.85855  0.64218  1.0000
  O   O9        1.0  0.9449899999999998  0.6152800000000002  0.45505999999999996  1.0000
  O   O10       1.0  0.8585599999999998  0.6421800000000001  0.44772  1.0000
  O   O11       1.0  0.4550999999999999  0.98479  0.94507  1.0000
  O   O12       1.0  0.4477299999999999  0.05140000000000003  0.85865  1.0000
  O   O13       1.0  0.6152999999999996  0.9449999999999998  0.9846500000000001  1.0000
  O   O14       1.0  0.6423799999999997  0.8586  0.05131  1.0000
  O   O15       1.0  0.98464  0.45512000000000014  0.61523  1.0000
  O   O16       1.0  0.05137000000000002  0.44772  0.64238  1.0000
  O   O17       1.0  0.9847999999999999  0.94507  0.45508999999999994  1.0000
  O   O18       1.0  0.05140999999999998  0.85864  0.44773  1.0000
  O   O19       1.0  0.61528  0.45505  0.945  1.0000
  O   O20       1.0  0.6421999999999999  0.44772  0.85856  1.0000
  O   O21       1.0  0.45510999999999996  0.61524  0.98463  1.0000
  O   O22       1.0  0.44772000000000006  0.64241  0.05135000000000001  1.0000
  O   O23       1.0  0.9450100000000001  0.98462  0.61532  1.0000
  O   O24       1.0  0.8585999999999999  0.0513  0.64241  1.0000
  O   O25       1.0  0.8847100000000001  0.5153499999999999  0.55499  1.0000
  O   O26       1.0  0.8576199999999999  0.44869  0.64139  1.0000
  O   O27       1.0  0.51536  0.88477  0.04488  1.0000
  O   O28       1.0  0.44864  0.85761  0.05228  1.0000
  O   O29       1.0  0.55501  0.04492999999999997  0.88472  1.0000
  O   O30       1.0  0.6414399999999997  0.05227000000000001  0.85781  1.0000
  O   O31       1.0  0.044900000000000044  0.55493  0.5152  1.0000
  O   O32       1.0  0.05227  0.64135  0.4486  1.0000
  O   O33       1.0  0.5549999999999996  0.88467  0.51537  1.0000
  O   O34       1.0  0.6414099999999998  0.8575900000000002  0.4487  1.0000
  O   O35       1.0  0.04488999999999998  0.51537  0.88476  1.0000
  O   O36       1.0  0.05228999999999996  0.44865000000000005  0.85759  1.0000
  O   O37       1.0  0.8847199999999995  0.555  0.044950000000000004  1.0000
  O   O38       1.0  0.8578099999999997  0.6414400000000001  0.05228  1.0000
  O   O39       1.0  0.51521  0.04491000000000002  0.55493  1.0000
  O   O40       1.0  0.4486  0.05226999999999997  0.64136  1.0000
  O   O41       1.0  0.5153699999999999  0.55499  0.8846699999999998  1.0000
  O   O42       1.0  0.44867999999999997  0.64139  0.85763  1.0000
  O   O43       1.0  0.8847699999999998  0.04489  0.51536  1.0000
  O   O44       1.0  0.8576199999999998  0.05228  0.44863  1.0000
  O   O45       1.0  0.04495999999999999  0.88469  0.55501  1.0000
  O   O46       1.0  0.052289999999999996  0.8578099999999999  0.64144  1.0000
  O   O47       1.0  0.5549299999999998  0.5152  0.04491  1.0000
  O   O48       1.0  0.64136  0.44859  0.05227  1.0000
  O   O49       1.0  0.38477000000000006  0.015359999999999997  0.54489  1.0000
  O   O50       1.0  0.3576299999999998  0.94862  0.55228  1.0000
  O   O51       1.0  0.015369999999999998  0.38467  0.05499  1.0000
  O   O52       1.0  0.94868  0.3576299999999999  0.1414  1.0000
  O   O53       1.0  0.05492999999999997  0.54491  0.0152  1.0000
  O   O54       1.0  0.14135999999999996  0.55227  0.94859  1.0000
  O   O55       1.0  0.54496  0.05500999999999998  0.3847  1.0000
  O   O56       1.0  0.5522799999999999  0.14144  0.35782  1.0000
  O   O57       1.0  0.055010000000000045  0.38472  0.54494  1.0000
  O   O58       1.0  0.14144000000000004  0.35781  0.55228  1.0000
  O   O59       1.0  0.5449  0.015200000000000002  0.05493  1.0000
  O   O60       1.0  0.5522699999999998  0.9486  0.14135  1.0000
  O   O61       1.0  0.3847  0.054990000000000004  0.01535  1.0000
  O   O62       1.0  0.35762000000000005  0.14138999999999996  0.94869  1.0000
  O   O63       1.0  0.015359999999999811  0.5448800000000003  0.38477  1.0000
  O   O64       1.0  0.9486399999999997  0.55228  0.35761999999999994  1.0000
  O   O65       1.0  0.015210000000000022  0.05492999999999999  0.54491  1.0000
  O   O66       1.0  0.9486  0.14136  0.55227  1.0000
  O   O67       1.0  0.38471999999999984  0.54495  0.055  1.0000
  O   O68       1.0  0.35780999999999985  0.55228  0.14144  1.0000
  O   O69       1.0  0.54489  0.38475000000000004  0.015370000000000002  1.0000
  O   O70       1.0  0.5522899999999997  0.35758000000000006  0.94865  1.0000
  O   O71       1.0  0.054989999999999976  0.015370000000000007  0.38468  1.0000
  O   O72       1.0  0.14141  0.9487  0.35758999999999996  1.0000
  O   O73       1.0  0.11530000000000001  0.48464  0.44500999999999996  1.0000
  O   O74       1.0  0.14238000000000012  0.5513099999999997  0.35861  1.0000
  O   O75       1.0  0.48464  0.11522000000000003  0.95512  1.0000
  O   O76       1.0  0.55137  0.14238  0.94772  1.0000
  O   O77       1.0  0.4449899999999998  0.95506  0.11527999999999998  1.0000
  O   O78       1.0  0.35855999999999993  0.94772  0.14219  1.0000
  O   O79       1.0  0.9550999999999995  0.4450700000000001  0.48479999999999995  1.0000
  O   O80       1.0  0.9477299999999999  0.35864000000000007  0.5514  1.0000
  O   O81       1.0  0.44501  0.11531999999999998  0.48463000000000006  1.0000
  O   O82       1.0  0.3585999999999999  0.14239999999999997  0.5513  1.0000
  O   O83       1.0  0.9551099999999996  0.48463000000000006  0.11524  1.0000
  O   O84       1.0  0.9477099999999999  0.55135  0.14241  1.0000
  O   O85       1.0  0.11527999999999995  0.44499000000000005  0.95505  1.0000
  O   O86       1.0  0.14219999999999994  0.35855000000000004  0.94772  1.0000
  O   O87       1.0  0.4847999999999997  0.95508  0.44507  1.0000
  O   O88       1.0  0.5514100000000001  0.94772  0.35864  1.0000
  O   O89       1.0  0.48463000000000006  0.44500999999999996  0.11533  1.0000
  O   O90       1.0  0.55133  0.3586  0.14237  1.0000
  O   O91       1.0  0.11524000000000006  0.9550999999999998  0.48464  1.0000
  O   O92       1.0  0.14237999999999995  0.94771  0.55137  1.0000
  O   O93       1.0  0.9550399999999998  0.11530000000000003  0.44499  1.0000
  O   O94       1.0  0.9477199999999996  0.14217999999999997  0.35856000000000005  1.0000
  O   O95       1.0  0.44507000000000013  0.4847899999999999  0.95509  1.0000
  O   O96       1.0  0.35865000000000014  0.55141  0.94773  1.0000
