data_image0
_chemical_formula_structural       Ni16H128C192N32O72
_chemical_formula_sum              "Ni16 H128 C192 N32 O72"
_cell_length_a       14.07693
_cell_length_b       19.67495
_cell_length_c       19.683289999999996
_cell_angle_alpha    90.06184999999999
_cell_angle_beta     90.07183
_cell_angle_gamma    89.92906

_symmetry_space_group_name_H-M    'P 1'
_symmetry_Int_Tables_number       1

loop_
  _symmetry_equiv_pos_as_xyz
  'x,y,z'

loop_
  _atom_site_type_symbol
  _atom_site_label
  _atom_site_symmetry_multiplicity
  _atom_site_fract_x
  _atom_site_fract_y
  _atom_site_fract_z
  _atom_site_occupancy
  Ni  Ni1       1.0  0.8342  0.38517  0.95893  1.0000
  Ni  Ni2       1.0  0.83419  0.11517999999999999  0.53971  1.0000
  Ni  Ni3       1.0  0.8323200000000002  0.54032  0.38509  1.0000
  Ni  Ni4       1.0  0.83334  0.95919  0.11478999999999999  1.0000
  Ni  Ni5       1.0  0.66449  0.61477  0.4597899999999999  1.0000
  Ni  Ni6       1.0  0.66557  0.8850699999999999  0.039979999999999995  1.0000
  Ni  Ni7       1.0  0.6653  0.45939  0.88446  1.0000
  Ni  Ni8       1.0  0.66792  0.04153  0.6149799999999999  1.0000
  Ni  Ni9       1.0  0.16556  0.61451  0.04033  1.0000
  Ni  Ni10      1.0  0.16711000000000006  0.8851  0.45977  1.0000
  Ni  Ni11      1.0  0.16505  0.45998  0.6146  1.0000
  Ni  Ni12      1.0  0.1644  0.03886  0.88464  1.0000
  Ni  Ni13      1.0  0.33234  0.38509999999999994  0.54018  1.0000
  Ni  Ni14      1.0  0.33203  0.11452  0.95835  1.0000
  Ni  Ni15      1.0  0.33322000000000007  0.5401099999999999  0.11488  1.0000
  Ni  Ni16      1.0  0.33369  0.9605699999999999  0.38519  1.0000
  H   H1        1.0  0.12319  0.45601  0.9134199999999999  1.0000
  H   H2        1.0  0.2776  0.4912  0.8610499999999999  1.0000
  H   H3        1.0  0.29496  0.48651  0.73429  1.0000
  H   H4        1.0  0.017410000000000005  0.42027  0.71097  1.0000
  H   H5        1.0  0.88796  0.61147  0.80937  1.0000
  H   H6        1.0  0.03864  0.68001  0.79923  1.0000
  H   H7        1.0  0.15279  0.6821099999999999  0.89774  1.0000
  H   H8        1.0  0.98221  0.55405  0.00911  1.0000
  H   H9        1.0  0.12053  0.045099999999999994  0.58644  1.0000
  H   H10       1.0  0.27515  0.009009999999999999  0.63797  1.0000
  H   H11       1.0  0.29379  0.012799999999999997  0.7648199999999999  1.0000
  H   H12       1.0  0.01683  0.08033  0.78922  1.0000
  H   H13       1.0  0.8899500000000002  0.8891099999999997  0.69064  1.0000
  H   H14       1.0  0.03999  0.8194299999999999  0.70052  1.0000
  H   H15       1.0  0.15368  0.8169199999999999  0.60207  1.0000
  H   H16       1.0  0.9835000000000003  0.9458  0.49065999999999993  1.0000
  H   H17       1.0  0.12105  0.58589  0.45598  1.0000
  H   H18       1.0  0.27587  0.63724  0.49151999999999996  1.0000
  H   H19       1.0  0.29543  0.76388  0.48622999999999994  1.0000
  H   H20       1.0  0.0185  0.78902  0.41895999999999994  1.0000
  H   H21       1.0  0.88825  0.69144  0.61174  1.0000
  H   H22       1.0  0.03901  0.70117  0.68071  1.0000
  H   H23       1.0  0.15278000000000003  0.60257  0.68262  1.0000
  H   H24       1.0  0.98203  0.49166  0.55357  1.0000
  H   H25       1.0  0.11966  0.9127399999999999  0.04389  1.0000
  H   H26       1.0  0.27528  0.8617399999999998  0.00953  1.0000
  H   H27       1.0  0.29557  0.73508  0.01529  1.0000
  H   H28       1.0  0.01826  0.70957  0.08069  1.0000
  H   H29       1.0  0.8883000000000001  0.80894  0.8891199999999999  1.0000
  H   H30       1.0  0.03827  0.79844  0.8197999999999999  1.0000
  H   H31       1.0  0.15231  0.8967699999999997  0.81707  1.0000
  H   H32       1.0  0.9829200000000002  0.0089  0.94584  1.0000
  H   H33       1.0  0.37891  0.5446499999999999  0.41324  1.0000
  H   H34       1.0  0.22423  0.5081  0.36188  1.0000
  H   H35       1.0  0.205  0.5126399999999999  0.23501999999999998  1.0000
  H   H36       1.0  0.48087000000000013  0.58138  0.21031  1.0000
  H   H37       1.0  0.60922  0.3882799999999999  0.30884  1.0000
  H   H38       1.0  0.45906  0.31894  0.2992  1.0000
  H   H39       1.0  0.34569  0.31672  0.39781999999999995  1.0000
  H   H40       1.0  0.51668  0.445  0.5092699999999999  1.0000
  H   H41       1.0  0.38012  0.9561  0.08667  1.0000
  H   H42       1.0  0.22460000000000005  0.9912599999999999  0.13735  1.0000
  H   H43       1.0  0.20454000000000006  0.98634  0.26404  1.0000
  H   H44       1.0  0.48151000000000005  0.91952  0.28992  1.0000
  H   H45       1.0  0.61026  0.11015  0.18953  1.0000
  H   H46       1.0  0.46017  0.17985  0.19983  1.0000
  H   H47       1.0  0.34668  0.18316  0.10105  1.0000
  H   H48       1.0  0.51673  0.05495  0.9888500000000001  1.0000
  H   H49       1.0  0.37797000000000003  0.41338  0.95587  1.0000
  H   H50       1.0  0.22344  0.36205  0.99179  1.0000
  H   H51       1.0  0.20365  0.23534  0.98544  1.0000
  H   H52       1.0  0.4800800000000001  0.21046  0.9174000000000001  1.0000
  H   H53       1.0  0.61049  0.3089199999999999  0.11039  1.0000
  H   H54       1.0  0.46101  0.29951999999999995  0.18043  1.0000
  H   H55       1.0  0.34745  0.3983  0.183  1.0000
  H   H56       1.0  0.51698  0.50936  0.053989999999999996  1.0000
  H   H57       1.0  0.3801  0.08653  0.54416  1.0000
  H   H58       1.0  0.22473  0.13716  0.50859  1.0000
  H   H59       1.0  0.20387  0.26376  0.5135199999999999  1.0000
  H   H60       1.0  0.4806400000000001  0.28999  0.58075  1.0000
  H   H61       1.0  0.61088  0.19017  0.38851  1.0000
  H   H62       1.0  0.46026  0.20072  0.31958  1.0000
  H   H63       1.0  0.3456400000000001  0.10271999999999999  0.31766  1.0000
  H   H64       1.0  0.51646  0.99042  0.44541  1.0000
  H   H65       1.0  0.87728  0.54353  0.08609  1.0000
  H   H66       1.0  0.72279  0.50792  0.13802  1.0000
  H   H67       1.0  0.70414  0.51355  0.26471  1.0000
  H   H68       1.0  0.98117  0.58043  0.28882  1.0000
  H   H69       1.0  0.11132  0.38864999999999994  0.19047  1.0000
  H   H70       1.0  0.96081  0.31986  0.20055  1.0000
  H   H71       1.0  0.84687  0.31753  0.10197  1.0000
  H   H72       1.0  0.01758  0.44532  0.99038  1.0000
  H   H73       1.0  0.87931  0.9560299999999999  0.41368999999999995  1.0000
  H   H74       1.0  0.72448  0.99176  0.36218  1.0000
  H   H75       1.0  0.70499  0.9864999999999998  0.2355  1.0000
  H   H76       1.0  0.98151  0.9182899999999999  0.21089  1.0000
  H   H77       1.0  0.1098  0.11079  0.30916  1.0000
  H   H78       1.0  0.95961  0.18037999999999998  0.29942  1.0000
  H   H79       1.0  0.8461700000000001  0.18284  0.39803  1.0000
  H   H80       1.0  0.01699  0.05416  0.50928  1.0000
  H   H81       1.0  0.87669  0.41394999999999993  0.54383  1.0000
  H   H82       1.0  0.72268  0.36183  0.50751  1.0000
  H   H83       1.0  0.70475  0.23505999999999996  0.51188  1.0000
  H   H84       1.0  0.9814  0.21131  0.5803599999999999  1.0000
  H   H85       1.0  0.11007  0.30902  0.38808  1.0000
  H   H86       1.0  0.95942  0.29951  0.31889  1.0000
  H   H87       1.0  0.84585  0.3982499999999999  0.31695  1.0000
  H   H88       1.0  0.01743  0.50951  0.44497  1.0000
  H   H89       1.0  0.8792  0.08639999999999999  0.9563099999999999  1.0000
  H   H90       1.0  0.72443  0.13844  0.99172  1.0000
  H   H91       1.0  0.70538  0.26513  0.98542  1.0000
  H   H92       1.0  0.9819600000000002  0.28874  0.9174000000000001  1.0000
  H   H93       1.0  0.11046  0.18995  0.10989  1.0000
  H   H94       1.0  0.9608  0.2003  0.17962999999999998  1.0000
  H   H95       1.0  0.8472500000000002  0.10173  0.18286  1.0000
  H   H96       1.0  0.01726  0.98915  0.055  1.0000
  H   H97       1.0  0.62001  0.45503999999999994  0.58577  1.0000
  H   H98       1.0  0.77455  0.49126999999999993  0.63728  1.0000
  H   H99       1.0  0.79393  0.4868199999999999  0.764  1.0000
  H   H100      1.0  0.51736  0.41901999999999995  0.7885899999999999  1.0000
  H   H101      1.0  0.39015  0.61195  0.69143  1.0000
  H   H102      1.0  0.54071  0.6808399999999999  0.70077  1.0000
  H   H103      1.0  0.6536300000000002  0.6828199999999999  0.60186  1.0000
  H   H104      1.0  0.48229  0.55419  0.49116999999999994  1.0000
  H   H105      1.0  0.6194900000000001  0.04338  0.9133599999999998  1.0000
  H   H106      1.0  0.77537  0.00904  0.8629000000000001  1.0000
  H   H107      1.0  0.79649  0.01531  0.73643  1.0000
  H   H108      1.0  0.51927  0.08147999999999998  0.7101  1.0000
  H   H109      1.0  0.38836  0.88864  0.80965  1.0000
  H   H110      1.0  0.5392  0.82015  0.79923  1.0000
  H   H111      1.0  0.6529700000000003  0.81726  0.89778  1.0000
  H   H112      1.0  0.4822800000000001  0.94482  0.01016  1.0000
  H   H113      1.0  0.61967  0.58648  0.04451  1.0000
  H   H114      1.0  0.77423  0.6377  0.00821  1.0000
  H   H115      1.0  0.79365  0.76443  0.013239999999999998  1.0000
  H   H116      1.0  0.5175  0.7895299999999998  0.08183999999999998  1.0000
  H   H117      1.0  0.38939  0.69079  0.8896  1.0000
  H   H118      1.0  0.53912  0.70033  0.81981  1.0000
  H   H119      1.0  0.65243  0.60138  0.81689  1.0000
  H   H120      1.0  0.48251  0.49025  0.94566  1.0000
  H   H121      1.0  0.62037  0.91364  0.45515  1.0000
  H   H122      1.0  0.77475  0.8617  0.49116999999999994  1.0000
  H   H123      1.0  0.7933900000000003  0.73495  0.4865399999999999  1.0000
  H   H124      1.0  0.51656  0.71092  0.41869  1.0000
  H   H125      1.0  0.39035  0.81042  0.61146  1.0000
  H   H126      1.0  0.54083  0.8001499999999999  0.68059  1.0000
  H   H127      1.0  0.65481  0.89848  0.68285  1.0000
  H   H128      1.0  0.48408  0.01045  0.55482  1.0000
  C   C1        1.0  0.96092  0.41248999999999997  0.8398399999999999  1.0000
  C   C2        1.0  0.05847  0.43412  0.81576  1.0000
  C   C3        1.0  0.13242  0.45482  0.8585599999999999  1.0000
  C   C4        1.0  0.21827  0.47497  0.8295499999999999  1.0000
  C   C5        1.0  0.22867000000000004  0.47369  0.75918  1.0000
  C   C6        1.0  0.07369  0.4351799999999999  0.74569  1.0000
  C   C7        1.0  0.84036  0.5300999999999999  0.9214499999999999  1.0000
  C   C8        1.0  0.92303  0.57759  0.9106099999999999  1.0000
  C   C9        1.0  0.93901  0.61421  0.8508699999999999  1.0000
  C   C10       1.0  0.02246  0.65225  0.84553  1.0000
  C   C11       1.0  0.08667  0.6536099999999999  0.89957  1.0000
  C   C12       1.0  0.99135  0.58149  0.9619999999999999  1.0000
  C   C13       1.0  0.95921  0.08958  0.66089  1.0000
  C   C14       1.0  0.05676000000000001  0.06677  0.68437  1.0000
  C   C15       1.0  0.13017  0.04588  0.64127  1.0000
  C   C16       1.0  0.21623000000000003  0.02521  0.66984  1.0000
  C   C17       1.0  0.22728  0.02588  0.74018  1.0000
  C   C18       1.0  0.07268  0.06514999999999999  0.75434  1.0000
  C   C19       1.0  0.8424  0.97071  0.5792  1.0000
  C   C20       1.0  0.92482  0.9227899999999998  0.5894  1.0000
  C   C21       1.0  0.94081  0.88605  0.64913  1.0000
  C   C22       1.0  0.023840000000000007  0.8473999999999999  0.6543  1.0000
  C   C23       1.0  0.08771  0.8457299999999999  0.60019  1.0000
  C   C24       1.0  0.9926100000000001  0.9183999999999999  0.53783  1.0000
  C   C25       1.0  0.9594  0.66071  0.41202999999999995  1.0000
  C   C26       1.0  0.05773  0.684  0.43339999999999995  1.0000
  C   C27       1.0  0.13091  0.64071  0.45454  1.0000
  C   C28       1.0  0.21717  0.6691699999999999  0.47487  1.0000
  C   C29       1.0  0.22876  0.73946  0.47333  1.0000
  C   C30       1.0  0.07429  0.75401  0.43419  1.0000
  C   C31       1.0  0.84036  0.57954  0.53003  1.0000
  C   C32       1.0  0.9231  0.59021  0.57761  1.0000
  C   C33       1.0  0.9392600000000001  0.64989  0.61445  1.0000
  C   C34       1.0  0.02271  0.65497  0.65267  1.0000
  C   C35       1.0  0.08669000000000002  0.60077  0.65395  1.0000
  C   C36       1.0  0.99125  0.53865  0.58135  1.0000
  C   C37       1.0  0.9589700000000001  0.8381699999999999  0.08803  1.0000
  C   C38       1.0  0.05696  0.81479  0.06643  1.0000
  C   C39       1.0  0.13004  0.858  0.04546  1.0000
  C   C40       1.0  0.21666  0.8296999999999999  0.02576  1.0000
  C   C41       1.0  0.22857  0.75944  0.02751  1.0000
  C   C42       1.0  0.07365  0.74486  0.06572  1.0000
  C   C43       1.0  0.84071  0.9214399999999999  0.9698999999999999  1.0000
  C   C44       1.0  0.92349  0.91032  0.92261  1.0000
  C   C45       1.0  0.93928  0.85038  0.8860599999999998  1.0000
  C   C46       1.0  0.022350000000000005  0.84482  0.8476399999999998  1.0000
  C   C47       1.0  0.08640000000000003  0.8988199999999998  0.8458199999999999  1.0000
  C   C48       1.0  0.99165  0.96161  0.9184600000000002  1.0000
  C   C49       1.0  0.539  0.58913  0.3393  1.0000
  C   C50       1.0  0.44166000000000005  0.56687  0.31527  1.0000
  C   C51       1.0  0.3687  0.5456  0.35846  1.0000
  C   C52       1.0  0.28273  0.5248  0.32997  1.0000
  C   C53       1.0  0.27136  0.52597  0.25966  1.0000
  C   C54       1.0  0.42542  0.56591  0.24532999999999996  1.0000
  C   C55       1.0  0.65765  0.4696499999999999  0.42055999999999993  1.0000
  C   C56       1.0  0.57499  0.42201  0.41024999999999995  1.0000
  C   C57       1.0  0.55854  0.38535999999999987  0.35047  1.0000
  C   C58       1.0  0.47539  0.34691999999999995  0.34542  1.0000
  C   C59       1.0  0.41169  0.34543  0.39963  1.0000
  C   C60       1.0  0.50736  0.41776  0.4619599999999999  1.0000
  C   C61       1.0  0.54086  0.91197  0.16183  1.0000
  C   C62       1.0  0.4427400000000001  0.93378  0.18487  1.0000
  C   C63       1.0  0.36974  0.9547499999999998  0.14139  1.0000
  C   C64       1.0  0.28321  0.97489  0.16949  1.0000
  C   C65       1.0  0.27132  0.97355  0.23973  1.0000
  C   C66       1.0  0.42596000000000006  0.93471  0.25472999999999996  1.0000
  C   C67       1.0  0.65806  0.029509999999999995  0.07783  1.0000
  C   C68       1.0  0.57554  0.07736  0.08795  1.0000
  C   C69       1.0  0.5594  0.11365  0.14798  1.0000
  C   C70       1.0  0.47639  0.15229  0.15332  1.0000
  C   C71       1.0  0.41262  0.15433  0.09902999999999999  1.0000
  C   C72       1.0  0.50777  0.08206  0.03626  1.0000
  C   C73       1.0  0.53894  0.33905  0.9109299999999999  1.0000
  C   C74       1.0  0.44103  0.3154199999999999  0.93256  1.0000
  C   C75       1.0  0.368  0.35859  0.95423  1.0000
  C   C76       1.0  0.28187  0.3301299999999999  0.97464  1.0000
  C   C77       1.0  0.27018  0.25987  0.9724599999999999  1.0000
  C   C78       1.0  0.42445  0.24548  0.9328799999999999  1.0000
  C   C79       1.0  0.6582200000000001  0.4205  0.02907  1.0000
  C   C80       1.0  0.57585  0.41040999999999994  0.07694  1.0000
  C   C81       1.0  0.55986  0.35066  0.11360999999999999  1.0000
  C   C82       1.0  0.47706  0.34568  0.15238  1.0000
  C   C83       1.0  0.41322  0.39992999999999995  0.15407  1.0000
  C   C84       1.0  0.50806  0.46212999999999993  0.08134  1.0000
  C   C85       1.0  0.54089  0.162  0.58793  1.0000
  C   C86       1.0  0.44236  0.18485  0.56661  1.0000
  C   C87       1.0  0.36961  0.1413  0.54552  1.0000
  C   C88       1.0  0.28313  0.16938  0.52504  1.0000
  C   C89       1.0  0.27086  0.23964  0.52635  1.0000
  C   C90       1.0  0.42522  0.25474  0.5656  1.0000
  C   C91       1.0  0.6583000000000001  0.07824  0.4696699999999999  1.0000
  C   C92       1.0  0.57566  0.08894  0.42207999999999996  1.0000
  C   C93       1.0  0.55974  0.14881  0.38556  1.0000
  C   C94       1.0  0.47629  0.1544  0.34742999999999996  1.0000
  C   C95       1.0  0.41189  0.10058999999999998  0.34611  1.0000
  C   C96       1.0  0.5074  0.03768  0.41811999999999994  1.0000
  C   C97       1.0  0.03899  0.58759  0.15999  1.0000
  C   C98       1.0  0.94116  0.5661799999999999  0.1839  1.0000
  C   C99       1.0  0.86768  0.5449999999999999  0.14091  1.0000
  C   C100      1.0  0.78171  0.5246599999999999  0.16966  1.0000
  C   C101      1.0  0.77058  0.52634  0.23995  1.0000
  C   C102      1.0  0.9252  0.56541  0.2539  1.0000
  C   C103      1.0  0.15896  0.4696  0.07827  1.0000
  C   C104      1.0  0.07637  0.42216  0.0891  1.0000
  C   C105      1.0  0.06033  0.38571999999999995  0.14894999999999997  1.0000
  C   C106      1.0  0.97698  0.34757999999999994  0.15422  1.0000
  C   C107      1.0  0.91296  0.34605  0.10007  1.0000
  C   C108      1.0  0.00832  0.41804  0.03758  1.0000
  C   C109      1.0  0.04068  0.91176  0.33918999999999994  1.0000
  C   C110      1.0  0.94248  0.93327  0.31578  1.0000
  C   C111      1.0  0.86933  0.95461  0.35888999999999993  1.0000
  C   C112      1.0  0.78313  0.97502  0.33032  1.0000
  C   C113      1.0  0.77158  0.9734299999999999  0.26003  1.0000
  C   C114      1.0  0.92588  0.93378  0.24582  1.0000
  C   C115      1.0  0.15794000000000002  0.029619999999999997  0.42084  1.0000
  C   C116      1.0  0.07531  0.07730999999999999  0.41051  1.0000
  C   C117      1.0  0.059060000000000015  0.1139  0.35075  1.0000
  C   C118      1.0  0.97593  0.15243999999999996  0.34562  1.0000
  C   C119      1.0  0.9121700000000003  0.15409  0.39979  1.0000
  C   C120      1.0  0.007620000000000002  0.08157  0.46213999999999994  1.0000
  C   C121      1.0  0.03892  0.33962  0.58768  1.0000
  C   C122      1.0  0.94105  0.31606  0.56594  1.0000
  C   C123      1.0  0.8674600000000002  0.35907  0.5449  1.0000
  C   C124      1.0  0.78169  0.3302  0.52415  1.0000
  C   C125      1.0  0.7709800000000002  0.25983  0.5252199999999999  1.0000
  C   C126      1.0  0.9253300000000001  0.24603999999999998  0.565  1.0000
  C   C127      1.0  0.15783  0.4206599999999999  0.46965  1.0000
  C   C128      1.0  0.07547  0.41053  0.42175999999999997  1.0000
  C   C129      1.0  0.05925  0.35069  0.38514  1.0000
  C   C130      1.0  0.9759000000000002  0.34571  0.34683  1.0000
  C   C131      1.0  0.9120200000000002  0.39996999999999994  0.3455  1.0000
  C   C132      1.0  0.007779999999999999  0.46231  0.41761999999999994  1.0000
  C   C133      1.0  0.03932  0.15976999999999997  0.9103700000000001  1.0000
  C   C134      1.0  0.94216  0.18407  0.93274  1.0000
  C   C135      1.0  0.86915  0.1412  0.95456  1.0000
  C   C136      1.0  0.7831700000000003  0.17005  0.9748399999999999  1.0000
  C   C137      1.0  0.77194  0.24038  0.9727899999999999  1.0000
  C   C138      1.0  0.9262  0.25408  0.93313  1.0000
  C   C139      1.0  0.15785  0.07788  0.029160000000000002  1.0000
  C   C140      1.0  0.07571000000000001  0.08827  0.07713  1.0000
  C   C141      1.0  0.059750000000000004  0.14835999999999996  0.11339  1.0000
  C   C142      1.0  0.9769100000000001  0.15379999999999996  0.15202999999999997  1.0000
  C   C143      1.0  0.91313  0.09962  0.1541  1.0000
  C   C144      1.0  0.00811  0.03662  0.08197  1.0000
  C   C145      1.0  0.45901  0.41076  0.66067  1.0000
  C   C146      1.0  0.55687  0.43304999999999993  0.6838  1.0000
  C   C147      1.0  0.6299100000000001  0.45408999999999994  0.64059  1.0000
  C   C148      1.0  0.71591  0.47481999999999996  0.66918  1.0000
  C   C149      1.0  0.7273500000000002  0.47373  0.7395  1.0000
  C   C150      1.0  0.57315  0.43427999999999994  0.7537599999999999  1.0000
  C   C151      1.0  0.34134000000000003  0.53028  0.57953  1.0000
  C   C152      1.0  0.42411  0.57784  0.59002  1.0000
  C   C153      1.0  0.44067  0.61468  0.64968  1.0000
  C   C154      1.0  0.52402  0.6529199999999998  0.6545699999999999  1.0000
  C   C155      1.0  0.58754  0.65426  0.6002599999999999  1.0000
  C   C156      1.0  0.49172  0.58173  0.53828  1.0000
  C   C157      1.0  0.45885  0.0879  0.8377899999999999  1.0000
  C   C158      1.0  0.5573  0.06642  0.8151  1.0000
  C   C159      1.0  0.6301000000000001  0.04527  0.85867  1.0000
  C   C160      1.0  0.71695  0.02562  0.8307099999999998  1.0000
  C   C161      1.0  0.7294300000000002  0.027739999999999997  0.76054  1.0000
  C   C162      1.0  0.57472  0.06624  0.74533  1.0000
  C   C163      1.0  0.34028  0.96939  0.9219799999999999  1.0000
  C   C164      1.0  0.42288  0.92171  0.9113999999999999  1.0000
  C   C165      1.0  0.43913000000000013  0.88552  0.85131  1.0000
  C   C166      1.0  0.52275  0.8475799999999999  0.84574  1.0000
  C   C167      1.0  0.58676  0.84577  0.89984  1.0000
  C   C168      1.0  0.49103  0.91753  0.96284  1.0000
  C   C169      1.0  0.45891  0.6610299999999999  0.08929999999999999  1.0000
  C   C170      1.0  0.55662  0.6845099999999998  0.06705999999999998  1.0000
  C   C171      1.0  0.6297100000000002  0.64127  0.04573  1.0000
  C   C172      1.0  0.71575  0.6696699999999999  0.025119999999999996  1.0000
  C   C173      1.0  0.72722  0.73997  0.02656  1.0000
  C   C174      1.0  0.57306  0.7544799999999998  0.06633  1.0000
  C   C175      1.0  0.34173  0.57906  0.97063  1.0000
  C   C176      1.0  0.4240300000000001  0.5892399999999999  0.9228099999999999  1.0000
  C   C177      1.0  0.44005  0.6490699999999999  0.8863  1.0000
  C   C178      1.0  0.52295  0.65408  0.8476599999999999  1.0000
  C   C179      1.0  0.5866  0.59972  0.84574  1.0000
  C   C180      1.0  0.49165  0.53745  0.9183199999999999  1.0000
  C   C181      1.0  0.45881  0.83967  0.41098  1.0000
  C   C182      1.0  0.55654  0.81582  0.43288999999999994  1.0000
  C   C183      1.0  0.62996  0.8587899999999999  0.45397  1.0000
  C   C184      1.0  0.7158900000000002  0.83  0.47457999999999995  1.0000
  C   C185      1.0  0.72695  0.75964  0.47339  1.0000
  C   C186      1.0  0.57246  0.7457599999999998  0.43392  1.0000
  C   C187      1.0  0.3423  0.92206  0.53034  1.0000
  C   C188      1.0  0.42512  0.91173  0.57795  1.0000
  C   C189      1.0  0.44132  0.8518699999999999  0.61447  1.0000
  C   C190      1.0  0.5247  0.84645  0.65269  1.0000
  C   C191      1.0  0.5887400000000003  0.9005  0.65419  1.0000
  C   C192      1.0  0.4931600000000001  0.9631899999999999  0.58211  1.0000
  N   N1        1.0  0.1567  0.45445999999999986  0.71803  1.0000
  N   N2        1.0  0.07082  0.61879  0.9573700000000002  1.0000
  N   N3        1.0  0.15569  0.04503999999999998  0.7816  1.0000
  N   N4        1.0  0.07183  0.88067  0.54243  1.0000
  N   N5        1.0  0.15763  0.7812099999999998  0.45369  1.0000
  N   N6        1.0  0.07072  0.54305  0.61879  1.0000
  N   N7        1.0  0.15723  0.71783  0.046619999999999995  1.0000
  N   N8        1.0  0.07066  0.95671  0.88072  1.0000
  N   N9        1.0  0.34236  0.54587  0.21815  1.0000
  N   N10       1.0  0.42794  0.38038  0.45741  1.0000
  N   N11       1.0  0.34248  0.9542299999999999  0.28156  1.0000
  N   N12       1.0  0.4285  0.11972999999999998  0.04101  1.0000
  N   N13       1.0  0.34116  0.21827999999999997  0.9522899999999999  1.0000
  N   N14       1.0  0.42897  0.45762999999999987  0.11904  1.0000
  N   N15       1.0  0.34171  0.28156  0.54593  1.0000
  N   N16       1.0  0.4277900000000001  0.04272  0.3809  1.0000
  N   N17       1.0  0.8420400000000002  0.54602  0.28132  1.0000
  N   N18       1.0  0.92891  0.38071  0.04218  1.0000
  N   N19       1.0  0.8426  0.9533499999999999  0.21852  1.0000
  N   N20       1.0  0.9283000000000001  0.11916  0.45753999999999995  1.0000
  N   N21       1.0  0.84246  0.21855999999999998  0.5451199999999999  1.0000
  N   N22       1.0  0.92814  0.45778  0.3804  1.0000
  N   N23       1.0  0.84319  0.28166  0.9528199999999999  1.0000
  N   N24       1.0  0.9289500000000003  0.04154  0.11958  1.0000
  N   N25       1.0  0.65626  0.45405999999999996  0.7810499999999999  1.0000
  N   N26       1.0  0.5710400000000001  0.6192  0.54257  1.0000
  N   N27       1.0  0.6585700000000001  0.047369999999999995  0.7186  1.0000
  N   N28       1.0  0.57063  0.88032  0.9578499999999999  1.0000
  N   N29       1.0  0.6562  0.78159  0.04652  1.0000
  N   N30       1.0  0.57063  0.5419  0.88053  1.0000
  N   N31       1.0  0.65551  0.7182999999999999  0.45372  1.0000
  N   N32       1.0  0.57268  0.95839  0.61947  1.0000
  O   O1        1.0  0.95655  0.39784  0.9040699999999999  1.0000
  O   O2        1.0  0.89514  0.41095  0.79784  1.0000
  O   O3        1.0  0.84736  0.49105  0.9725400000000001  1.0000
  O   O4        1.0  0.7724900000000001  0.53225  0.8784999999999998  1.0000
  O   O5        1.0  0.95367  0.10127999999999998  0.59603  1.0000
  O   O6        1.0  0.89503  0.09444  0.7037  1.0000
  O   O7        1.0  0.84776  0.00948  0.52784  1.0000
  O   O8        1.0  0.77601  0.96937  0.62315  1.0000
  O   O9        1.0  0.95332  0.5963699999999998  0.39772  1.0000
  O   O10       1.0  0.89477  0.7036  0.41071  1.0000
  O   O11       1.0  0.8472900000000001  0.5283799999999998  0.49104  1.0000
  O   O12       1.0  0.77254  0.6225999999999999  0.53209  1.0000
  O   O13       1.0  0.95312  0.90276  0.10107  1.0000
  O   O14       1.0  0.89464  0.79523  0.0909  1.0000
  O   O15       1.0  0.84741  0.97243  0.00923  1.0000
  O   O16       1.0  0.7728300000000002  0.8785999999999999  0.96695  1.0000
  O   O17       1.0  0.54324  0.60214  0.40402  1.0000
  O   O18       1.0  0.60431  0.5925  0.29715  1.0000
  O   O19       1.0  0.65216  0.50859  0.47187  1.0000
  O   O20       1.0  0.72436  0.46784  0.37687  1.0000
  O   O21       1.0  0.54663  0.89899  0.09722  1.0000
  O   O22       1.0  0.60513  0.9089099999999999  0.20486999999999997  1.0000
  O   O23       1.0  0.65221  0.99034  0.02667  1.0000
  O   O24       1.0  0.72472  0.03127  0.12167  1.0000
  O   O25       1.0  0.54353  0.40349  0.89676  1.0000
  O   O26       1.0  0.60434  0.2967  0.90912  1.0000
  O   O27       1.0  0.65208  0.47154999999999997  0.98989  1.0000
  O   O28       1.0  0.7252  0.37694999999999995  0.03093  1.0000
  O   O29       1.0  0.54721  0.09766  0.60209  1.0000
  O   O30       1.0  0.60517  0.20505999999999996  0.58947  1.0000
  O   O31       1.0  0.65244  0.027109999999999995  0.50867  1.0000
  O   O32       1.0  0.72525  0.12177  0.46765  1.0000
  O   O33       1.0  0.04356  0.60174  0.09562  1.0000
  O   O34       1.0  0.10461  0.58922  0.20211  1.0000
  O   O35       1.0  0.15244  0.5085699999999999  0.02709  1.0000
  O   O36       1.0  0.22653000000000004  0.46753999999999996  0.12144999999999999  1.0000
  O   O37       1.0  0.04678  0.89888  0.40377  1.0000
  O   O38       1.0  0.10506  0.9090099999999999  0.2963  1.0000
  O   O39       1.0  0.15243  0.9907099999999999  0.47202  1.0000
  O   O40       1.0  0.22460000000000005  0.03149  0.37705  1.0000
  O   O41       1.0  0.04353  0.40396999999999994  0.6022  1.0000
  O   O42       1.0  0.10416000000000003  0.29711  0.58924  1.0000
  O   O43       1.0  0.15209  0.47177  0.50884  1.0000
  O   O44       1.0  0.22462000000000004  0.37693  0.46778  1.0000
  O   O45       1.0  0.04349  0.09473999999999999  0.8988299999999999  1.0000
  O   O46       1.0  0.10452  0.20183  0.90564  1.0000
  O   O47       1.0  0.15212  0.02655  0.99021  1.0000
  O   O48       1.0  0.22432  0.12173999999999999  0.03068  1.0000
  O   O49       1.0  0.4529  0.3977899999999999  0.59608  1.0000
  O   O50       1.0  0.39495  0.40728999999999993  0.70373  1.0000
  O   O51       1.0  0.34745  0.49129  0.52833  1.0000
  O   O52       1.0  0.27417  0.53231  0.6228799999999999  1.0000
  O   O53       1.0  0.45254000000000005  0.10084  0.9023600000000002  1.0000
  O   O54       1.0  0.39479000000000003  0.09086999999999999  0.7946  1.0000
  O   O55       1.0  0.34713  0.00909  0.9726499999999999  1.0000
  O   O56       1.0  0.27275  0.96663  0.8787499999999999  1.0000
  O   O57       1.0  0.45308000000000004  0.59617  0.10094  1.0000
  O   O58       1.0  0.39472  0.7039499999999999  0.09408  1.0000
  O   O59       1.0  0.3475  0.52779  0.00949  1.0000
  O   O60       1.0  0.2752  0.62301  0.9691  1.0000
  O   O61       1.0  0.45341  0.90438  0.39822  1.0000
  O   O62       1.0  0.3941  0.7971699999999999  0.40752  1.0000
  O   O63       1.0  0.34772  0.97332  0.49145  1.0000
  O   O64       1.0  0.27568  0.8782699999999999  0.53219  1.0000
  O   O65       1.0  0.75028  0.39094  0.88967  1.0000
  O   O66       1.0  0.75153  0.1106  0.60897  1.0000
  O   O67       1.0  0.74817  0.60935  0.39092  1.0000
  O   O68       1.0  0.74945  0.8905499999999998  0.10846  1.0000
  O   O69       1.0  0.24849000000000002  0.60871  0.10984  1.0000
  O   O70       1.0  0.25085  0.8915299999999999  0.39083  1.0000
  O   O71       1.0  0.24846000000000004  0.39077  0.60907  1.0000
  O   O72       1.0  0.24787  0.10770999999999999  0.88943  1.0000
