data_image0
_chemical_formula_structural       Zn14H168C312N96
_chemical_formula_sum              "Zn14 H168 C312 N96"
_cell_length_a       23.67028
_cell_length_b       23.66979
_cell_length_c       23.66991
_cell_angle_alpha    109.50235
_cell_angle_beta     109.508
_cell_angle_gamma    109.5081

_space_group_name_H-M_alt    "P 1"
_space_group_IT_number       1

loop_
  _space_group_symop_operation_xyz
  'x, y, z'

loop_
  _atom_site_type_symbol
  _atom_site_label
  _atom_site_symmetry_multiplicity
  _atom_site_fract_x
  _atom_site_fract_y
  _atom_site_fract_z
  _atom_site_occupancy
  Zn  Zn1       1.0  0.99997  1.0000000000005584e-05  0.27428  1.0000
  Zn  Zn2       1.0  0.5000099999999998  0.7742799999999999  0.99998  1.0000
  Zn  Zn3       1.0  0.22572  0.72572  0.22571999999999998  1.0000
  Zn  Zn4       1.0  0.27428  0.49998  0.50001  1.0000
  Zn  Zn5       1.0  9.999999999947908e-06  0.9999799999999999  0.77428  1.0000
  Zn  Zn6       1.0  0.49998  0.27428  1e-05  1.0000
  Zn  Zn7       1.0  0.7742800000000001  0.50001  0.4999799999999999  1.0000
  Zn  Zn8       1.0  0.7257200000000003  0.22572  0.7257199999999999  1.0000
  Zn  Zn9       1.0  0.75  0.12519999999999995  0.37491  1.0000
  Zn  Zn10      1.0  0.25  0.37491  0.1252  1.0000
  Zn  Zn11      1.0  0.37491  0.25001  0.6252  1.0000
  Zn  Zn12      1.0  0.12519999999999995  0.75  0.8749099999999999  1.0000
  Zn  Zn13      1.0  0.8749100000000003  0.6252  0.25  1.0000
  Zn  Zn14      1.0  0.6252  0.87492  0.75  1.0000
  H   H1        1.0  0.9098399999999998  0.92812  0.33326  1.0000
  H   H2        1.0  0.8350600000000001  0.9513000000000001  0.38112  1.0000
  H   H3        1.0  0.80573  0.041600000000000005  0.3752  1.0000
  H   H4        1.0  0.03294  0.08341  0.19655  1.0000
  H   H5        1.0  0.002620000000000001  0.16699  0.16967  1.0000
  H   H6        1.0  0.9246  0.19866999999999999  0.20820999999999998  1.0000
  H   H7        1.0  0.78942  0.22321  0.31861  1.0000
  H   H8        1.0  0.59012  0.92332  0.01821  1.0000
  H   H9        1.0  0.665  0.04616  0.11635  1.0000
  H   H10       1.0  0.69433  0.06965999999999997  0.23603  1.0000
  H   H11       1.0  0.46684  0.66325  0.05018  1.0000
  H   H12       1.0  0.49721  0.6668  0.16416  1.0000
  H   H13       1.0  0.5753700000000003  0.78358  0.27405  1.0000
  H   H14       1.0  0.71081  0.029539999999999976  0.43404999999999994  1.0000
  H   H15       1.0  0.09468  0.5764  0.1666  1.0000
  H   H16       1.0  0.06991000000000001  0.45367  0.11874999999999998  1.0000
  H   H17       1.0  0.16612  0.43029000000000006  0.12466999999999999  1.0000
  H   H18       1.0  0.38712000000000013  0.8367  0.30362999999999996  1.0000
  H   H19       1.0  0.49765000000000004  0.83335  0.33052999999999993  1.0000
  H   H20       1.0  0.4907100000000001  0.71672  0.29194  1.0000
  H   H21       1.0  0.40459999999999996  0.47085999999999995  0.18146  1.0000
  H   H22       1.0  0.4055100000000001  0.57214  0.48202999999999996  1.0000
  H   H23       1.0  0.43007999999999996  0.5489199999999999  0.38400999999999996  1.0000
  H   H24       1.0  0.33368000000000003  0.45847  0.26421  1.0000
  H   H25       1.0  0.11319000000000001  0.41661  0.44956  1.0000
  H   H26       1.0  0.002500000000000016  0.33289  0.33548  1.0000
  H   H27       1.0  0.009230000000000006  0.30112  0.22569  1.0000
  H   H28       1.0  0.09514  0.27656  0.06588  1.0000
  H   H29       1.0  0.018200000000000008  0.09011  0.42331  1.0000
  H   H30       1.0  0.11636  0.16499  0.54615  1.0000
  H   H31       1.0  0.23604  0.19434  0.56966  1.0000
  H   H32       1.0  0.05017  0.96685  0.16325  1.0000
  H   H33       1.0  0.16416  0.99721  0.16681  1.0000
  H   H34       1.0  0.27405  0.07536999999999998  0.28358  1.0000
  H   H35       1.0  0.4340600000000001  0.21082  0.52955  1.0000
  H   H36       1.0  0.33325  0.40985  0.42812  1.0000
  H   H37       1.0  0.38112  0.33507  0.4512999999999999  1.0000
  H   H38       1.0  0.3752000000000001  0.30573  0.54161  1.0000
  H   H39       1.0  0.19656  0.53294  0.5834  1.0000
  H   H40       1.0  0.16967000000000002  0.50262  0.66698  1.0000
  H   H41       1.0  0.20821000000000003  0.4246  0.69866  1.0000
  H   H42       1.0  0.31862  0.28940999999999995  0.72321  1.0000
  H   H43       1.0  0.4820300000000001  0.9055  0.07213  1.0000
  H   H44       1.0  0.38401  0.93007  0.04891999999999999  1.0000
  H   H45       1.0  0.26419999999999993  0.83368  0.9584599999999999  1.0000
  H   H46       1.0  0.44956999999999997  0.6132099999999999  0.9166099999999999  1.0000
  H   H47       1.0  0.33548  0.50251  0.8329  1.0000
  H   H48       1.0  0.22569  0.50924  0.80112  1.0000
  H   H49       1.0  0.0658799999999999  0.5951399999999998  0.77656  1.0000
  H   H50       1.0  0.16659999999999997  0.59469  0.07641  1.0000
  H   H51       1.0  0.11875000000000005  0.56993  0.95368  1.0000
  H   H52       1.0  0.12466999999999998  0.66614  0.93029  1.0000
  H   H53       1.0  0.30362  0.88711  0.33669  1.0000
  H   H54       1.0  0.33053000000000005  0.99764  0.33334  1.0000
  H   H55       1.0  0.29194  0.99071  0.21670999999999999  1.0000
  H   H56       1.0  0.18146  0.9046099999999999  0.97084  1.0000
  H   H57       1.0  0.0721299999999999  0.9820299999999997  0.4055  1.0000
  H   H58       1.0  0.04891999999999995  0.884  0.43006999999999995  1.0000
  H   H59       1.0  0.95846  0.7642  0.33368  1.0000
  H   H60       1.0  0.91661  0.94958  0.11319  1.0000
  H   H61       1.0  0.8329  0.8354899999999998  0.0025  1.0000
  H   H62       1.0  0.8011200000000003  0.7257000000000001  0.009229999999999999  1.0000
  H   H63       1.0  0.77657  0.56588  0.09515  1.0000
  H   H64       1.0  0.07639999999999998  0.6666  0.09468  1.0000
  H   H65       1.0  0.95367  0.61875  0.06992  1.0000
  H   H66       1.0  0.93028  0.62467  0.16613  1.0000
  H   H67       1.0  0.3367  0.80363  0.38712  1.0000
  H   H68       1.0  0.3333499999999999  0.8305399999999998  0.49764  1.0000
  H   H69       1.0  0.21671000000000004  0.79195  0.49069999999999997  1.0000
  H   H70       1.0  0.97085  0.6814600000000001  0.4046  1.0000
  H   H71       1.0  0.42332  0.51821  0.59011  1.0000
  H   H72       1.0  0.54616  0.61636  0.665  1.0000
  H   H73       1.0  0.56966  0.73604  0.69434  1.0000
  H   H74       1.0  0.16324  0.55017  0.46684  1.0000
  H   H75       1.0  0.16679999999999998  0.66416  0.4972  1.0000
  H   H76       1.0  0.28356999999999993  0.77404  0.57537  1.0000
  H   H77       1.0  0.52955  0.93406  0.71081  1.0000
  H   H78       1.0  0.42812000000000006  0.8332599999999999  0.9098400000000001  1.0000
  H   H79       1.0  0.4513  0.88112  0.83506  1.0000
  H   H80       1.0  0.5415999999999999  0.8752099999999999  0.8057299999999998  1.0000
  H   H81       1.0  0.5834100000000001  0.69655  0.03295  1.0000
  H   H82       1.0  0.66699  0.66967  0.0026299999999999995  1.0000
  H   H83       1.0  0.69866  0.70821  0.9245999999999999  1.0000
  H   H84       1.0  0.7232100000000001  0.81862  0.78941  1.0000
  H   H85       1.0  0.09011000000000001  0.018210000000000018  0.92332  1.0000
  H   H86       1.0  0.16500000000000004  0.11634999999999998  0.04616  1.0000
  H   H87       1.0  0.19433000000000003  0.23603  0.06966  1.0000
  H   H88       1.0  0.9668400000000001  0.050179999999999995  0.66324  1.0000
  H   H89       1.0  0.99721  0.16417000000000007  0.6668  1.0000
  H   H90       1.0  0.07536999999999991  0.27404999999999985  0.7835699999999999  1.0000
  H   H91       1.0  0.21081  0.43406000000000006  0.02954  1.0000
  H   H92       1.0  0.40984  0.33325999999999995  0.9281199999999998  1.0000
  H   H93       1.0  0.33505999999999997  0.3811199999999999  0.9512999999999999  1.0000
  H   H94       1.0  0.30573  0.37521  0.0416  1.0000
  H   H95       1.0  0.53294  0.19655  0.08341  1.0000
  H   H96       1.0  0.50262  0.16967  0.16699  1.0000
  H   H97       1.0  0.4246000000000001  0.20820999999999998  0.19866  1.0000
  H   H98       1.0  0.28942  0.31861  0.22321  1.0000
  H   H99       1.0  0.9055100000000003  0.48203  0.57213  1.0000
  H   H100      1.0  0.93008  0.38400999999999996  0.54892  1.0000
  H   H101      1.0  0.83368  0.26420999999999994  0.4584599999999999  1.0000
  H   H102      1.0  0.6132  0.4495700000000001  0.41661  1.0000
  H   H103      1.0  0.5025  0.33548  0.33289  1.0000
  H   H104      1.0  0.50923  0.22569  0.30112  1.0000
  H   H105      1.0  0.59514  0.06589  0.27656  1.0000
  H   H106      1.0  0.59468  0.16659999999999997  0.5763999999999999  1.0000
  H   H107      1.0  0.56991  0.11874999999999995  0.45367  1.0000
  H   H108      1.0  0.6661200000000002  0.12466999999999995  0.43029  1.0000
  H   H109      1.0  0.88712  0.30363  0.8367  1.0000
  H   H110      1.0  0.9976500000000001  0.33053  0.83334  1.0000
  H   H111      1.0  0.99071  0.29195  0.71671  1.0000
  H   H112      1.0  0.90461  0.18146000000000007  0.47085  1.0000
  H   H113      1.0  0.98203  0.07212999999999996  0.9055  1.0000
  H   H114      1.0  0.8840099999999999  0.04891999999999993  0.9300599999999999  1.0000
  H   H115      1.0  0.7642  0.95846  0.83367  1.0000
  H   H116      1.0  0.9495700000000002  0.91662  0.6131999999999999  1.0000
  H   H117      1.0  0.83549  0.8328999999999999  0.50251  1.0000
  H   H118      1.0  0.72569  0.80112  0.50923  1.0000
  H   H119      1.0  0.56588  0.77657  0.59514  1.0000
  H   H120      1.0  0.6666100000000001  0.07640999999999999  0.59469  1.0000
  H   H121      1.0  0.6187499999999999  0.9536799999999999  0.5699199999999999  1.0000
  H   H122      1.0  0.62467  0.93029  0.66613  1.0000
  H   H123      1.0  0.8036200000000001  0.3367  0.88711  1.0000
  H   H124      1.0  0.83053  0.3333399999999999  0.9976299999999999  1.0000
  H   H125      1.0  0.7919400000000001  0.21670999999999999  0.9907  1.0000
  H   H126      1.0  0.68146  0.97085  0.9046  1.0000
  H   H127      1.0  0.5182  0.42331  0.09010999999999998  1.0000
  H   H128      1.0  0.61636  0.54615  0.16499  1.0000
  H   H129      1.0  0.73604  0.56966  0.19433  1.0000
  H   H130      1.0  0.5501699999999999  0.16324999999999995  0.9668399999999999  1.0000
  H   H131      1.0  0.6641600000000001  0.16680999999999996  0.99721  1.0000
  H   H132      1.0  0.77405  0.28358  0.07537  1.0000
  H   H133      1.0  0.93406  0.52955  0.21082  1.0000
  H   H134      1.0  0.8332500000000003  0.42812  0.40985  1.0000
  H   H135      1.0  0.88112  0.45130999999999993  0.3350699999999999  1.0000
  H   H136      1.0  0.8752  0.54161  0.30573  1.0000
  H   H137      1.0  0.69656  0.58341  0.53294  1.0000
  H   H138      1.0  0.66968  0.66699  0.50262  1.0000
  H   H139      1.0  0.70821  0.69867  0.4245999999999999  1.0000
  H   H140      1.0  0.81862  0.72322  0.28941  1.0000
  H   H141      1.0  0.9281300000000001  0.90984  0.83326  1.0000
  H   H142      1.0  0.9513  0.83506  0.88112  1.0000
  H   H143      1.0  0.041599999999999956  0.8057299999999998  0.8751999999999999  1.0000
  H   H144      1.0  0.08340999999999997  0.03295000000000001  0.69655  1.0000
  H   H145      1.0  0.16699000000000003  0.0026300000000000355  0.66967  1.0000
  H   H146      1.0  0.19866000000000003  0.9246099999999999  0.70821  1.0000
  H   H147      1.0  0.22321000000000002  0.78942  0.8186199999999999  1.0000
  H   H148      1.0  0.9233200000000003  0.59011  0.51821  1.0000
  H   H149      1.0  0.04614999999999997  0.665  0.61636  1.0000
  H   H150      1.0  0.06965999999999997  0.69434  0.73604  1.0000
  H   H151      1.0  0.66324  0.4668399999999999  0.55017  1.0000
  H   H152      1.0  0.6668000000000001  0.49721  0.66415  1.0000
  H   H153      1.0  0.78357  0.57537  0.77404  1.0000
  H   H154      1.0  0.029539999999999966  0.71081  0.93406  1.0000
  H   H155      1.0  0.5764000000000001  0.09468999999999997  0.6666  1.0000
  H   H156      1.0  0.45367  0.06992  0.61875  1.0000
  H   H157      1.0  0.43028  0.16612999999999994  0.62467  1.0000
  H   H158      1.0  0.8367  0.38712  0.80362  1.0000
  H   H159      1.0  0.83335  0.49765  0.83053  1.0000
  H   H160      1.0  0.71672  0.49070999999999987  0.7919499999999999  1.0000
  H   H161      1.0  0.47085  0.40461  0.68146  1.0000
  H   H162      1.0  0.57213  0.40551  0.98202  1.0000
  H   H163      1.0  0.54892  0.43007  0.884  1.0000
  H   H164      1.0  0.45846  0.33367999999999987  0.7642  1.0000
  H   H165      1.0  0.41661  0.11319000000000003  0.94957  1.0000
  H   H166      1.0  0.33289  0.0024999999999999628  0.83549  1.0000
  H   H167      1.0  0.30112  0.00923000000000002  0.7257  1.0000
  H   H168      1.0  0.27656000000000003  0.09514999999999998  0.56588  1.0000
  C   C1        1.0  0.8952300000000001  0.96655  0.33065  1.0000
  C   C2        1.0  0.8538500000000001  0.98002  0.3576599999999999  1.0000
  C   C3        1.0  0.83754  0.030410000000000003  0.35417  1.0000
  C   C4        1.0  0.8614400000000002  0.06616  0.3224  1.0000
  C   C5        1.0  0.9036300000000002  0.04922  0.29622  1.0000
  C   C6        1.0  0.99823  0.09736  0.21065  1.0000
  C   C7        1.0  0.9817200000000003  0.14453999999999995  0.19639  1.0000
  C   C8        1.0  0.93918  0.16240999999999997  0.21779  1.0000
  C   C9        1.0  0.91403  0.13322  0.25321  1.0000
  C   C10       1.0  0.9309500000000003  0.08363  0.26325  1.0000
  C   C11       1.0  0.81496  0.19316999999999995  0.31094999999999995  1.0000
  C   C12       1.0  0.8725  0.15012  0.28007  1.0000
  C   C13       1.0  0.8477  0.11823000000000002  0.3141  1.0000
  C   C14       1.0  0.60475  0.9353599999999999  0.07128  1.0000
  C   C15       1.0  0.6461700000000001  0.003859999999999996  0.12622  1.0000
  C   C16       1.0  0.66249  0.016729999999999978  0.19296999999999997  1.0000
  C   C17       1.0  0.6385900000000001  0.96102  0.20476999999999998  1.0000
  C   C18       1.0  0.59635  0.89253  0.14556  1.0000
  C   C19       1.0  0.50162  0.71215  0.09891  1.0000
  C   C20       1.0  0.51815  0.71446  0.16264  1.0000
  C   C21       1.0  0.56076  0.77851  0.22315  1.0000
  C   C22       1.0  0.5859500000000001  0.8391300000000002  0.21916  1.0000
  C   C23       1.0  0.569  0.83218  0.15259999999999999  1.0000
  C   C24       1.0  0.68521  0.99625  0.3784  1.0000
  C   C25       1.0  0.62754  0.9076299999999999  0.27768  1.0000
  C   C26       1.0  0.65235  0.96649  0.27061  1.0000
  C   C27       1.0  0.13574999999999998  0.56446  0.16922  1.0000
  C   C28       1.0  0.12215000000000001  0.496  0.14222  1.0000
  C   C29       1.0  0.17606  0.4832  0.14574  1.0000
  C   C30       1.0  0.24366000000000004  0.53896  0.17757  1.0000
  C   C31       1.0  0.25296  0.6074  0.20372  1.0000
  C   C32       1.0  0.38691000000000003  0.78784  0.28948  1.0000
  C   C33       1.0  0.4484000000000001  0.78565  0.30377  1.0000
  C   C34       1.0  0.44482000000000005  0.7216599999999999  0.28233  1.0000
  C   C35       1.0  0.38011  0.66099  0.24684  1.0000
  C   C36       1.0  0.32044  0.66781  0.23676999999999998  1.0000
  C   C37       1.0  0.38222  0.50406  0.18915  1.0000
  C   C38       1.0  0.37009  0.59253  0.21996  1.0000
  C   C39       1.0  0.3041  0.5336  0.18597  1.0000
  C   C40       1.0  0.36436  0.53362  0.42893  1.0000
  C   C41       1.0  0.37785  0.52014  0.37404  1.0000
  C   C42       1.0  0.32385  0.46965000000000007  0.30723  1.0000
  C   C43       1.0  0.25628  0.43385  0.29532  1.0000
  C   C44       1.0  0.24708  0.4508  0.35448  1.0000
  C   C45       1.0  0.11327999999999996  0.40261  0.40085  1.0000
  C   C46       1.0  0.05170999999999999  0.35537  0.33708  1.0000
  C   C47       1.0  0.05518  0.33745  0.2766  1.0000
  C   C48       1.0  0.11985000000000004  0.36668  0.28069  1.0000
  C   C49       1.0  0.17961999999999995  0.41633  0.34729999999999994  1.0000
  C   C50       1.0  0.11757999999999999  0.30666  0.12153999999999998  1.0000
  C   C51       1.0  0.12978000000000003  0.34975  0.22221  1.0000
  C   C52       1.0  0.19577  0.38169  0.22941  1.0000
  C   C53       1.0  0.07127  0.10473999999999999  0.43535  1.0000
  C   C54       1.0  0.12622  0.14617  0.50385  1.0000
  C   C55       1.0  0.19298  0.16249  0.51673  1.0000
  C   C56       1.0  0.20477  0.13859  0.46101  1.0000
  C   C57       1.0  0.14556  0.09635  0.39253  1.0000
  C   C58       1.0  0.09890000000000002  0.001620000000000009  0.21215  1.0000
  C   C59       1.0  0.16264  0.018149999999999986  0.21446  1.0000
  C   C60       1.0  0.22314999999999996  0.06075999999999998  0.27851999999999993  1.0000
  C   C61       1.0  0.21916  0.08595000000000001  0.33913  1.0000
  C   C62       1.0  0.15259  0.06900000000000002  0.33218  1.0000
  C   C63       1.0  0.37841  0.18522  0.49625  1.0000
  C   C64       1.0  0.27769  0.12753999999999996  0.40763  1.0000
  C   C65       1.0  0.27062  0.15235  0.46648  1.0000
  C   C66       1.0  0.33064  0.39524000000000004  0.46655  1.0000
  C   C67       1.0  0.35765  0.35385  0.48002  1.0000
  C   C68       1.0  0.35417  0.33754  0.53042  1.0000
  C   C69       1.0  0.3224000000000001  0.36144  0.56616  1.0000
  C   C70       1.0  0.29621999999999993  0.40362999999999993  0.54922  1.0000
  C   C71       1.0  0.21065  0.49823  0.59736  1.0000
  C   C72       1.0  0.19639000000000004  0.48172  0.64453  1.0000
  C   C73       1.0  0.21779000000000004  0.43918  0.6624  1.0000
  C   C74       1.0  0.25321  0.41403  0.63321  1.0000
  C   C75       1.0  0.26325  0.43095  0.58363  1.0000
  C   C76       1.0  0.31095000000000006  0.31495  0.69317  1.0000
  C   C77       1.0  0.28006999999999993  0.37249  0.65012  1.0000
  C   C78       1.0  0.31409999999999993  0.34769999999999995  0.6182299999999998  1.0000
  C   C79       1.0  0.42894  0.86436  0.033609999999999994  1.0000
  C   C80       1.0  0.37404  0.87784  0.02014  1.0000
  C   C81       1.0  0.30722000000000005  0.8238499999999999  0.96965  1.0000
  C   C82       1.0  0.29531999999999997  0.7562799999999998  0.93384  1.0000
  C   C83       1.0  0.35447999999999996  0.7470799999999999  0.9507899999999999  1.0000
  C   C84       1.0  0.40085999999999994  0.6132899999999999  0.9026099999999999  1.0000
  C   C85       1.0  0.33708  0.55172  0.85537  1.0000
  C   C86       1.0  0.27659999999999996  0.5551899999999999  0.8374499999999999  1.0000
  C   C87       1.0  0.28068999999999994  0.6198600000000001  0.86667  1.0000
  C   C88       1.0  0.34731  0.67962  0.9163299999999999  1.0000
  C   C89       1.0  0.12152999999999994  0.61758  0.8066599999999999  1.0000
  C   C90       1.0  0.22221000000000002  0.62978  0.84974  1.0000
  C   C91       1.0  0.22939999999999997  0.69578  0.8816899999999999  1.0000
  C   C92       1.0  0.16922000000000006  0.6357600000000001  0.06446  1.0000
  C   C93       1.0  0.14223000000000002  0.62216  0.996  1.0000
  C   C94       1.0  0.14574  0.67607  0.9832  1.0000
  C   C95       1.0  0.17758000000000004  0.7436700000000002  0.03896  1.0000
  C   C96       1.0  0.20371999999999996  0.7529699999999999  0.1074  1.0000
  C   C97       1.0  0.28948  0.88691  0.28783  1.0000
  C   C98       1.0  0.30376999999999993  0.9484  0.28564999999999996  1.0000
  C   C99       1.0  0.28233  0.94482  0.22164999999999999  1.0000
  C   C100      1.0  0.24684000000000003  0.8801099999999998  0.16098  1.0000
  C   C101      1.0  0.23677000000000004  0.8204399999999998  0.16781  1.0000
  C   C102      1.0  0.18915000000000004  0.88223  0.00405  1.0000
  C   C103      1.0  0.21996  0.8701  0.09252  1.0000
  C   C104      1.0  0.18597000000000002  0.80411  0.03359  1.0000
  C   C105      1.0  0.033609999999999966  0.92894  0.36436  1.0000
  C   C106      1.0  0.020139999999999963  0.87404  0.37784  1.0000
  C   C107      1.0  0.9696499999999999  0.8072299999999999  0.32385  1.0000
  C   C108      1.0  0.9338500000000002  0.79532  0.25628  1.0000
  C   C109      1.0  0.95079  0.85449  0.24708  1.0000
  C   C110      1.0  0.90261  0.90086  0.11328  1.0000
  C   C111      1.0  0.85537  0.83709  0.05171  1.0000
  C   C112      1.0  0.8374500000000001  0.7766099999999999  0.05517999999999999  1.0000
  C   C113      1.0  0.86668  0.78069  0.11985  1.0000
  C   C114      1.0  0.91633  0.84731  0.17962  1.0000
  C   C115      1.0  0.80666  0.62154  0.11758000000000002  1.0000
  C   C116      1.0  0.84975  0.72221  0.12978  1.0000
  C   C117      1.0  0.8816900000000001  0.72941  0.19577  1.0000
  C   C118      1.0  0.06446  0.66922  0.13575  1.0000
  C   C119      1.0  0.996  0.64223  0.12215  1.0000
  C   C120      1.0  0.9832000000000001  0.64574  0.17606  1.0000
  C   C121      1.0  0.03896000000000005  0.67758  0.24366  1.0000
  C   C122      1.0  0.1074  0.70372  0.25296  1.0000
  C   C123      1.0  0.28784  0.78948  0.38691  1.0000
  C   C124      1.0  0.28565  0.80378  0.44839999999999997  1.0000
  C   C125      1.0  0.22165000000000004  0.78234  0.44482  1.0000
  C   C126      1.0  0.16098  0.74685  0.38011  1.0000
  C   C127      1.0  0.16781  0.73677  0.32044  1.0000
  C   C128      1.0  0.004060000000000051  0.68915  0.38222  1.0000
  C   C129      1.0  0.09252  0.7199599999999999  0.37009  1.0000
  C   C130      1.0  0.033589999999999995  0.68597  0.3041  1.0000
  C   C131      1.0  0.43535000000000007  0.57128  0.60474  1.0000
  C   C132      1.0  0.5038500000000001  0.62623  0.64617  1.0000
  C   C133      1.0  0.51673  0.69298  0.66249  1.0000
  C   C134      1.0  0.46101  0.70477  0.63858  1.0000
  C   C135      1.0  0.39253  0.64556  0.59635  1.0000
  C   C136      1.0  0.21214000000000005  0.5989  0.50162  1.0000
  C   C137      1.0  0.21445000000000003  0.66264  0.51815  1.0000
  C   C138      1.0  0.27851  0.72315  0.56076  1.0000
  C   C139      1.0  0.33912  0.71916  0.58595  1.0000
  C   C140      1.0  0.33218000000000003  0.6526  0.5689999999999998  1.0000
  C   C141      1.0  0.49624999999999997  0.8784099999999999  0.68522  1.0000
  C   C142      1.0  0.40762999999999994  0.7776899999999999  0.62754  1.0000
  C   C143      1.0  0.46648  0.77062  0.65235  1.0000
  C   C144      1.0  0.46655  0.8306499999999999  0.8952299999999999  1.0000
  C   C145      1.0  0.48002  0.85766  0.85385  1.0000
  C   C146      1.0  0.53042  0.85417  0.8375399999999998  1.0000
  C   C147      1.0  0.5661599999999999  0.8224099999999999  0.8614299999999999  1.0000
  C   C148      1.0  0.54922  0.7962199999999999  0.90363  1.0000
  C   C149      1.0  0.5973599999999999  0.7106499999999999  0.9982299999999998  1.0000
  C   C150      1.0  0.64454  0.6963899999999998  0.98173  1.0000
  C   C151      1.0  0.6624  0.71779  0.93918  1.0000
  C   C152      1.0  0.63321  0.7532100000000002  0.91403  1.0000
  C   C153      1.0  0.58363  0.76325  0.93096  1.0000
  C   C154      1.0  0.69316  0.81095  0.8149599999999999  1.0000
  C   C155      1.0  0.65012  0.78008  0.8724999999999999  1.0000
  C   C156      1.0  0.6182300000000001  0.8140999999999999  0.8476999999999999  1.0000
  C   C157      1.0  0.1047399999999999  0.07127999999999991  0.9353599999999999  1.0000
  C   C158      1.0  0.14617000000000002  0.12622  0.00386  1.0000
  C   C159      1.0  0.16249  0.19297  0.01673  1.0000
  C   C160      1.0  0.13858  0.20477  0.96101  1.0000
  C   C161      1.0  0.09635  0.14555999999999997  0.89253  1.0000
  C   C162      1.0  0.0016200000000000084  0.09890999999999998  0.71215  1.0000
  C   C163      1.0  0.018149999999999982  0.16265  0.71446  1.0000
  C   C164      1.0  0.060760000000000015  0.22316000000000003  0.77851  1.0000
  C   C165      1.0  0.08595  0.21915999999999997  0.83912  1.0000
  C   C166      1.0  0.06899999999999999  0.15259999999999999  0.83218  1.0000
  C   C167      1.0  0.18521000000000004  0.3784  0.99624  1.0000
  C   C168      1.0  0.12754000000000001  0.27769  0.90763  1.0000
  C   C169      1.0  0.15235000000000004  0.27061  0.9664799999999999  1.0000
  C   C170      1.0  0.39523000000000014  0.33065000000000005  0.96654  1.0000
  C   C171      1.0  0.35385  0.35766  0.98001  1.0000
  C   C172      1.0  0.33754  0.35417  0.03041  1.0000
  C   C173      1.0  0.3614400000000001  0.3224  0.06615  1.0000
  C   C174      1.0  0.40362000000000003  0.29622  0.04922  1.0000
  C   C175      1.0  0.49823  0.21065  0.09736  1.0000
  C   C176      1.0  0.48172000000000015  0.19638999999999998  0.14453999999999997  1.0000
  C   C177      1.0  0.4391799999999999  0.21779  0.1624  1.0000
  C   C178      1.0  0.41403000000000006  0.25321  0.13322  1.0000
  C   C179      1.0  0.43095  0.26325  0.08363  1.0000
  C   C180      1.0  0.31496  0.31095  0.19317  1.0000
  C   C181      1.0  0.37250000000000005  0.28007  0.15012  1.0000
  C   C182      1.0  0.3477  0.3141  0.11822999999999999  1.0000
  C   C183      1.0  0.86436  0.42893999999999993  0.53362  1.0000
  C   C184      1.0  0.8778499999999999  0.37403999999999993  0.52014  1.0000
  C   C185      1.0  0.82386  0.30723  0.46964999999999996  1.0000
  C   C186      1.0  0.7562799999999998  0.29531999999999997  0.43384999999999996  1.0000
  C   C187      1.0  0.7470800000000001  0.35448  0.45079  1.0000
  C   C188      1.0  0.61328  0.40085  0.40260999999999997  1.0000
  C   C189      1.0  0.5517200000000001  0.33708  0.35537  1.0000
  C   C190      1.0  0.55518  0.2766  0.33745  1.0000
  C   C191      1.0  0.61985  0.28069  0.36667  1.0000
  C   C192      1.0  0.6796200000000001  0.34730999999999995  0.41633  1.0000
  C   C193      1.0  0.61758  0.12154  0.30666  1.0000
  C   C194      1.0  0.6297800000000001  0.22221  0.34974  1.0000
  C   C195      1.0  0.69578  0.22941000000000003  0.38169  1.0000
  C   C196      1.0  0.63575  0.16922  0.56445  1.0000
  C   C197      1.0  0.6221500000000001  0.14222000000000007  0.49599  1.0000
  C   C198      1.0  0.6760599999999999  0.14574000000000004  0.4832000000000001  1.0000
  C   C199      1.0  0.74366  0.17757  0.53896  1.0000
  C   C200      1.0  0.7529600000000001  0.20373000000000002  0.6074  1.0000
  C   C201      1.0  0.8869100000000002  0.28948  0.78784  1.0000
  C   C202      1.0  0.9484  0.30377  0.78565  1.0000
  C   C203      1.0  0.9448199999999999  0.2823299999999999  0.72165  1.0000
  C   C204      1.0  0.8801100000000001  0.24685  0.66098  1.0000
  C   C205      1.0  0.8204400000000001  0.23677  0.66781  1.0000
  C   C206      1.0  0.88222  0.18915  0.50406  1.0000
  C   C207      1.0  0.87009  0.21996  0.59252  1.0000
  C   C208      1.0  0.8041  0.18597  0.53359  1.0000
  C   C209      1.0  0.9289400000000001  0.03360999999999994  0.8643499999999998  1.0000
  C   C210      1.0  0.8740400000000002  0.02013999999999994  0.8778399999999998  1.0000
  C   C211      1.0  0.8072200000000002  0.9696499999999999  0.8238499999999999  1.0000
  C   C212      1.0  0.79532  0.9338499999999998  0.75627  1.0000
  C   C213      1.0  0.8544800000000001  0.9507999999999999  0.74708  1.0000
  C   C214      1.0  0.90086  0.90262  0.61328  1.0000
  C   C215      1.0  0.8370800000000003  0.85538  0.55172  1.0000
  C   C216      1.0  0.7766  0.8374599999999999  0.55519  1.0000
  C   C217      1.0  0.78069  0.86668  0.61985  1.0000
  C   C218      1.0  0.8473100000000001  0.91633  0.67962  1.0000
  C   C219      1.0  0.6215400000000002  0.80666  0.61757  1.0000
  C   C220      1.0  0.72221  0.84975  0.62978  1.0000
  C   C221      1.0  0.7294100000000001  0.8816899999999999  0.69577  1.0000
  C   C222      1.0  0.66922  0.06445999999999993  0.63575  1.0000
  C   C223      1.0  0.6422299999999999  0.9960099999999998  0.62216  1.0000
  C   C224      1.0  0.6457400000000002  0.9832  0.67606  1.0000
  C   C225      1.0  0.6775800000000001  0.03897000000000007  0.74367  1.0000
  C   C226      1.0  0.70372  0.10741000000000003  0.75296  1.0000
  C   C227      1.0  0.78948  0.2878399999999999  0.8869  1.0000
  C   C228      1.0  0.80377  0.28564999999999985  0.9483899999999998  1.0000
  C   C229      1.0  0.78233  0.22164999999999993  0.94481  1.0000
  C   C230      1.0  0.74684  0.16098  0.88011  1.0000
  C   C231      1.0  0.73677  0.16780999999999993  0.8204399999999998  1.0000
  C   C232      1.0  0.6891500000000002  0.004049999999999993  0.88222  1.0000
  C   C233      1.0  0.7199599999999999  0.09251999999999995  0.87009  1.0000
  C   C234      1.0  0.6859700000000001  0.03360000000000005  0.8041  1.0000
  C   C235      1.0  0.57128  0.43535  0.10474  1.0000
  C   C236      1.0  0.6262200000000003  0.50385  0.14617  1.0000
  C   C237      1.0  0.6929800000000002  0.51673  0.16249  1.0000
  C   C238      1.0  0.7047700000000001  0.46101  0.13858999999999996  1.0000
  C   C239      1.0  0.64556  0.39253  0.09635  1.0000
  C   C240      1.0  0.5989  0.21215  0.0016199999999999997  1.0000
  C   C241      1.0  0.66264  0.21446  0.01815  1.0000
  C   C242      1.0  0.72315  0.27852  0.060759999999999995  1.0000
  C   C243      1.0  0.71916  0.33913  0.08594999999999998  1.0000
  C   C244      1.0  0.65259  0.33218  0.069  1.0000
  C   C245      1.0  0.87841  0.49626  0.18521999999999997  1.0000
  C   C246      1.0  0.77769  0.40762999999999994  0.12753999999999996  1.0000
  C   C247      1.0  0.7706200000000001  0.46649  0.15235  1.0000
  C   C248      1.0  0.83064  0.46654999999999996  0.39524  1.0000
  C   C249      1.0  0.8576500000000001  0.48002  0.35385  1.0000
  C   C250      1.0  0.8541700000000001  0.5304199999999998  0.33754  1.0000
  C   C251      1.0  0.8224  0.5661600000000001  0.36143  1.0000
  C   C252      1.0  0.7962200000000001  0.54922  0.40363  1.0000
  C   C253      1.0  0.7106500000000001  0.59736  0.49823  1.0000
  C   C254      1.0  0.69639  0.64454  0.48172  1.0000
  C   C255      1.0  0.7177999999999999  0.66241  0.43917  1.0000
  C   C256      1.0  0.75321  0.63322  0.41403  1.0000
  C   C257      1.0  0.7632500000000002  0.58363  0.43095  1.0000
  C   C258      1.0  0.81095  0.6931699999999998  0.31495  1.0000
  C   C259      1.0  0.78008  0.65012  0.37249  1.0000
  C   C260      1.0  0.8141  0.61824  0.3477  1.0000
  C   C261      1.0  0.96655  0.89524  0.8306399999999999  1.0000
  C   C262      1.0  0.9800200000000001  0.8538499999999999  0.85766  1.0000
  C   C263      1.0  0.03041000000000001  0.83754  0.85417  1.0000
  C   C264      1.0  0.06615000000000003  0.86144  0.8224  1.0000
  C   C265      1.0  0.04921999999999996  0.9036299999999999  0.79622  1.0000
  C   C266      1.0  0.09735999999999999  0.9982399999999999  0.71065  1.0000
  C   C267      1.0  0.14454000000000003  0.98173  0.69639  1.0000
  C   C268      1.0  0.16240000000000002  0.9391899999999999  0.71779  1.0000
  C   C269      1.0  0.13321  0.91403  0.75321  1.0000
  C   C270      1.0  0.08363  0.93096  0.76325  1.0000
  C   C271      1.0  0.19316000000000005  0.81496  0.81095  1.0000
  C   C272      1.0  0.15012  0.8725  0.78007  1.0000
  C   C273      1.0  0.11823000000000002  0.8477  0.8141  1.0000
  C   C274      1.0  0.93535  0.60474  0.57128  1.0000
  C   C275      1.0  0.003849999999999944  0.64617  0.62622  1.0000
  C   C276      1.0  0.016729999999999978  0.6625  0.69298  1.0000
  C   C277      1.0  0.96101  0.63859  0.70477  1.0000
  C   C278      1.0  0.89253  0.59635  0.64556  1.0000
  C   C279      1.0  0.71214  0.50162  0.5989  1.0000
  C   C280      1.0  0.7144500000000001  0.51815  0.66264  1.0000
  C   C281      1.0  0.77851  0.56076  0.72315  1.0000
  C   C282      1.0  0.83912  0.58595  0.71915  1.0000
  C   C283      1.0  0.8321800000000001  0.569  0.65259  1.0000
  C   C284      1.0  0.9962500000000001  0.68522  0.8783999999999998  1.0000
  C   C285      1.0  0.90763  0.62754  0.77768  1.0000
  C   C286      1.0  0.9664800000000001  0.65235  0.77061  1.0000
  C   C287      1.0  0.56446  0.13575  0.66922  1.0000
  C   C288      1.0  0.496  0.12214999999999998  0.64222  1.0000
  C   C289      1.0  0.48319  0.17606  0.64574  1.0000
  C   C290      1.0  0.53896  0.24367000000000005  0.67757  1.0000
  C   C291      1.0  0.6074  0.25297  0.70372  1.0000
  C   C292      1.0  0.78784  0.3869099999999999  0.78948  1.0000
  C   C293      1.0  0.78565  0.4484  0.80377  1.0000
  C   C294      1.0  0.7216499999999998  0.4448199999999999  0.7823299999999999  1.0000
  C   C295      1.0  0.66098  0.38010999999999995  0.74684  1.0000
  C   C296      1.0  0.6678100000000001  0.32043999999999995  0.7367599999999999  1.0000
  C   C297      1.0  0.50406  0.38223  0.68915  1.0000
  C   C298      1.0  0.59252  0.3701  0.71996  1.0000
  C   C299      1.0  0.5336  0.30411  0.68597  1.0000
  C   C300      1.0  0.53361  0.36436  0.92893  1.0000
  C   C301      1.0  0.52014  0.3778500000000001  0.87403  1.0000
  C   C302      1.0  0.46965  0.32386  0.80722  1.0000
  C   C303      1.0  0.4338400000000001  0.25628000000000006  0.79532  1.0000
  C   C304      1.0  0.4507899999999999  0.24707999999999988  0.8544799999999999  1.0000
  C   C305      1.0  0.40260999999999997  0.11327999999999996  0.9008599999999999  1.0000
  C   C306      1.0  0.35536999999999996  0.05171999999999998  0.83708  1.0000
  C   C307      1.0  0.33745  0.05518  0.77661  1.0000
  C   C308      1.0  0.36667  0.11985000000000001  0.78069  1.0000
  C   C309      1.0  0.4163200000000001  0.17962000000000006  0.84731  1.0000
  C   C310      1.0  0.30666  0.11757999999999998  0.62154  1.0000
  C   C311      1.0  0.3497400000000001  0.12977999999999998  0.72221  1.0000
  C   C312      1.0  0.38169000000000014  0.19578  0.72941  1.0000
  N   N1        1.0  0.91982  0.0004000000000000044  0.30133  1.0000
  N   N2        1.0  0.9732900000000002  0.06722  0.24239  1.0000
  N   N3        1.0  0.81051  0.1466  0.33402  1.0000
  N   N4        1.0  0.85156  0.19747  0.27843  1.0000
  N   N5        1.0  0.58014  0.8814  0.08049999999999999  1.0000
  N   N6        1.0  0.52661  0.76888  0.09375  1.0000
  N   N7        1.0  0.6896300000000001  0.023710000000000005  0.33624  1.0000
  N   N8        1.0  0.64855  0.92704  0.34604  1.0000
  N   N9        1.0  0.19899999999999998  0.6184599999999999  0.19853999999999997  1.0000
  N   N10       1.0  0.32492999999999994  0.7310699999999999  0.25767  1.0000
  N   N11       1.0  0.31254  0.47646  0.16613  1.0000
  N   N12       1.0  0.4191  0.57325  0.22159999999999996  1.0000
  N   N13       1.0  0.30112  0.49967999999999996  0.41961  1.0000
  N   N14       1.0  0.17521999999999996  0.4327599999999999  0.4061  1.0000
  N   N15       1.0  0.18731  0.3533  0.16382  1.0000
  N   N16       1.0  0.08072000000000003  0.30233  0.1538  1.0000
  N   N17       1.0  0.08050000000000003  0.08013000000000003  0.38139  1.0000
  N   N18       1.0  0.09374999999999996  0.02660999999999997  0.26887999999999995  1.0000
  N   N19       1.0  0.33624  0.18963  0.52371  1.0000
  N   N20       1.0  0.34605  0.14854999999999996  0.42704999999999993  1.0000
  N   N21       1.0  0.30132  0.41983  0.5004  1.0000
  N   N22       1.0  0.24239  0.47329  0.56721  1.0000
  N   N23       1.0  0.33402  0.31050999999999995  0.6466099999999999  1.0000
  N   N24       1.0  0.27844  0.35156  0.69747  1.0000
  N   N25       1.0  0.41961000000000004  0.80112  0.99967  1.0000
  N   N26       1.0  0.4061  0.6752199999999999  0.9327599999999999  1.0000
  N   N27       1.0  0.16381000000000004  0.68731  0.8533  1.0000
  N   N28       1.0  0.15379000000000004  0.5807200000000001  0.80233  1.0000
  N   N29       1.0  0.19854000000000002  0.699  0.11846  1.0000
  N   N30       1.0  0.25767  0.82493  0.23105999999999996  1.0000
  N   N31       1.0  0.1661299999999999  0.8125499999999999  0.9764499999999999  1.0000
  N   N32       1.0  0.22158999999999998  0.9190999999999999  0.07324  1.0000
  N   N33       1.0  0.99967  0.9196199999999999  0.30112  1.0000
  N   N34       1.0  0.9327600000000001  0.9061099999999999  0.17522  1.0000
  N   N35       1.0  0.8533  0.66381  0.18731  1.0000
  N   N36       1.0  0.80233  0.6538  0.08071999999999999  1.0000
  N   N37       1.0  0.11845999999999998  0.69854  0.19899999999999998  1.0000
  N   N38       1.0  0.23107  0.75767  0.32493  1.0000
  N   N39       1.0  0.97646  0.66613  0.31254  1.0000
  N   N40       1.0  0.07324999999999995  0.7215999999999999  0.4191  1.0000
  N   N41       1.0  0.38139999999999996  0.5804999999999999  0.5801299999999999  1.0000
  N   N42       1.0  0.26887  0.59375  0.5266  1.0000
  N   N43       1.0  0.52371  0.8362499999999999  0.6896299999999999  1.0000
  N   N44       1.0  0.42704  0.8460499999999999  0.64855  1.0000
  N   N45       1.0  0.50041  0.8013299999999999  0.91982  1.0000
  N   N46       1.0  0.56722  0.74239  0.9732899999999999  1.0000
  N   N47       1.0  0.6465999999999998  0.8340199999999999  0.8105099999999998  1.0000
  N   N48       1.0  0.69747  0.77844  0.85156  1.0000
  N   N49       1.0  0.08012999999999999  0.08049999999999997  0.8814  1.0000
  N   N50       1.0  0.02661  0.09375  0.76888  1.0000
  N   N51       1.0  0.18963000000000005  0.33624  0.02371  1.0000
  N   N52       1.0  0.14853999999999995  0.34604999999999997  0.9270399999999999  1.0000
  N   N53       1.0  0.4198200000000001  0.30133  0.0004  1.0000
  N   N54       1.0  0.47328  0.24239  0.06721999999999999  1.0000
  N   N55       1.0  0.31051  0.33401999999999993  0.14659999999999998  1.0000
  N   N56       1.0  0.35156  0.2784400000000001  0.19747  1.0000
  N   N57       1.0  0.8011200000000003  0.41961  0.49968  1.0000
  N   N58       1.0  0.67522  0.4061  0.43276  1.0000
  N   N59       1.0  0.6873100000000003  0.16382  0.3533  1.0000
  N   N60       1.0  0.58072  0.1538  0.30233  1.0000
  N   N61       1.0  0.699  0.19854000000000005  0.61845  1.0000
  N   N62       1.0  0.82493  0.2576699999999999  0.73106  1.0000
  N   N63       1.0  0.81254  0.16613000000000003  0.47646  1.0000
  N   N64       1.0  0.9191  0.2216  0.57325  1.0000
  N   N65       1.0  0.91961  0.99968  0.80112  1.0000
  N   N66       1.0  0.9061  0.93276  0.67522  1.0000
  N   N67       1.0  0.66381  0.85331  0.68731  1.0000
  N   N68       1.0  0.65379  0.80233  0.58072  1.0000
  N   N69       1.0  0.6985400000000002  0.11845999999999998  0.699  1.0000
  N   N70       1.0  0.75767  0.23106999999999997  0.82493  1.0000
  N   N71       1.0  0.66613  0.97646  0.8125399999999999  1.0000
  N   N72       1.0  0.72159  0.07323999999999997  0.91909  1.0000
  N   N73       1.0  0.5805  0.38139000000000006  0.08013  1.0000
  N   N74       1.0  0.5937500000000001  0.26888  0.02661  1.0000
  N   N75       1.0  0.8362400000000001  0.52371  0.18963  1.0000
  N   N76       1.0  0.8460500000000001  0.42705  0.14855  1.0000
  N   N77       1.0  0.8013200000000001  0.50041  0.41983  1.0000
  N   N78       1.0  0.74239  0.56722  0.47329  1.0000
  N   N79       1.0  0.83402  0.64661  0.31051  1.0000
  N   N80       1.0  0.77844  0.69747  0.35155  1.0000
  N   N81       1.0  0.0004099999999999655  0.91983  0.80133  1.0000
  N   N82       1.0  0.06721999999999989  0.9732999999999999  0.7423899999999999  1.0000
  N   N83       1.0  0.14660000000000006  0.8105099999999998  0.8340199999999999  1.0000
  N   N84       1.0  0.19746999999999995  0.8515599999999999  0.77843  1.0000
  N   N85       1.0  0.8814  0.58013  0.5805  1.0000
  N   N86       1.0  0.7688800000000001  0.5266  0.59375  1.0000
  N   N87       1.0  0.023710000000000016  0.6896300000000001  0.83624  1.0000
  N   N88       1.0  0.9270400000000002  0.64855  0.84604  1.0000
  N   N89       1.0  0.61846  0.199  0.69854  1.0000
  N   N90       1.0  0.7310700000000001  0.32493000000000005  0.75767  1.0000
  N   N91       1.0  0.4764600000000001  0.31254  0.66613  1.0000
  N   N92       1.0  0.57325  0.41909999999999986  0.7215999999999999  1.0000
  N   N93       1.0  0.49967  0.30112  0.91961  1.0000
  N   N94       1.0  0.43275  0.17522  0.9061  1.0000
  N   N95       1.0  0.3533  0.18731000000000003  0.6638099999999999  1.0000
  N   N96       1.0  0.30233000000000004  0.08071999999999997  0.6538  1.0000
