data_image0
_chemical_formula_structural       Cu12H120C240N12O48
_chemical_formula_sum              "Cu12 H120 C240 N12 O48"
_cell_length_a       33.12764
_cell_length_b       33.12671
_cell_length_c       33.12674
_cell_angle_alpha    59.936710000000005
_cell_angle_beta     59.94180000000001
_cell_angle_gamma    59.94178

_symmetry_space_group_name_H-M    'P 1'
_symmetry_Int_Tables_number       1

loop_
  _symmetry_equiv_pos_as_xyz
  'x,y,z'

loop_
  _atom_site_type_symbol
  _atom_site_label
  _atom_site_symmetry_multiplicity
  _atom_site_fract_x
  _atom_site_fract_y
  _atom_site_fract_z
  _atom_site_occupancy
  Cu  Cu1       1.0  0.79642  0.79636  0.20374  1.0000
  Cu  Cu2       1.0  0.8484599999999999  0.8484400000000001  0.15152  1.0000
  Cu  Cu3       1.0  0.20361999999999997  0.20361999999999997  0.79624  1.0000
  Cu  Cu4       1.0  0.15155000000000002  0.15157  0.84847  1.0000
  Cu  Cu5       1.0  0.79639  0.20373999999999998  0.7963800000000001  1.0000
  Cu  Cu6       1.0  0.84846  0.15150999999999998  0.84845  1.0000
  Cu  Cu7       1.0  0.20359999999999992  0.7962400000000001  0.20364  1.0000
  Cu  Cu8       1.0  0.15157000000000007  0.84847  0.15154  1.0000
  Cu  Cu9       1.0  0.20373999999999998  0.7963900000000002  0.79637  1.0000
  Cu  Cu10      1.0  0.15152999999999991  0.8484400000000001  0.84844  1.0000
  Cu  Cu11      1.0  0.79625  0.20363  0.20360999999999999  1.0000
  Cu  Cu12      1.0  0.8484700000000001  0.15155000000000002  0.15157  1.0000
  H   H1        1.0  0.47921  0.07248  0.4237  1.0000
  H   H2        1.0  0.5549899999999999  0.07169999999999999  0.34831000000000006  1.0000
  H   H3        1.0  0.68603  0.8662000000000002  0.31047  1.0000
  H   H4        1.0  0.6279400000000004  0.91993  0.36361  1.0000
  H   H5        1.0  0.7775199999999999  0.9584000000000003  0.22165  1.0000
  H   H6        1.0  0.77692  0.04355  0.22152  1.0000
  H   H7        1.0  0.62483  0.09115999999999999  0.36114000000000007  1.0000
  H   H8        1.0  0.68221  0.14077000000000003  0.30772  1.0000
  H   H9        1.0  0.63983  0.93926  0.4347  1.0000
  H   H10       1.0  0.5638900000000001  0.93919  0.50978  1.0000
  H   H11       1.0  0.02461999999999985  0.4234900000000001  0.07249  1.0000
  H   H12       1.0  0.024989999999999988  0.3483  0.07175  1.0000
  H   H13       1.0  0.13752  0.31033  0.86601  1.0000
  H   H14       1.0  0.08874999999999998  0.36353  0.9196899999999999  1.0000
  H   H15       1.0  0.04238999999999998  0.22178000000000003  0.95848  1.0000
  H   H16       1.0  0.9580399999999999  0.22166000000000002  0.04351  1.0000
  H   H17       1.0  0.9226499999999996  0.36104  0.09137  1.0000
  H   H18       1.0  0.8690800000000001  0.30757  0.14097  1.0000
  H   H19       1.0  0.9861900000000001  0.43483  0.93931  1.0000
  H   H20       1.0  0.9871499999999999  0.5097200000000001  0.9391799999999999  1.0000
  H   H21       1.0  0.42378999999999994  0.02457999999999998  0.47922  1.0000
  H   H22       1.0  0.34835  0.02498999999999999  0.55503  1.0000
  H   H23       1.0  0.31048000000000003  0.13731000000000002  0.6859799999999999  1.0000
  H   H24       1.0  0.36363000000000006  0.08852  0.62793  1.0000
  H   H25       1.0  0.22163  0.04243999999999999  0.77749  1.0000
  H   H26       1.0  0.22154000000000013  0.95797  0.77695  1.0000
  H   H27       1.0  0.3611400000000001  0.92289  0.62483  1.0000
  H   H28       1.0  0.3077300000000001  0.8693  0.68223  1.0000
  H   H29       1.0  0.4346399999999998  0.9862300000000005  0.6398099999999999  1.0000
  H   H30       1.0  0.50977  0.9871500000000001  0.56383  1.0000
  H   H31       1.0  0.07249000000000001  0.47926  0.02459  1.0000
  H   H32       1.0  0.07164999999999999  0.55485  0.02504  1.0000
  H   H33       1.0  0.86602  0.6861600000000002  0.13751  1.0000
  H   H34       1.0  0.91972  0.62803  0.08874  1.0000
  H   H35       1.0  0.9584799999999998  0.7773700000000002  0.04241000000000001  1.0000
  H   H36       1.0  0.04352000000000001  0.77681  0.95804  1.0000
  H   H37       1.0  0.09138000000000014  0.6249199999999999  0.92266  1.0000
  H   H38       1.0  0.14096999999999993  0.68237  0.86908  1.0000
  H   H39       1.0  0.93923  0.63984  0.98623  1.0000
  H   H40       1.0  0.9391999999999998  0.5641000000000002  0.9871199999999999  1.0000
  H   H41       1.0  0.07247000000000005  0.42374999999999996  0.47918  1.0000
  H   H42       1.0  0.07168999999999995  0.3483  0.555  1.0000
  H   H43       1.0  0.8662200000000001  0.31046999999999997  0.68601  1.0000
  H   H44       1.0  0.91998  0.36361000000000004  0.62793  1.0000
  H   H45       1.0  0.9583700000000002  0.22162000000000004  0.77754  1.0000
  H   H46       1.0  0.04355000000000006  0.22151999999999997  0.77692  1.0000
  H   H47       1.0  0.09116999999999996  0.36115  0.62483  1.0000
  H   H48       1.0  0.14078  0.30774000000000007  0.6821799999999999  1.0000
  H   H49       1.0  0.93929  0.43466  0.63984  1.0000
  H   H50       1.0  0.93921  0.50979  0.56385  1.0000
  H   H51       1.0  0.42351  0.07247  0.02462  1.0000
  H   H52       1.0  0.3483  0.07174  0.02499  1.0000
  H   H53       1.0  0.31031  0.8659800000000001  0.13754  1.0000
  H   H54       1.0  0.36351999999999984  0.91967  0.08875  1.0000
  H   H55       1.0  0.22177999999999987  0.9584400000000002  0.04241999999999999  1.0000
  H   H56       1.0  0.22168000000000002  0.04350999999999995  0.95803  1.0000
  H   H57       1.0  0.36103999999999997  0.09144000000000002  0.92258  1.0000
  H   H58       1.0  0.30757  0.14100999999999997  0.86904  1.0000
  H   H59       1.0  0.43482  0.93932  0.98618  1.0000
  H   H60       1.0  0.5097300000000003  0.9391700000000001  0.98715  1.0000
  H   H61       1.0  0.024589999999999973  0.47920000000000007  0.42381  1.0000
  H   H62       1.0  0.02498999999999988  0.5550600000000002  0.34832  1.0000
  H   H63       1.0  0.13730999999999996  0.68598  0.31047  1.0000
  H   H64       1.0  0.08848000000000004  0.6279299999999999  0.36362  1.0000
  H   H65       1.0  0.042480000000000025  0.77752  0.2216  1.0000
  H   H66       1.0  0.95799  0.77695  0.22153  1.0000
  H   H67       1.0  0.92289  0.62483  0.36113  1.0000
  H   H68       1.0  0.8693100000000001  0.68221  0.30773  1.0000
  H   H69       1.0  0.9862399999999999  0.6398200000000005  0.4346  1.0000
  H   H70       1.0  0.9871799999999996  0.56379  0.50977  1.0000
  H   H71       1.0  0.4792600000000001  0.02461  0.07249  1.0000
  H   H72       1.0  0.55486  0.02503  0.07164  1.0000
  H   H73       1.0  0.6862  0.13754  0.86598  1.0000
  H   H74       1.0  0.6280499999999997  0.08876000000000005  0.9196899999999999  1.0000
  H   H75       1.0  0.77739  0.042440000000000054  0.9584299999999999  1.0000
  H   H76       1.0  0.7767899999999998  0.9580400000000002  0.04351  1.0000
  H   H77       1.0  0.62494  0.92259  0.09144  1.0000
  H   H78       1.0  0.68239  0.86905  0.141  1.0000
  H   H79       1.0  0.6398599999999999  0.9862300000000004  0.93923  1.0000
  H   H80       1.0  0.5641  0.9871400000000002  0.9391799999999999  1.0000
  H   H81       1.0  0.42372999999999994  0.47919000000000006  0.07246  1.0000
  H   H82       1.0  0.3483300000000001  0.55496  0.07171  1.0000
  H   H83       1.0  0.31045  0.68603  0.86621  1.0000
  H   H84       1.0  0.36362000000000005  0.6279299999999999  0.91998  1.0000
  H   H85       1.0  0.22162999999999974  0.7775400000000002  0.95836  1.0000
  H   H86       1.0  0.22154999999999994  0.77689  0.04351  1.0000
  H   H87       1.0  0.36114999999999997  0.6248200000000003  0.09121  1.0000
  H   H88       1.0  0.30774  0.68218  0.14078  1.0000
  H   H89       1.0  0.43468999999999997  0.63983  0.93926  1.0000
  H   H90       1.0  0.5097699999999996  0.5639000000000002  0.93917  1.0000
  H   H91       1.0  0.07248  0.02462999999999999  0.4235  1.0000
  H   H92       1.0  0.07176000000000002  0.02498999999999999  0.3483  1.0000
  H   H93       1.0  0.86603  0.13750000000000004  0.31031  1.0000
  H   H94       1.0  0.91975  0.08869000000000002  0.36352  1.0000
  H   H95       1.0  0.95844  0.042429999999999995  0.22175  1.0000
  H   H96       1.0  0.04348000000000014  0.95807  0.22168  1.0000
  H   H97       1.0  0.09142999999999998  0.92259  0.36104  1.0000
  H   H98       1.0  0.14098999999999987  0.86907  0.30758  1.0000
  H   H99       1.0  0.9393399999999998  0.98618  0.43482000000000004  1.0000
  H   H100      1.0  0.93918  0.9871600000000003  0.50971  1.0000
  H   H101      1.0  0.4792199999999999  0.42377  0.0246  1.0000
  H   H102      1.0  0.55504  0.3483300000000001  0.02498  1.0000
  H   H103      1.0  0.68601  0.31045  0.1373  1.0000
  H   H104      1.0  0.62793  0.36362  0.08847  1.0000
  H   H105      1.0  0.77752  0.2216  0.04248  1.0000
  H   H106      1.0  0.7769299999999997  0.2215600000000001  0.95802  1.0000
  H   H107      1.0  0.6248399999999998  0.3611300000000001  0.92284  1.0000
  H   H108      1.0  0.6822199999999999  0.30773  0.86929  1.0000
  H   H109      1.0  0.6398099999999999  0.43462999999999996  0.98622  1.0000
  H   H110      1.0  0.56382  0.50975  0.98718  1.0000
  H   H111      1.0  0.02461999999999998  0.07248  0.47925  1.0000
  H   H112      1.0  0.025040000000000007  0.07166  0.55483  1.0000
  H   H113      1.0  0.13750999999999985  0.86601  0.68618  1.0000
  H   H114      1.0  0.0887  0.91976  0.62803  1.0000
  H   H115      1.0  0.04245999999999971  0.9584200000000004  0.7774  1.0000
  H   H116      1.0  0.9581000000000001  0.04346999999999999  0.77677  1.0000
  H   H117      1.0  0.9226199999999999  0.09143000000000001  0.62492  1.0000
  H   H118      1.0  0.86909  0.14097000000000007  0.6823499999999999  1.0000
  H   H119      1.0  0.9862399999999999  0.9392200000000002  0.63984  1.0000
  H   H120      1.0  0.9871499999999999  0.9391700000000001  0.5641  1.0000
  C   C1        1.0  0.51424  0.04305000000000002  0.42595  1.0000
  C   C2        1.0  0.55646  0.042990000000000014  0.3839  1.0000
  C   C3        1.0  0.6927799999999997  0.8984200000000002  0.30348  1.0000
  C   C4        1.0  0.66042  0.92814  0.3331200000000001  1.0000
  C   C5        1.0  0.6712099999999999  0.9690900000000002  0.32203  1.0000
  C   C6        1.0  0.7133  0.9806900000000002  0.28192  1.0000
  C   C7        1.0  0.7451699999999999  0.9504500000000002  0.25265  1.0000
  C   C8        1.0  0.73487  0.9092100000000002  0.26347  1.0000
  C   C9        1.0  0.7680599999999996  0.8768400000000001  0.23235000000000003  1.0000
  C   C10       1.0  0.76592  0.12487  0.23113  1.0000
  C   C11       1.0  0.7323799999999999  0.09497  0.26179  1.0000
  C   C12       1.0  0.7437499999999998  0.05338999999999999  0.25173  1.0000
  C   C13       1.0  0.7123  0.02531  0.28109  1.0000
  C   C14       1.0  0.66942  0.03945  0.32044  1.0000
  C   C15       1.0  0.65756  0.08095000000000001  0.33081  1.0000
  C   C16       1.0  0.6895699999999998  0.10833999999999999  0.30109  1.0000
  C   C17       1.0  0.60156  0.00543000000000002  0.38736  1.0000
  C   C18       1.0  0.6044299999999999  0.9681  0.43273  1.0000
  C   C19       1.0  0.5620599999999997  0.96842  0.47454  1.0000
  C   C20       1.0  0.51642  0.005830000000000019  0.47179  1.0000
  C   C21       1.0  0.01678999999999996  0.42589  0.043000000000000003  1.0000
  C   C22       1.0  0.016659999999999967  0.38386  0.04299000000000001  1.0000
  C   C23       1.0  0.10548000000000002  0.30343000000000003  0.89829  1.0000
  C   C24       1.0  0.0784799999999998  0.3330700000000002  0.92801  1.0000
  C   C25       1.0  0.037739999999999885  0.3220400000000002  0.96905  1.0000
  C   C26       1.0  0.02413000000000001  0.28199  0.98068  1.0000
  C   C27       1.0  0.05177999999999995  0.25272999999999995  0.9504200000000002  1.0000
  C   C28       1.0  0.09255000000000002  0.26349  0.90911  1.0000
  C   C29       1.0  0.12283999999999996  0.23241000000000012  0.8767  1.0000
  C   C30       1.0  0.87796  0.23115  0.125  1.0000
  C   C31       1.0  0.91077  0.26179  0.09507  1.0000
  C   C32       1.0  0.95109  0.2518  0.053439999999999994  1.0000
  C   C33       1.0  0.98129  0.28114  0.02535  1.0000
  C   C34       1.0  0.97065  0.32044  0.03952  1.0000
  C   C35       1.0  0.9305599999999999  0.33074  0.08109  1.0000
  C   C36       1.0  0.90086  0.30103  0.10849  1.0000
  C   C37       1.0  0.005669999999999983  0.38733  0.00545  1.0000
  C   C38       1.0  0.99479  0.43273  0.9681400000000001  1.0000
  C   C39       1.0  0.9950199999999999  0.47452  0.96843  1.0000
  C   C40       1.0  0.005999999999999976  0.47179  0.0058  1.0000
  C   C41       1.0  0.4259899999999999  0.016739999999999977  0.51426  1.0000
  C   C42       1.0  0.38393000000000005  0.016640000000000016  0.55647  1.0000
  C   C43       1.0  0.3034800000000001  0.10532999999999997  0.69275  1.0000
  C   C44       1.0  0.33311999999999997  0.07834  0.66039  1.0000
  C   C45       1.0  0.3220299999999999  0.03768  0.67119  1.0000
  C   C46       1.0  0.28192999999999996  0.024090000000000004  0.71328  1.0000
  C   C47       1.0  0.2526499999999999  0.051740000000000036  0.74514  1.0000
  C   C48       1.0  0.2634699999999999  0.09245000000000002  0.73486  1.0000
  C   C49       1.0  0.23239  0.12271999999999997  0.76807  1.0000
  C   C50       1.0  0.2310999999999999  0.8781200000000003  0.76587  1.0000
  C   C51       1.0  0.2617999999999999  0.9108700000000001  0.73238  1.0000
  C   C52       1.0  0.25174999999999986  0.9511200000000001  0.74377  1.0000
  C   C53       1.0  0.2811099999999998  0.9812900000000004  0.7123099999999999  1.0000
  C   C54       1.0  0.32045000000000007  0.97069  0.6694299999999999  1.0000
  C   C55       1.0  0.33081999999999995  0.9306900000000001  0.65757  1.0000
  C   C56       1.0  0.3011099999999999  0.9010000000000002  0.68958  1.0000
  C   C57       1.0  0.38738  0.005649999999999972  0.60155  1.0000
  C   C58       1.0  0.43272  0.9947500000000001  0.6044  1.0000
  C   C59       1.0  0.4745399999999999  0.9949700000000001  0.56204  1.0000
  C   C60       1.0  0.4718  0.005949999999999979  0.51643  1.0000
  C   C61       1.0  0.04302999999999998  0.5142600000000002  0.01671  1.0000
  C   C62       1.0  0.042949999999999905  0.5564500000000002  0.01661  1.0000
  C   C63       1.0  0.89829  0.6928200000000002  0.10546  1.0000
  C   C64       1.0  0.9279999999999999  0.66046  0.07845  1.0000
  C   C65       1.0  0.9690299999999998  0.67119  0.03771  1.0000
  C   C66       1.0  0.98068  0.71323  0.02411  1.0000
  C   C67       1.0  0.95043  0.7450800000000001  0.05177  1.0000
  C   C68       1.0  0.90913  0.73485  0.09254  1.0000
  C   C69       1.0  0.87675  0.76802  0.12286  1.0000
  C   C70       1.0  0.1250300000000001  0.7658599999999999  0.878  1.0000
  C   C71       1.0  0.09506999999999977  0.7323600000000005  0.91078  1.0000
  C   C72       1.0  0.05343999999999988  0.7436800000000001  0.9510900000000001  1.0000
  C   C73       1.0  0.025340000000000026  0.71224  0.98126  1.0000
  C   C74       1.0  0.03948999999999994  0.66941  0.97062  1.0000
  C   C75       1.0  0.08106999999999986  0.6576100000000004  0.93055  1.0000
  C   C76       1.0  0.10847999999999984  0.6896200000000002  0.90085  1.0000
  C   C77       1.0  0.005419999999999929  0.6015900000000001  0.00562  1.0000
  C   C78       1.0  0.96812  0.60446  0.99473  1.0000
  C   C79       1.0  0.96848  0.5621200000000002  0.99493  1.0000
  C   C80       1.0  0.005860000000000008  0.51643  0.0059  1.0000
  C   C81       1.0  0.04304999999999994  0.4259600000000001  0.51424  1.0000
  C   C82       1.0  0.04300999999999993  0.38390000000000013  0.55645  1.0000
  C   C83       1.0  0.8984399999999999  0.30347000000000013  0.69277  1.0000
  C   C84       1.0  0.9281600000000002  0.3331100000000001  0.66042  1.0000
  C   C85       1.0  0.96911  0.32201  0.67122  1.0000
  C   C86       1.0  0.98071  0.28191  0.71331  1.0000
  C   C87       1.0  0.95045  0.25264  0.74518  1.0000
  C   C88       1.0  0.9092200000000003  0.26346  0.73487  1.0000
  C   C89       1.0  0.87685  0.23235000000000003  0.76805  1.0000
  C   C90       1.0  0.12487999999999994  0.23112000000000002  0.7659100000000001  1.0000
  C   C91       1.0  0.09497999999999991  0.26179000000000013  0.73237  1.0000
  C   C92       1.0  0.05339999999999988  0.2517300000000001  0.74375  1.0000
  C   C93       1.0  0.02531999999999998  0.28109000000000006  0.7123  1.0000
  C   C94       1.0  0.03944999999999996  0.32044000000000017  0.6694299999999999  1.0000
  C   C95       1.0  0.08094999999999995  0.33081000000000005  0.65756  1.0000
  C   C96       1.0  0.10835000000000003  0.3010900000000001  0.68956  1.0000
  C   C97       1.0  0.00544999999999997  0.38737  0.60155  1.0000
  C   C98       1.0  0.9681100000000001  0.43272  0.60442  1.0000
  C   C99       1.0  0.96843  0.47455  0.56205  1.0000
  C   C100      1.0  0.005829999999999914  0.4718000000000002  0.51642  1.0000
  C   C101      1.0  0.4259  0.043  0.01678  1.0000
  C   C102      1.0  0.38385999999999987  0.04299  0.01665  1.0000
  C   C103      1.0  0.30342999999999987  0.8982700000000002  0.10549  1.0000
  C   C104      1.0  0.33307  0.928  0.07848  1.0000
  C   C105      1.0  0.32204999999999984  0.9690500000000002  0.03774  1.0000
  C   C106      1.0  0.28200000000000003  0.98068  0.02412  1.0000
  C   C107      1.0  0.25273999999999996  0.95041  0.05179  1.0000
  C   C108      1.0  0.26349  0.9091  0.09256  1.0000
  C   C109      1.0  0.2324199999999999  0.8766800000000002  0.12286  1.0000
  C   C110      1.0  0.23114999999999994  0.12503000000000003  0.87794  1.0000
  C   C111      1.0  0.2617899999999999  0.09510000000000007  0.91075  1.0000
  C   C112      1.0  0.25181999999999993  0.05346000000000002  0.95107  1.0000
  C   C113      1.0  0.28115999999999997  0.025360000000000042  0.98126  1.0000
  C   C114      1.0  0.3204699999999999  0.03953000000000005  0.97062  1.0000
  C   C115      1.0  0.33075  0.08111999999999997  0.93052  1.0000
  C   C116      1.0  0.3010399999999999  0.10852999999999999  0.90082  1.0000
  C   C117      1.0  0.38733  0.005459999999999999  0.00566  1.0000
  C   C118      1.0  0.43274  0.9681500000000001  0.99477  1.0000
  C   C119      1.0  0.4745299999999999  0.96844  0.99501  1.0000
  C   C120      1.0  0.47179  0.0058  0.006  1.0000
  C   C121      1.0  0.01674999999999998  0.51425  0.42598  1.0000
  C   C122      1.0  0.016640000000000002  0.55647  0.38391999999999993  1.0000
  C   C123      1.0  0.10532999999999987  0.6927600000000003  0.30347  1.0000
  C   C124      1.0  0.07832999999999997  0.6604  0.3331  1.0000
  C   C125      1.0  0.03767000000000002  0.67121  0.32201  1.0000
  C   C126      1.0  0.024089999999999945  0.7133  0.2819  1.0000
  C   C127      1.0  0.051750000000000046  0.7451599999999999  0.25263  1.0000
  C   C128      1.0  0.09245999999999989  0.7348600000000002  0.26346  1.0000
  C   C129      1.0  0.12272000000000001  0.76807  0.23238  1.0000
  C   C130      1.0  0.8781299999999996  0.7658700000000003  0.23109  1.0000
  C   C131      1.0  0.9108799999999998  0.7323800000000003  0.26178  1.0000
  C   C132      1.0  0.9511199999999997  0.7437700000000002  0.25173  1.0000
  C   C133      1.0  0.9812999999999998  0.71232  0.28109  1.0000
  C   C134      1.0  0.9706900000000002  0.66944  0.32044  1.0000
  C   C135      1.0  0.9306899999999999  0.6575700000000001  0.33081  1.0000
  C   C136      1.0  0.901  0.68958  0.3011  1.0000
  C   C137      1.0  0.005649999999999857  0.6015500000000003  0.38737  1.0000
  C   C138      1.0  0.99476  0.6044  0.43271  1.0000
  C   C139      1.0  0.9949800000000002  0.56203  0.47452999999999995  1.0000
  C   C140      1.0  0.005949999999999889  0.5164300000000002  0.47179  1.0000
  C   C141      1.0  0.51426  0.01671  0.04304  1.0000
  C   C142      1.0  0.55645  0.01661  0.04296  1.0000
  C   C143      1.0  0.6928299999999998  0.10548000000000003  0.89826  1.0000
  C   C144      1.0  0.66048  0.07846000000000003  0.92798  1.0000
  C   C145      1.0  0.6712  0.03770999999999998  0.96902  1.0000
  C   C146      1.0  0.71323  0.02411  0.98067  1.0000
  C   C147      1.0  0.7450899999999998  0.051790000000000044  0.9504099999999999  1.0000
  C   C148      1.0  0.7348600000000001  0.09256  0.9091  1.0000
  C   C149      1.0  0.7680300000000001  0.12289000000000004  0.87671  1.0000
  C   C150      1.0  0.76588  0.87798  0.12504  1.0000
  C   C151      1.0  0.7323699999999997  0.9107600000000002  0.09509  1.0000
  C   C152      1.0  0.7436699999999998  0.9510800000000001  0.053439999999999994  1.0000
  C   C153      1.0  0.71223  0.98125  0.02534  1.0000
  C   C154      1.0  0.6694099999999998  0.9706000000000002  0.0395  1.0000
  C   C155      1.0  0.6576199999999998  0.9305100000000002  0.08109  1.0000
  C   C156      1.0  0.68963  0.90082  0.1085  1.0000
  C   C157      1.0  0.60159  0.005610000000000002  0.00542  1.0000
  C   C158      1.0  0.6044699999999998  0.9947300000000001  0.96812  1.0000
  C   C159      1.0  0.56213  0.99494  0.96847  1.0000
  C   C160      1.0  0.51643  0.005900000000000001  0.00586  1.0000
  C   C161      1.0  0.42597  0.51424  0.04305  1.0000
  C   C162      1.0  0.3839099999999999  0.55645  0.04301  1.0000
  C   C163      1.0  0.30347999999999975  0.6927800000000002  0.89843  1.0000
  C   C164      1.0  0.33312000000000014  0.66042  0.92815  1.0000
  C   C165      1.0  0.32203000000000004  0.67122  0.9691  1.0000
  C   C166      1.0  0.2819300000000001  0.7133  0.9807  1.0000
  C   C167      1.0  0.25264999999999993  0.74518  0.95045  1.0000
  C   C168      1.0  0.26347  0.73487  0.90921  1.0000
  C   C169      1.0  0.23235999999999993  0.76804  0.87684  1.0000
  C   C170      1.0  0.23112999999999995  0.76592  0.12487  1.0000
  C   C171      1.0  0.26179  0.73237  0.09497  1.0000
  C   C172      1.0  0.2517499999999999  0.74373  0.05339  1.0000
  C   C173      1.0  0.28110999999999986  0.7122900000000002  0.02532  1.0000
  C   C174      1.0  0.3204600000000001  0.66941  0.03946  1.0000
  C   C175      1.0  0.33083  0.65755  0.08096  1.0000
  C   C176      1.0  0.3011  0.68956  0.10835  1.0000
  C   C177      1.0  0.38736999999999994  0.6015500000000003  0.00545  1.0000
  C   C178      1.0  0.43273  0.60442  0.96811  1.0000
  C   C179      1.0  0.4745599999999997  0.5620600000000004  0.96842  1.0000
  C   C180      1.0  0.47180999999999984  0.51642  0.005829999999999999  1.0000
  C   C181      1.0  0.043010000000000013  0.016780000000000007  0.42589  1.0000
  C   C182      1.0  0.04299999999999996  0.016640000000000016  0.38386  1.0000
  C   C183      1.0  0.8983099999999999  0.10546  0.30343  1.0000
  C   C184      1.0  0.92804  0.07845000000000005  0.33306  1.0000
  C   C185      1.0  0.9690700000000001  0.03772  0.32204  1.0000
  C   C186      1.0  0.9807  0.02411  0.28198  1.0000
  C   C187      1.0  0.9504299999999999  0.05177  0.25272  1.0000
  C   C188      1.0  0.90913  0.09254  0.26348  1.0000
  C   C189      1.0  0.87669  0.12283  0.23242  1.0000
  C   C190      1.0  0.12501000000000007  0.87796  0.23114  1.0000
  C   C191      1.0  0.09508999999999981  0.9107600000000002  0.26179  1.0000
  C   C192      1.0  0.05344999999999996  0.9510800000000001  0.25181  1.0000
  C   C193      1.0  0.025369999999999986  0.98126  0.28116  1.0000
  C   C194      1.0  0.03953999999999984  0.9706200000000003  0.32046  1.0000
  C   C195      1.0  0.08111000000000002  0.93054  0.33074999999999993  1.0000
  C   C196      1.0  0.10851000000000001  0.90084  0.30104000000000003  1.0000
  C   C197      1.0  0.0054700000000000104  0.0056499999999999875  0.38733  1.0000
  C   C198      1.0  0.96817  0.9947600000000003  0.43273  1.0000
  C   C199      1.0  0.9684499999999998  0.9950100000000004  0.47452  1.0000
  C   C200      1.0  0.005800000000000003  0.005999999999999991  0.47179  1.0000
  C   C201      1.0  0.51426  0.42598  0.01674  1.0000
  C   C202      1.0  0.5564799999999998  0.3839200000000001  0.01663  1.0000
  C   C203      1.0  0.69276  0.30347000000000013  0.10532  1.0000
  C   C204      1.0  0.66041  0.3331100000000001  0.07831999999999999  1.0000
  C   C205      1.0  0.6712099999999999  0.32202  0.03766  1.0000
  C   C206      1.0  0.7132899999999999  0.28191  0.02408  1.0000
  C   C207      1.0  0.74516  0.25263  0.05174  1.0000
  C   C208      1.0  0.73486  0.2634700000000001  0.09244  1.0000
  C   C209      1.0  0.76808  0.23240000000000005  0.12271  1.0000
  C   C210      1.0  0.7658799999999997  0.2310900000000001  0.87812  1.0000
  C   C211      1.0  0.7323899999999998  0.2617900000000001  0.91087  1.0000
  C   C212      1.0  0.7437600000000001  0.25175  0.95111  1.0000
  C   C213      1.0  0.7123099999999999  0.2811100000000001  0.98128  1.0000
  C   C214      1.0  0.66943  0.32046000000000024  0.9706699999999999  1.0000
  C   C215      1.0  0.65757  0.33082000000000006  0.93067  1.0000
  C   C216      1.0  0.6895899999999999  0.3011  0.90099  1.0000
  C   C217      1.0  0.60155  0.38737  0.00563  1.0000
  C   C218      1.0  0.60441  0.43271  0.99474  1.0000
  C   C219      1.0  0.5620400000000001  0.47453000000000006  0.99497  1.0000
  C   C220      1.0  0.51643  0.47179  0.00595  1.0000
  C   C221      1.0  0.01670999999999996  0.04304000000000001  0.51426  1.0000
  C   C222      1.0  0.016600000000000004  0.042969999999999994  0.55645  1.0000
  C   C223      1.0  0.10545999999999985  0.8982900000000004  0.6928200000000001  1.0000
  C   C224      1.0  0.0784399999999999  0.9280100000000003  0.6604799999999998  1.0000
  C   C225      1.0  0.03770000000000009  0.9690299999999998  0.6712100000000001  1.0000
  C   C226      1.0  0.02410000000000002  0.9806800000000001  0.7132399999999999  1.0000
  C   C227      1.0  0.05178000000000001  0.9504199999999999  0.74509  1.0000
  C   C228      1.0  0.09254999999999983  0.9091300000000002  0.7348499999999999  1.0000
  C   C229      1.0  0.12287999999999989  0.8767400000000003  0.7680199999999999  1.0000
  C   C230      1.0  0.8780200000000001  0.12501  0.76587  1.0000
  C   C231      1.0  0.91078  0.09507  0.73236  1.0000
  C   C232      1.0  0.9511000000000001  0.053430000000000005  0.74366  1.0000
  C   C233      1.0  0.9812600000000002  0.025340000000000043  0.7122299999999999  1.0000
  C   C234      1.0  0.97061  0.03950000000000001  0.6694  1.0000
  C   C235      1.0  0.93053  0.08108000000000001  0.65761  1.0000
  C   C236      1.0  0.90085  0.10848000000000001  0.68962  1.0000
  C   C237      1.0  0.005600000000000029  0.0054299999999999895  0.60159  1.0000
  C   C238      1.0  0.9947300000000002  0.96812  0.60446  1.0000
  C   C239      1.0  0.9949399999999999  0.9684700000000002  0.56212  1.0000
  C   C240      1.0  0.005900000000000014  0.0058600000000000015  0.51643  1.0000
  N   N1        1.0  0.64485  0.00517000000000001  0.34471999999999997  1.0000
  N   N2        1.0  0.005270000000000047  0.34472  0.00519  1.0000
  N   N3        1.0  0.34473  0.005259999999999987  0.64484  1.0000
  N   N4        1.0  0.005150000000000018  0.64485  0.00524  1.0000
  N   N5        1.0  0.005180000000000059  0.34472  0.64485  1.0000
  N   N6        1.0  0.34473  0.00519  0.00526  1.0000
  N   N7        1.0  0.005260000000000051  0.64485  0.34471999999999997  1.0000
  N   N8        1.0  0.64485  0.00523  0.00515  1.0000
  N   N9        1.0  0.34474  0.64485  0.00518  1.0000
  N   N10       1.0  0.005199999999999994  0.005250000000000004  0.34473  1.0000
  N   N11       1.0  0.64485  0.34473  0.00524  1.0000
  N   N12       1.0  0.0052199999999999825  0.005159999999999995  0.64486  1.0000
  O   O1        1.0  0.7570599999999998  0.83918  0.24477  1.0000
  O   O2        1.0  0.8049799999999999  0.88877  0.19551  1.0000
  O   O3        1.0  0.8036899999999998  0.11188000000000002  0.19524  1.0000
  O   O4        1.0  0.75453  0.16156000000000006  0.24308  1.0000
  O   O5        1.0  0.15911000000000006  0.24477000000000002  0.83898  1.0000
  O   O6        1.0  0.11073000000000001  0.19564000000000004  0.88869  1.0000
  O   O7        1.0  0.8891299999999995  0.1953  0.11197  1.0000
  O   O8        1.0  0.84064  0.24306999999999998  0.16171  1.0000
  O   O9        1.0  0.24482  0.15894000000000003  0.75708  1.0000
  O   O10       1.0  0.19556999999999997  0.11069000000000004  0.80501  1.0000
  O   O11       1.0  0.19518999999999992  0.8892400000000001  0.80362  1.0000
  O   O12       1.0  0.24304999999999988  0.8408700000000002  0.75446  1.0000
  O   O13       1.0  0.8390500000000001  0.75708  0.15915  1.0000
  O   O14       1.0  0.88875  0.80489  0.11078  1.0000
  O   O15       1.0  0.11200000000000004  0.80357  0.8892  1.0000
  O   O16       1.0  0.16176000000000001  0.75455  0.8407  1.0000
  O   O17       1.0  0.8391999999999998  0.24477  0.75704  1.0000
  O   O18       1.0  0.8887700000000001  0.19551000000000002  0.80498  1.0000
  O   O19       1.0  0.11188000000000005  0.19523  0.80369  1.0000
  O   O20       1.0  0.16156000000000006  0.24307999999999996  0.75452  1.0000
  O   O21       1.0  0.2447699999999999  0.8389600000000002  0.15914  1.0000
  O   O22       1.0  0.19565999999999995  0.88867  0.11074  1.0000
  O   O23       1.0  0.19529999999999995  0.11198999999999999  0.88912  1.0000
  O   O24       1.0  0.24306000000000003  0.16174000000000002  0.84061  1.0000
  O   O25       1.0  0.15893999999999983  0.7570700000000004  0.24481999999999998  1.0000
  O   O26       1.0  0.11070000000000006  0.80502  0.19556  1.0000
  O   O27       1.0  0.8892499999999999  0.80363  0.19518  1.0000
  O   O28       1.0  0.84089  0.75446  0.24304  1.0000
  O   O29       1.0  0.7570899999999996  0.15917999999999996  0.83901  1.0000
  O   O30       1.0  0.8048999999999996  0.11079999999999998  0.88872  1.0000
  O   O31       1.0  0.8035799999999998  0.88918  0.112  1.0000
  O   O32       1.0  0.75457  0.84067  0.16177  1.0000
  O   O33       1.0  0.24477999999999986  0.75704  0.83918  1.0000
  O   O34       1.0  0.19552999999999993  0.8049600000000003  0.88876  1.0000
  O   O35       1.0  0.1952399999999998  0.8036900000000002  0.11187000000000001  1.0000
  O   O36       1.0  0.24307000000000004  0.75453  0.16156  1.0000
  O   O37       1.0  0.83898  0.15911  0.24478  1.0000
  O   O38       1.0  0.8886799999999997  0.11073000000000004  0.19566  1.0000
  O   O39       1.0  0.11197999999999984  0.8891500000000002  0.19528  1.0000
  O   O40       1.0  0.16172000000000003  0.84063  0.24306  1.0000
  O   O41       1.0  0.75708  0.24483  0.15893999999999997  1.0000
  O   O42       1.0  0.80502  0.19557  0.11069  1.0000
  O   O43       1.0  0.8036300000000001  0.19517000000000004  0.88925  1.0000
  O   O44       1.0  0.75449  0.24304  0.84087  1.0000
  O   O45       1.0  0.15915999999999994  0.83904  0.75707  1.0000
  O   O46       1.0  0.11080000000000013  0.8887299999999999  0.80488  1.0000
  O   O47       1.0  0.88922  0.11197000000000003  0.80357  1.0000
  O   O48       1.0  0.8407099999999997  0.16175000000000003  0.75456  1.0000
