data_image0
_chemical_formula_structural       Cu24H120C288N8O96
_chemical_formula_sum              "Cu24 H120 C288 N8 O96"
_cell_length_a       14.32596
_cell_length_b       29.319679999999998
_cell_length_c       33.30335
_cell_angle_alpha    89.99681
_cell_angle_beta     102.50642000000002
_cell_angle_gamma    90.00223

_symmetry_space_group_name_H-M    'P 1'
_symmetry_Int_Tables_number       1

loop_
  _symmetry_equiv_pos_as_xyz
  'x,y,z'

loop_
  _atom_site_type_symbol
  _atom_site_label
  _atom_site_symmetry_multiplicity
  _atom_site_fract_x
  _atom_site_fract_y
  _atom_site_fract_z
  _atom_site_occupancy
  Cu  Cu1       1.0  0.39374000000000003  0.8665099999999998  0.7871700000000003  1.0000
  Cu  Cu2       1.0  0.12953000000000006  0.8329299999999997  0.2593100000000001  1.0000
  Cu  Cu3       1.0  0.8703699999999998  0.3328399999999999  0.74071  1.0000
  Cu  Cu4       1.0  0.07323  0.20961  0.14693  1.0000
  Cu  Cu5       1.0  0.60628  0.36648999999999987  0.21285  1.0000
  Cu  Cu6       1.0  0.92678  0.7096199999999998  0.85306  1.0000
  Cu  Cu7       1.0  0.84205  0.11242999999999997  0.68261  1.0000
  Cu  Cu8       1.0  0.43592999999999993  0.4869199999999999  0.87277  1.0000
  Cu  Cu9       1.0  0.7228399999999999  0.7875799999999997  0.44642  1.0000
  Cu  Cu10      1.0  0.27711  0.2876199999999999  0.55363  1.0000
  Cu  Cu11      1.0  0.17643999999999999  0.53972  0.35348  1.0000
  Cu  Cu12      1.0  0.12087  0.9149099999999998  0.24294  1.0000
  Cu  Cu13      1.0  0.52782  0.9602899999999998  0.05566000000000001  1.0000
  Cu  Cu14      1.0  0.09249  0.13672  0.18332000000000007  1.0000
  Cu  Cu15      1.0  0.15801  0.61252  0.31738  1.0000
  Cu  Cu16      1.0  0.31155  0.26099999999999995  0.62532  1.0000
  Cu  Cu17      1.0  0.4722  0.4602699999999999  0.94443  1.0000
  Cu  Cu18      1.0  0.6884899999999998  0.7610399999999998  0.3747200000000001  1.0000
  Cu  Cu19      1.0  0.6437  0.38377  0.286  1.0000
  Cu  Cu20      1.0  0.82329  0.03964  0.6464600000000003  1.0000
  Cu  Cu21      1.0  0.90758  0.6367  0.8167  1.0000
  Cu  Cu22      1.0  0.35628  0.88378  0.71402  1.0000
  Cu  Cu23      1.0  0.56404  0.98695  0.12733000000000005  1.0000
  Cu  Cu24      1.0  0.87912  0.4148499999999999  0.75701  1.0000
  H   H1        1.0  0.020710000000000107  0.4618599999999999  0.5272200000000002  1.0000
  H   H2        1.0  0.004250000000000002  0.6696999999999997  0.70974  1.0000
  H   H3        1.0  0.66656  0.12553  0.8327  1.0000
  H   H4        1.0  0.53848  0.7547  0.60816  1.0000
  H   H5        1.0  0.89257  0.4768599999999999  0.2915  1.0000
  H   H6        1.0  0.92025  0.8304499999999998  0.33532  1.0000
  H   H7        1.0  0.97566  0.4682099999999999  0.6534200000000002  1.0000
  H   H8        1.0  0.33387  0.9166899999999998  0.1679  1.0000
  H   H9        1.0  0.47726000000000013  0.7664899999999998  0.6684700000000002  1.0000
  H   H10       1.0  0.9956999999999998  0.16966  0.29025  1.0000
  H   H11       1.0  0.41520999999999997  0.12364999999999997  0.33184  1.0000
  H   H12       1.0  0.8899299999999999  0.08783  0.5311000000000002  1.0000
  H   H13       1.0  0.3477099999999999  0.06609999999999998  0.00176  1.0000
  H   H14       1.0  0.29245999999999994  0.4943499999999999  0.1075  1.0000
  H   H15       1.0  0.29515  0.16989999999999994  0.29012  1.0000
  H   H16       1.0  0.14315  0.41708  0.56986  1.0000
  H   H17       1.0  0.38914  0.8316699999999998  0.07038  1.0000
  H   H18       1.0  0.8544600000000001  0.6623099999999997  0.9678100000000002  1.0000
  H   H19       1.0  0.5848300000000002  0.33048  0.6646600000000003  1.0000
  H   H20       1.0  0.74784  0.08037999999999997  0.78991  1.0000
  H   H21       1.0  0.68073  0.83179  0.07006  1.0000
  H   H22       1.0  0.31991  0.7157  0.14273  1.0000
  H   H23       1.0  0.35102  0.27511  0.20842000000000005  1.0000
  H   H24       1.0  0.9568700000000001  0.58028  0.20979  1.0000
  H   H25       1.0  0.8577100000000001  0.27475  0.20832000000000006  1.0000
  H   H26       1.0  0.8341599999999999  0.9166  0.16776  1.0000
  H   H27       1.0  0.42656000000000005  0.41713999999999996  0.56967  1.0000
  H   H28       1.0  0.6536  0.06629  0.00103  1.0000
  H   H29       1.0  0.3463499999999999  0.56628  0.99895  1.0000
  H   H30       1.0  0.10738999999999994  0.9767799999999998  0.70854  1.0000
  H   H31       1.0  0.11389  0.6624799999999997  0.96765  1.0000
  H   H32       1.0  0.4039599999999999  0.18185  0.4999  1.0000
  H   H33       1.0  0.92884  0.03275  0.35678  1.0000
  H   H34       1.0  0.49402  0.9620099999999998  0.47287  1.0000
  H   H35       1.0  0.52276  0.2665  0.33154  1.0000
  H   H36       1.0  0.39809  0.47695999999999994  0.29185  1.0000
  H   H37       1.0  0.41526  0.8305  0.33535  1.0000
  H   H38       1.0  0.33338  0.62555  0.1673  1.0000
  H   H39       1.0  0.43118  0.48214  0.16647  1.0000
  H   H40       1.0  0.7501099999999999  0.7144399999999997  0.9882500000000001  1.0000
  H   H41       1.0  0.7887999999999997  0.5307899999999999  0.03886  1.0000
  H   H42       1.0  0.3156599999999999  0.07852  0.12679  1.0000
  H   H43       1.0  0.9346100000000002  0.6702999999999998  0.3747000000000001  1.0000
  H   H44       1.0  0.67762  0.4684099999999999  0.65336  1.0000
  H   H45       1.0  0.47958  0.5351  0.48888  1.0000
  H   H46       1.0  0.5734699999999998  0.91721  0.43036  1.0000
  H   H47       1.0  0.93241  0.7803599999999999  0.15329  1.0000
  H   H48       1.0  0.6409  0.08815999999999997  0.53133  1.0000
  H   H49       1.0  0.009600000000000006  0.53489  0.48896  1.0000
  H   H50       1.0  0.83337  0.6253199999999998  0.16705000000000006  1.0000
  H   H51       1.0  0.9049600000000001  0.68187  0.50001  1.0000
  H   H52       1.0  0.9791699999999998  0.9618899999999998  0.4728  1.0000
  H   H53       1.0  0.22023  0.78056  0.15337  1.0000
  H   H54       1.0  0.49686  0.71804  0.53992  1.0000
  H   H55       1.0  0.6489899999999997  0.7750999999999998  0.7916  1.0000
  H   H56       1.0  0.2521  0.5803999999999998  0.21002  1.0000
  H   H57       1.0  0.8570200000000001  0.9171  0.43018  1.0000
  H   H58       1.0  0.91705  0.12351999999999998  0.33182  1.0000
  H   H59       1.0  0.88616  0.16245  0.03234  1.0000
  H   H60       1.0  0.68429  0.57844  0.87327  1.0000
  H   H61       1.0  0.043280000000000006  0.71786  0.53998  1.0000
  H   H62       1.0  0.1774000000000001  0.2155  0.8574700000000002  1.0000
  H   H63       1.0  0.25055  0.5308799999999999  0.03914  1.0000
  H   H64       1.0  0.11009999999999995  0.58784  0.46891  1.0000
  H   H65       1.0  0.95664  0.21790999999999994  0.46001  1.0000
  H   H66       1.0  0.024239999999999998  0.9683  0.34655  1.0000
  H   H67       1.0  0.73574  0.2873  0.97315  1.0000
  H   H68       1.0  0.07108000000000007  0.5327299999999998  0.6432500000000001  1.0000
  H   H69       1.0  0.14241999999999994  0.77476  0.79167  1.0000
  H   H70       1.0  0.7615  0.21447999999999998  0.011620000000000004  1.0000
  H   H71       1.0  0.734  0.4820099999999999  0.16605  1.0000
  H   H72       1.0  0.56886  0.9821699999999998  0.83359  1.0000
  H   H73       1.0  0.61081  0.33159  0.92969  1.0000
  H   H74       1.0  0.3591399999999999  0.5882  0.46866000000000013  1.0000
  H   H75       1.0  0.25002  0.21442999999999995  0.011780000000000004  1.0000
  H   H76       1.0  0.7495199999999999  0.030869999999999995  0.96087  1.0000
  H   H77       1.0  0.043159999999999976  0.08027  0.79018  1.0000
  H   H78       1.0  0.14558  0.16230999999999995  0.03217  1.0000
  H   H79       1.0  0.6800699999999998  0.21570999999999996  0.8572700000000002  1.0000
  H   H80       1.0  0.07976999999999992  0.3303799999999999  0.66464  1.0000
  H   H81       1.0  0.23852  0.7145099999999998  0.98839  1.0000
  H   H82       1.0  0.19082999999999994  0.7662999999999998  0.6687  1.0000
  H   H83       1.0  0.60183  0.97691  0.7081800000000003  1.0000
  H   H84       1.0  0.44084  0.67057  0.37464  1.0000
  H   H85       1.0  0.9902599999999999  0.03489  0.51107  1.0000
  H   H86       1.0  0.82251  0.71549  0.14255  1.0000
  H   H87       1.0  0.5716999999999999  0.53286  0.6431800000000002  1.0000
  H   H88       1.0  0.66609  0.41672  0.83219  1.0000
  H   H89       1.0  0.81451  0.49417999999999995  0.10720000000000003  1.0000
  H   H90       1.0  0.7075399999999998  0.9943599999999998  0.8925000000000002  1.0000
  H   H91       1.0  0.26422  0.7873299999999998  0.02686  1.0000
  H   H92       1.0  0.8092599999999998  0.26630999999999994  0.3313100000000001  1.0000
  H   H93       1.0  0.46150999999999986  0.2547  0.39185000000000003  1.0000
  H   H94       1.0  0.09501  0.18189999999999995  0.49999  1.0000
  H   H95       1.0  0.42833000000000004  0.03283  0.35682000000000014  1.0000
  H   H96       1.0  0.8095299999999999  0.07823999999999999  0.12638  1.0000
  H   H97       1.0  0.21124  0.030739999999999993  0.96114  1.0000
  H   H98       1.0  0.06932999999999993  0.75456  0.60819  1.0000
  H   H99       1.0  0.76237  0.7872199999999998  0.02672  1.0000
  H   H100      1.0  0.55921  0.17052  0.62536  1.0000
  H   H101      1.0  0.06772000000000009  0.2802799999999999  0.8467600000000002  1.0000
  H   H102      1.0  0.65235  0.56611  0.9983000000000001  1.0000
  H   H103      1.0  0.19047999999999995  0.5782799999999999  0.8736  1.0000
  H   H104      1.0  0.5031  0.21804  0.46009  1.0000
  H   H105      1.0  0.7797399999999999  0.2806399999999999  0.84668  1.0000
  H   H106      1.0  0.16664000000000007  0.1253  0.83296  1.0000
  H   H107      1.0  0.59604  0.68192  0.50008  1.0000
  H   H108      1.0  0.93062  0.25456999999999996  0.39180000000000004  1.0000
  H   H109      1.0  0.7048599999999998  0.6699099999999998  0.70988  1.0000
  H   H110      1.0  0.50604  0.46203  0.52711  1.0000
  H   H111      1.0  0.58484  0.6236299999999998  0.6681700000000003  1.0000
  H   H112      1.0  0.18548999999999993  0.99416  0.89281  1.0000
  H   H113      1.0  0.16574  0.41654999999999986  0.83215  1.0000
  H   H114      1.0  0.26598  0.9820199999999998  0.834  1.0000
  H   H115      1.0  0.06538999999999993  0.17031999999999994  0.6253  1.0000
  H   H116      1.0  0.08293000000000013  0.6235  0.6682000000000002  1.0000
  H   H117      1.0  0.31929  0.33186  0.92991  1.0000
  H   H118      1.0  0.32241  0.96837  0.34662  1.0000
  H   H119      1.0  0.23766000000000012  0.28721  0.9732900000000002  1.0000
  H   H120      1.0  0.52053  0.03505999999999999  0.51112  1.0000
  C   C1        1.0  0.9328000000000001  0.21752  0.39371  1.0000
  C   C2        1.0  0.9137500000000001  0.6798  0.4365100000000001  1.0000
  C   C3        1.0  0.82407  0.60489  0.13917  1.0000
  C   C4        1.0  0.70853  0.25619  0.91289  1.0000
  C   C5        1.0  0.90498  0.21486999999999995  0.3163700000000001  1.0000
  C   C6        1.0  0.8374600000000002  0.7148  0.4252200000000001  1.0000
  C   C7        1.0  0.80479  0.80015  0.10892  1.0000
  C   C8        1.0  0.1200800000000001  0.30703  0.8568600000000002  1.0000
  C   C9        1.0  0.51293  0.9124999999999998  0.40467  1.0000
  C   C10       1.0  0.3683299999999999  0.8773399999999998  0.11807  1.0000
  C   C11       1.0  0.08626000000000002  0.17981999999999995  0.56349  1.0000
  C   C12       1.0  0.76787  0.70293  0.78496  1.0000
  C   C13       1.0  0.2889  0.5819499999999997  0.9765400000000002  1.0000
  C   C14       1.0  0.4439799999999999  0.2745  0.26932  1.0000
  C   C15       1.0  0.06434  0.6429699999999998  0.88593  1.0000
  C   C16       1.0  0.19102  0.21498  0.8909200000000003  1.0000
  C   C17       1.0  0.91374  0.5511999999999998  0.21489  1.0000
  C   C18       1.0  0.95593  0.6598599999999998  0.40669  1.0000
  C   C19       1.0  0.20019999999999993  0.13632999999999998  0.04125  1.0000
  C   C20       1.0  0.32574000000000003  0.8843699999999998  0.15156000000000006  1.0000
  C   C21       1.0  0.46215  0.16675999999999994  0.52235  1.0000
  C   C22       1.0  0.72479  0.39084999999999986  0.69532  1.0000
  C   C23       1.0  0.23174  0.6157099999999998  0.98842  1.0000
  C   C24       1.0  0.26758  0.54763  0.28547  1.0000
  C   C25       1.0  0.7300300000000002  0.09945  0.9354500000000002  1.0000
  C   C26       1.0  0.63173  0.37735999999999986  0.88204  1.0000
  C   C27       1.0  0.68362  0.057249999999999995  0.85792  1.0000
  C   C28       1.0  0.97743  0.89874  0.33811  1.0000
  C   C29       1.0  0.9471100000000001  0.07523999999999999  0.4111500000000001  1.0000
  C   C30       1.0  0.64447  0.33606999999999987  0.90366  1.0000
  C   C31       1.0  0.07311  0.64395  0.64032  1.0000
  C   C32       1.0  0.24407  0.81303  0.73874  1.0000
  C   C33       1.0  0.17593000000000011  0.10486999999999998  0.8608400000000003  1.0000
  C   C34       1.0  0.31248  0.0818  0.024040000000000006  1.0000
  C   C35       1.0  0.9260499999999998  0.8631999999999997  0.35089  1.0000
  C   C36       1.0  0.29145  0.7561899999999998  0.08713000000000003  1.0000
  C   C37       1.0  0.7318  0.04749999999999999  0.71432  1.0000
  C   C38       1.0  0.17401000000000003  0.38426  0.84851  1.0000
  C   C39       1.0  0.01606000000000006  0.44124999999999986  0.6425400000000002  1.0000
  C   C40       1.0  0.17928  0.33423  0.60463  1.0000
  C   C41       1.0  0.97467  0.034799999999999984  0.47765  1.0000
  C   C42       1.0  0.94184  0.033679999999999995  0.3902  1.0000
  C   C43       1.0  0.37369  0.94136  0.35746  1.0000
  C   C44       1.0  0.7304799999999998  0.05179  0.9333800000000002  1.0000
  C   C45       1.0  0.5514  0.5337899999999998  0.60975  1.0000
  C   C46       1.0  0.8263299999999999  0.27433  0.26921  1.0000
  C   C47       1.0  0.51217  0.4940799999999999  0.54394  1.0000
  C   C48       1.0  0.61831  0.99273  0.7384000000000001  1.0000
  C   C49       1.0  0.75002  0.87739  0.11783000000000003  1.0000
  C   C50       1.0  0.94071  0.66667  0.47769  1.0000
  C   C51       1.0  0.21623000000000012  0.17380999999999994  0.9558600000000003  1.0000
  C   C52       1.0  0.2499600000000001  0.3774  0.8821200000000002  1.0000
  C   C53       1.0  0.6394100000000001  0.3987799999999999  0.6618800000000002  1.0000
  C   C54       1.0  0.70778  0.12639  0.8990900000000002  1.0000
  C   C55       1.0  0.23289999999999994  0.21433999999999995  0.97837  1.0000
  C   C56       1.0  0.6616999999999997  0.03326  0.07587  1.0000
  C   C57       1.0  0.879  0.4927699999999999  0.26131  1.0000
  C   C58       1.0  0.97577  0.8566699999999998  0.19748000000000004  1.0000
  C   C59       1.0  0.2433  0.11553  0.01184  1.0000
  C   C60       1.0  0.63181  0.75864  0.76164  1.0000
  C   C61       1.0  0.22707000000000005  0.25512  0.95649  1.0000
  C   C62       1.0  0.0522900000000001  0.69885  0.7151100000000002  1.0000
  C   C63       1.0  0.20197999999999994  0.5888999999999999  0.90555  1.0000
  C   C64       1.0  0.58633  0.53314  0.9230100000000002  1.0000
  C   C65       1.0  0.50659  0.93723  0.76239  1.0000
  C   C66       1.0  0.9480799999999999  0.19711999999999993  0.4324300000000001  1.0000
  C   C67       1.0  0.36069  0.8987799999999999  0.33811  1.0000
  C   C68       1.0  0.19522999999999993  0.30015  0.89108  1.0000
  C   C69       1.0  0.60054  0.9960799999999997  0.80935  1.0000
  C   C70       1.0  0.39287999999999995  0.62669  0.4185  1.0000
  C   C71       1.0  0.76827  0.11568999999999997  0.01158  1.0000
  C   C72       1.0  0.5887399999999999  0.7147599999999997  0.4251200000000001  1.0000
  C   C73       1.0  0.74052  0.8361099999999999  0.09616000000000002  1.0000
  C   C74       1.0  0.67426  0.38440999999999986  0.84854  1.0000
  C   C75       1.0  0.88214  0.8705599999999998  0.38388  1.0000
  C   C76       1.0  0.08625000000000002  0.05118  0.78511  1.0000
  C   C77       1.0  0.9356899999999998  0.14298  0.11406  1.0000
  C   C78       1.0  0.45674000000000003  0.12271999999999998  0.39819000000000004  1.0000
  C   C79       1.0  0.79695  0.5516599999999999  0.06636  1.0000
  C   C80       1.0  0.5646999999999998  0.69192  0.64295  1.0000
  C   C81       1.0  0.95089  0.9928299999999998  0.4125900000000001  1.0000
  C   C82       1.0  0.82078  0.8342899999999998  0.3955  1.0000
  C   C83       1.0  0.05186000000000006  0.69709  0.5675700000000002  1.0000
  C   C84       1.0  0.14459  0.6227999999999999  0.91744  1.0000
  C   C85       1.0  0.26052  0.6739599999999998  0.04435  1.0000
  C   C86       1.0  0.8113799999999999  0.53121  0.10508000000000003  1.0000
  C   C87       1.0  0.33830000000000005  0.53329  0.9241400000000002  1.0000
  C   C88       1.0  0.48165999999999987  0.14965  0.43448  1.0000
  C   C89       1.0  0.93208  0.22055  0.24644  1.0000
  C   C90       1.0  0.22648  0.12284  0.08258000000000003  1.0000
  C   C91       1.0  0.42518  0.86326  0.35091  1.0000
  C   C92       1.0  0.26253  0.8072299999999999  0.14317  1.0000
  C   C93       1.0  0.48786999999999997  0.9940699999999998  0.4560500000000001  1.0000
  C   C94       1.0  0.40615  0.61361  0.45986  1.0000
  C   C95       1.0  0.1081900000000001  0.4123599999999999  0.5954700000000003  1.0000
  C   C96       1.0  0.31484  0.22095999999999993  0.24650000000000002  1.0000
  C   C97       1.0  0.7431499999999998  0.4373799999999999  0.2375  1.0000
  C   C98       1.0  0.01646999999999999  0.7027799999999997  0.78498  1.0000
  C   C99       1.0  0.0491  0.4927999999999999  0.58742  1.0000
  C   C100      1.0  0.44861  0.033779999999999984  0.39025  1.0000
  C   C101      1.0  0.42476000000000014  0.33444  0.6036700000000003  1.0000
  C   C102      1.0  0.52362  0.6798499999999997  0.43644  1.0000
  C   C103      1.0  0.15743  0.034279999999999984  0.81747  1.0000
  C   C104      1.0  0.80624  0.4759  0.22956  1.0000
  C   C105      1.0  0.05847999999999999  0.6225599999999998  0.60185  1.0000
  C   C106      1.0  0.76717  0.7143599999999998  0.02165  1.0000
  C   C107      1.0  0.18863  0.03119  0.8949400000000002  1.0000
  C   C108      1.0  0.2700399999999999  0.5994499999999998  0.06455  1.0000
  C   C109      1.0  0.53785  0.66681  0.4776600000000001  1.0000
  C   C110      1.0  0.6997700000000001  0.05122999999999999  0.7848000000000003  1.0000
  C   C111      1.0  0.50716  0.31285  0.26136  1.0000
  C   C112      1.0  0.8089799999999998  0.7149999999999997  0.1091  1.0000
  C   C113      1.0  0.2752799999999999  0.8908699999999998  0.30467  1.0000
  C   C114      1.0  0.12098000000000005  0.9927199999999998  0.73871  1.0000
  C   C115      1.0  0.03817000000000012  0.57512  0.5452500000000002  1.0000
  C   C116      1.0  0.9457  0.11328999999999997  0.53998  1.0000
  C   C117      1.0  0.272  0.8492  0.1636  1.0000
  C   C118      1.0  0.05430000000000003  0.61328  0.4600300000000001  1.0000
  C   C119      1.0  0.36822  0.25864  0.23837000000000005  1.0000
  C   C120      1.0  0.25948  0.33611999999999986  0.90382  1.0000
  C   C121      1.0  0.5183700000000001  0.64966  0.5655300000000002  1.0000
  C   C122      1.0  0.29357999999999995  0.53138  0.10539  1.0000
  C   C123      1.0  0.92205  0.19175  0.3570200000000001  1.0000
  C   C124      1.0  0.82498  0.55707  0.14175000000000004  1.0000
  C   C125      1.0  0.85544  0.12276  0.08255  1.0000
  C   C126      1.0  0.33933  0.5344699999999998  0.18291000000000004  1.0000
  C   C127      1.0  0.43071999999999977  0.91334  0.10644  1.0000
  C   C128      1.0  0.75601  0.31303  0.26128  1.0000
  C   C129      1.0  0.07351000000000003  0.60597  0.38704  1.0000
  C   C130      1.0  0.79512  0.75606  0.08699  1.0000
  C   C131      1.0  0.17375000000000013  0.77432  0.7308000000000002  1.0000
  C   C132      1.0  0.71107  0.08193999999999997  0.02345  1.0000
  C   C133      1.0  0.77299  0.75513  0.04352  1.0000
  C   C134      1.0  0.19765999999999997  0.17357  0.91216  1.0000
  C   C135      1.0  0.79806  0.08884999999999998  0.09443  1.0000
  C   C136      1.0  0.4611  0.21767  0.3937900000000001  1.0000
  C   C137      1.0  0.016179999999999993  0.54798  0.2853  1.0000
  C   C138      1.0  0.20986999999999995  0.9959099999999997  0.80975  1.0000
  C   C139      1.0  0.8259799999999998  0.88428  0.15143  1.0000
  C   C140      1.0  0.77822  0.35685  0.80244  1.0000
  C   C141      1.0  0.16254000000000002  0.21482999999999997  0.5748  1.0000
  C   C142      1.0  0.73951  0.17395  0.95565  1.0000
  C   C143      1.0  0.47893  0.63383  0.48953  1.0000
  C   C144      1.0  0.48424999999999996  0.19725  0.4325  1.0000
  C   C145      1.0  0.8220099999999998  0.64284  0.88593  1.0000
  C   C146      1.0  0.3139  0.60608  0.38685  1.0000
  C   C147      1.0  0.49282999999999993  0.07528999999999997  0.45484  1.0000
  C   C148      1.0  0.30353  0.8002699999999999  0.10906  1.0000
  C   C149      1.0  0.536  0.5753799999999998  0.5888100000000002  1.0000
  C   C150      1.0  0.17501999999999995  0.05705  0.85826  1.0000
  C   C151      1.0  0.7064699999999999  0.03139  0.89462  1.0000
  C   C152      1.0  0.9268799999999998  0.14395999999999998  0.3597  1.0000
  C   C153      1.0  0.50286  0.03494999999999999  0.47769  1.0000
  C   C154      1.0  0.95255  0.14951  0.4344200000000001  1.0000
  C   C155      1.0  0.29227  0.62638  0.10092  1.0000
  C   C156      1.0  0.7567599999999999  0.61555  0.9881800000000001  1.0000
  C   C157      1.0  0.8706899999999997  0.25829  0.23827000000000007  1.0000
  C   C158      1.0  0.96173  0.07514  0.45478000000000013  1.0000
  C   C159      1.0  0.9838899999999998  0.9413099999999998  0.35744000000000004  1.0000
  C   C160      1.0  0.11798999999999994  0.37055  0.61619  1.0000
  C   C161      1.0  0.25685  0.9373599999999997  0.76253  1.0000
  C   C162      1.0  0.8913  0.8489699999999998  0.16358000000000006  1.0000
  C   C163      1.0  0.20561999999999994  0.09929999999999997  0.9357  1.0000
  C   C164      1.0  0.044109999999999996  0.15986  0.59332  1.0000
  C   C165      1.0  0.51574  0.69726  0.56751  1.0000
  C   C166      1.0  0.68762  0.5817999999999998  0.97602  1.0000
  C   C167      1.0  0.67703  0.9138199999999997  0.10623000000000003  1.0000
  C   C168      1.0  0.5749  0.36325  0.64909  1.0000
  C   C169      1.0  0.20310000000000009  0.05162999999999999  0.9336500000000002  1.0000
  C   C170      1.0  0.69999  0.21516  0.89073  1.0000
  C   C171      1.0  0.20489999999999994  0.25604999999999994  0.91303  1.0000
  C   C172      1.0  0.23217  0.20291999999999996  0.21504  1.0000
  C   C173      1.0  0.72593  0.06872999999999997  0.06463  1.0000
  C   C174      1.0  0.77351  0.6227999999999999  0.91743  1.0000
  C   C175      1.0  0.43528  0.19193  0.3570700000000001  1.0000
  C   C176      1.0  0.9714900000000001  0.39077  0.6954400000000002  1.0000
  C   C177      1.0  0.4928099999999999  0.81285  0.73865  1.0000
  C   C178      1.0  0.53888  0.71767  0.60623  1.0000
  C   C179      1.0  0.30021  0.55126  0.21517000000000006  1.0000
  C   C180      1.0  0.31496  0.60506  0.13944  1.0000
  C   C181      1.0  0.5560400000000002  0.7745  0.7307000000000002  1.0000
  C   C182      1.0  0.024290000000000114  0.35665  0.8024000000000002  1.0000
  C   C183      1.0  0.026210000000000004  0.62644  0.41867  1.0000
  C   C184      1.0  0.30003  0.7151499999999997  0.10927000000000003  1.0000
  C   C185      1.0  0.9265  0.10595999999999997  0.61296  1.0000
  C   C186      1.0  0.07394999999999996  0.36316  0.64913  1.0000
  C   C187      1.0  0.66233  0.69916  0.7151  1.0000
  C   C188      1.0  0.31644  0.55724  0.14209  1.0000
  C   C189      1.0  0.49794  0.37062  0.61597  1.0000
  C   C190      1.0  0.5361700000000001  0.7534299999999998  0.6919  1.0000
  C   C191      1.0  0.41123  0.21474  0.57489  1.0000
  C   C192      1.0  0.06717  0.7175199999999998  0.60629  1.0000
  C   C193      1.0  0.2704  0.75524  0.04366  1.0000
  C   C194      1.0  0.22172  0.8568099999999998  0.19761  1.0000
  C   C195      1.0  0.41188  0.21516  0.3164700000000001  1.0000
  C   C196      1.0  0.05811000000000011  0.53364  0.6098200000000003  1.0000
  C   C197      1.0  0.047380000000000005  0.6494899999999999  0.56559  1.0000
  C   C198      1.0  0.52111  0.1338  0.51048  1.0000
  C   C199      1.0  0.26958000000000004  0.55179  0.06663000000000002  1.0000
  C   C200      1.0  0.9835600000000001  0.20279  0.21502000000000004  1.0000
  C   C201      1.0  0.68083  0.03009  0.74607  1.0000
  C   C202      1.0  0.54331  0.62272  0.60181  1.0000
  C   C203      1.0  0.19147999999999996  0.12622  0.89933  1.0000
  C   C204      1.0  0.07797000000000005  0.6917499999999999  0.64299  1.0000
  C   C205      1.0  0.5507200000000001  0.44856  0.6086500000000002  1.0000
  C   C206      1.0  0.6071899999999999  0.12669  0.5815  1.0000
  C   C207      1.0  0.6263800000000002  0.44137  0.6425400000000002  1.0000
  C   C208      1.0  0.56933  0.41335  0.89365  1.0000
  C   C209      1.0  0.73742  0.30729  0.85688  1.0000
  C   C210      1.0  0.54866  0.16001  0.59341  1.0000
  C   C211      1.0  0.5881099999999998  0.71516  0.68355  1.0000
  C   C212      1.0  0.7944199999999998  0.59932  0.06432  1.0000
  C   C213      1.0  0.50725  0.5753099999999998  0.54516  1.0000
  C   C214      1.0  0.72794  0.34926  0.83645  1.0000
  C   C215      1.0  0.74535  0.21443999999999994  0.9782100000000002  1.0000
  C   C216      1.0  0.80235  0.67359  0.08785000000000003  1.0000
  C   C217      1.0  0.31901999999999997  0.53015  0.2539  1.0000
  C   C218      1.0  0.05927000000000002  0.1667  0.52232  1.0000
  C   C219      1.0  0.66157  0.56868  0.93477  1.0000
  C   C220      1.0  0.05771999999999995  0.44840999999999986  0.60868  1.0000
  C   C221      1.0  0.8799299999999998  0.80704  0.14313000000000006  1.0000
  C   C222      1.0  0.38154999999999994  0.49278  0.26162000000000013  1.0000
  C   C223      1.0  0.72959  0.25522  0.95634  1.0000
  C   C224      1.0  0.33769  0.19916  0.2849200000000001  1.0000
  C   C225      1.0  0.028510000000000035  0.89077  0.30455  1.0000
  C   C226      1.0  0.17802  0.1429  0.11406  1.0000
  C   C227      1.0  0.06644999999999998  0.0302  0.74635  1.0000
  C   C228      1.0  0.05280000000000017  0.57522  0.5888800000000002  1.0000
  C   C229      1.0  0.3229  0.41382999999999986  0.89375  1.0000
  C   C230      1.0  0.4972199999999999  0.53497  0.52231  1.0000
  C   C231      1.0  0.7143799999999999  0.17372999999999994  0.91195  1.0000
  C   C232      1.0  0.45133  0.6600399999999997  0.40659  1.0000
  C   C233      1.0  0.15523  0.7532  0.69203  1.0000
  C   C234      1.0  0.57734  0.9759299999999997  0.77013  1.0000
  C   C235      1.0  0.35551  0.8360799999999998  0.09642  1.0000
  C   C236      1.0  0.7042699999999998  0.58893  0.90526  1.0000
  C   C237      1.0  0.41367  0.03316999999999999  0.07716000000000003  1.0000
  C   C238      1.0  0.6852  0.72097  0.7535  1.0000
  C   C239      1.0  0.011269999999999974  0.6335699999999997  0.48963  1.0000
  C   C240      1.0  0.25468  0.71445  0.0218  1.0000
  C   C241      1.0  0.94232  0.9484499999999998  0.39132  1.0000
  C   C242      1.0  0.46385  0.25343  0.30812  1.0000
  C   C243      1.0  0.96834  0.99395  0.45599  1.0000
  C   C244      1.0  0.06793000000000002  0.7205599999999998  0.75356  1.0000
  C   C245      1.0  0.43307  0.14412  0.35972  1.0000
  C   C246      1.0  0.10867  0.34894999999999987  0.83637  1.0000
  C   C247      1.0  0.84485  0.25319999999999987  0.30798  1.0000
  C   C248      1.0  0.98372  0.047949999999999986  0.71472  1.0000
  C   C249      1.0  0.42256999999999995  0.47593999999999986  0.22991  1.0000
  C   C250      1.0  0.94146  0.12258  0.39817000000000013  1.0000
  C   C251      1.0  0.12936000000000003  0.7582799999999997  0.76173  1.0000
  C   C252      1.0  0.9477  0.19882  0.28489  1.0000
  C   C253      1.0  0.59394  0.11359999999999998  0.54015  1.0000
  C   C254      1.0  0.79011  0.49592999999999987  0.19028  1.0000
  C   C255      1.0  0.6607  0.03446999999999999  0.81709  1.0000
  C   C256      1.0  0.025209999999999996  0.5347899999999999  0.52238  1.0000
  C   C257      1.0  0.78382  0.67383  0.04416  1.0000
  C   C258      1.0  0.3384999999999999  0.06874  0.06531  1.0000
  C   C259      1.0  0.9886999999999998  0.13359999999999994  0.51038  1.0000
  C   C260      1.0  0.28566  0.67373  0.08805000000000003  1.0000
  C   C261      1.0  0.09506000000000012  0.71488  0.6836300000000002  1.0000
  C   C262      1.0  0.68623  0.10608999999999998  0.61313  1.0000
  C   C263      1.0  0.97383  0.12644  0.58133  1.0000
  C   C264      1.0  0.27408  0.56877  0.93536  1.0000
  C   C265      1.0  0.69642  0.3002799999999999  0.8909900000000002  1.0000
  C   C266      1.0  0.46406  0.07536999999999999  0.41118  1.0000
  C   C267      1.0  0.8425499999999998  0.5343  0.18254  1.0000
  C   C268      1.0  0.8919699999999998  0.9123899999999998  0.40457  1.0000
  C   C269      1.0  0.47632  0.17980999999999994  0.56357  1.0000
  C   C270      1.0  0.39944  0.4960699999999999  0.19068000000000004  1.0000
  C   C271      1.0  0.4493099999999999  0.9485499999999998  0.39135  1.0000
  C   C272      1.0  0.031570000000000015  0.4939199999999999  0.54402  1.0000
  C   C273      1.0  0.93351  0.53025  0.25365  1.0000
  C   C274      1.0  0.29573  0.08898999999999997  0.09479  1.0000
  C   C275      1.0  0.5669399999999998  0.6441199999999998  0.64029  1.0000
  C   C276      1.0  0.022520000000000026  0.39869999999999994  0.66187  1.0000
  C   C277      1.0  0.6850699999999997  0.10506999999999997  0.86057  1.0000
  C   C278      1.0  0.53801  0.49294  0.58735  1.0000
  C   C279      1.0  0.15947000000000003  0.6364399999999998  0.95875  1.0000
  C   C280      1.0  0.79982  0.6363299999999997  0.95875  1.0000
  C   C281      1.0  0.19375000000000012  0.9758799999999997  0.7704800000000003  1.0000
  C   C282      1.0  0.57522  0.8344299999999998  0.39631  1.0000
  C   C283      1.0  0.46199999999999997  0.9929299999999998  0.4126400000000001  1.0000
  C   C284      1.0  0.48712000000000005  0.41249  0.59536  1.0000
  C   C285      1.0  0.80852  0.62624  0.10069  1.0000
  C   C286      1.0  0.84057  0.1364  0.04124000000000001  1.0000
  C   C287      1.0  0.5021  0.8706299999999998  0.3840500000000001  1.0000
  C   C288      1.0  0.49335  0.4372299999999999  0.23763  1.0000
  N   N1        1.0  0.21897000000000008  0.12863  0.9699400000000002  1.0000
  N   N2        1.0  0.7509100000000001  0.12879  0.9697100000000002  1.0000
  N   N3        1.0  0.7811199999999998  0.6286499999999998  0.03008  1.0000
  N   N4        1.0  0.03612999999999998  0.62032  0.53141  1.0000
  N   N5        1.0  0.50435  0.1205  0.4687  1.0000
  N   N6        1.0  0.24913999999999997  0.6287999999999998  0.030290000000000008  1.0000
  N   N7        1.0  0.4957  0.62052  0.53131  1.0000
  N   N8        1.0  0.9638000000000001  0.12033999999999997  0.46861000000000014  1.0000
  O   O1        1.0  0.25618999999999986  0.52067  0.31429  1.0000
  O   O2        1.0  0.40267  0.21569999999999998  0.61227  1.0000
  O   O3        1.0  0.024320000000000022  0.61652  0.85665  1.0000
  O   O4        1.0  0.20750999999999997  0.16162999999999994  0.22018000000000004  1.0000
  O   O5        1.0  0.7363200000000001  0.4304899999999999  0.2747500000000001  1.0000
  O   O6        1.0  0.9486299999999999  0.3494699999999999  0.70112  1.0000
  O   O7        1.0  0.3471699999999999  0.5324  0.88682  1.0000
  O   O8        1.0  0.80058  0.3981099999999999  0.79626  1.0000
  O   O9        1.0  0.69905  0.41466999999999987  0.20614  1.0000
  O   O10       1.0  0.21802  0.3070099999999999  0.63353  1.0000
  O   O11       1.0  0.20829999999999996  0.21555999999999995  0.61225  1.0000
  O   O12       1.0  0.36888  0.24058999999999994  0.5455200000000002  1.0000
  O   O13       1.0  0.05682000000000004  0.52079  0.3138600000000001  1.0000
  O   O14       1.0  0.79169  0.7155699999999999  0.38776  1.0000
  O   O15       1.0  0.046340000000000055  0.9259399999999999  0.2847200000000001  1.0000
  O   O16       1.0  0.2912500000000001  0.56464  0.3921500000000001  1.0000
  O   O17       1.0  0.63107  0.7405899999999997  0.45449  1.0000
  O   O18       1.0  0.89837  0.06453  0.60782  1.0000
  O   O19       1.0  0.37014  0.41442999999999997  0.93112  1.0000
  O   O20       1.0  0.18964  0.33344  0.56742  1.0000
  O   O21       1.0  0.46189  0.9303199999999998  0.7252  1.0000
  O   O22       1.0  0.3009299999999999  0.9146499999999997  0.79389  1.0000
  O   O23       1.0  0.9172400000000003  0.13215999999999994  0.6425100000000002  1.0000
  O   O24       1.0  0.23613  0.5886599999999997  0.28043  1.0000
  O   O25       1.0  0.51411  0.3195999999999999  0.22412000000000007  1.0000
  O   O26       1.0  0.48586  0.8196  0.77589  1.0000
  O   O27       1.0  0.98558  0.6616599999999998  0.7798500000000003  1.0000
  O   O28       1.0  0.9758  0.11653  0.14332  1.0000
  O   O29       1.0  0.65282  0.03239  0.11319  1.0000
  O   O30       1.0  0.76415  0.08836  0.71955  1.0000
  O   O31       1.0  0.013510000000000029  0.82153  0.21742000000000006  1.0000
  O   O32       1.0  0.16952  0.11646999999999998  0.14364000000000005  1.0000
  O   O33       1.0  0.9959600000000002  0.3979899999999999  0.7964100000000002  1.0000
  O   O34       1.0  0.27492  0.63212  0.35715  1.0000
  O   O35       1.0  0.14852  0.18413999999999994  0.10875  1.0000
  O   O36       1.0  0.7534599999999998  0.34953  0.701  1.0000
  O   O37       1.0  0.52815  0.4399599999999999  0.86471  1.0000
  O   O38       1.0  0.45906  0.032149999999999984  0.11466  1.0000
  O   O39       1.0  0.5050400000000003  0.41446  0.20617000000000005  1.0000
  O   O40       1.0  0.54088  0.53211  0.88553  1.0000
  O   O41       1.0  0.76323  0.42598999999999987  0.71503  1.0000
  O   O42       1.0  0.23677000000000004  0.926  0.2849900000000001  1.0000
  O   O43       1.0  0.6201399999999998  0.8332399999999999  0.43401  1.0000
  O   O44       1.0  0.7448399999999998  0.33586  0.29276  1.0000
  O   O45       1.0  0.04162000000000003  0.58928  0.2805900000000001  1.0000
  O   O46       1.0  0.19943000000000002  0.8980799999999998  0.20377000000000006  1.0000
  O   O47       1.0  0.6200999999999999  0.00702  0.04664  1.0000
  O   O48       1.0  0.49498000000000003  0.9144399999999998  0.79385  1.0000
  O   O49       1.0  0.2890700000000001  0.81974  0.7759000000000003  1.0000
  O   O50       1.0  0.004209999999999998  0.8979999999999998  0.20332  1.0000
  O   O51       1.0  0.26367000000000007  0.9305099999999997  0.7252800000000003  1.0000
  O   O52       1.0  0.7821499999999998  0.807  0.36664000000000013  1.0000
  O   O53       1.0  0.8305300000000001  0.61641  0.8563600000000002  1.0000
  O   O54       1.0  0.71117  0.3197799999999999  0.2241  1.0000
  O   O55       1.0  0.7253900000000001  0.13211999999999993  0.6428100000000002  1.0000
  O   O56       1.0  0.94282  0.02075  0.68621  1.0000
  O   O57       1.0  0.19135  0.22947999999999993  0.18597000000000005  1.0000
  O   O58       1.0  0.62981  0.9144599999999998  0.06886  1.0000
  O   O59       1.0  0.2550800000000001  0.8359099999999998  0.7072500000000003  1.0000
  O   O60       1.0  0.79617  0.32158  0.7827600000000002  1.0000
  O   O61       1.0  0.5734800000000002  0.50691  0.9521100000000002  1.0000
  O   O62       1.0  0.81025  0.83355  0.4326800000000001  1.0000
  O   O63       1.0  0.55097  0.3355  0.2928000000000001  1.0000
  O   O64       1.0  0.70877  0.06465  0.60779  1.0000
  O   O65       1.0  0.04166000000000001  0.6844799999999998  0.8911  1.0000
  O   O66       1.0  0.4489800000000001  0.8354999999999999  0.7072100000000002  1.0000
  O   O67       1.0  0.005470000000000152  0.72952  0.8140100000000002  1.0000
  O   O68       1.0  0.37988999999999995  0.50703  0.95337  1.0000
  O   O69       1.0  0.8085499999999998  0.7294899999999999  0.81406  1.0000
  O   O70       1.0  0.17590999999999996  0.24076999999999996  0.54558  1.0000
  O   O71       1.0  0.24662000000000003  0.8495399999999997  0.2989900000000001  1.0000
  O   O72       1.0  0.95825  0.18451999999999993  0.1089  1.0000
  O   O73       1.0  0.95842  0.08926  0.71941  1.0000
  O   O74       1.0  0.7416099999999999  0.02072  0.68512  1.0000
  O   O75       1.0  0.08268000000000003  0.63215  0.35746  1.0000
  O   O76       1.0  0.95372  0.42598999999999987  0.71526  1.0000
  O   O77       1.0  0.0513  0.84944  0.29888  1.0000
  O   O78       1.0  0.99453  0.22951  0.18598000000000003  1.0000
  O   O79       1.0  0.82408  0.74074  0.4544300000000001  1.0000
  O   O80       1.0  0.3330499999999999  0.4412299999999999  0.86501  1.0000
  O   O81       1.0  0.9864400000000001  0.3214999999999999  0.78254  1.0000
  O   O82       1.0  0.7926499999999999  0.66167  0.7798100000000002  1.0000
  O   O83       1.0  0.42648  0.006889999999999999  0.0481  1.0000
  O   O84       1.0  0.5973499999999999  0.7157199999999998  0.38774  1.0000
  O   O85       1.0  0.41204000000000013  0.30779  0.6324700000000002  1.0000
  O   O86       1.0  0.85155  0.68407  0.89124  1.0000
  O   O87       1.0  0.5606100000000003  0.41437  0.9311400000000002  1.0000
  O   O88       1.0  0.10171000000000002  0.5645499999999998  0.39221  1.0000
  O   O89       1.0  0.20376999999999995  0.8215599999999997  0.21735  1.0000
  O   O90       1.0  0.6668499999999998  0.94118  0.13499  1.0000
  O   O91       1.0  0.47181  0.9399799999999998  0.13536000000000006  1.0000
  O   O92       1.0  0.43945  0.9143499999999999  0.06895  1.0000
  O   O93       1.0  0.37978999999999996  0.33328999999999986  0.56597  1.0000
  O   O94       1.0  0.014499999999999999  0.16168  0.22016  1.0000
  O   O95       1.0  0.53807  0.4303  0.27481  1.0000
  O   O96       1.0  0.58796  0.80779  0.3675  1.0000
