data_image0
_chemical_formula_structural       K8Cd20H112C256O128
_chemical_formula_sum              "K8 Cd20 H112 C256 O128"
_cell_length_a       11.79088
_cell_length_b       26.19763
_cell_length_c       29.84261
_cell_angle_alpha    89.98927
_cell_angle_beta     90.00045
_cell_angle_gamma    90.00046

_symmetry_space_group_name_H-M    'P 1'
_symmetry_Int_Tables_number       1

loop_
  _symmetry_equiv_pos_as_xyz
  'x,y,z'

loop_
  _atom_site_type_symbol
  _atom_site_label
  _atom_site_symmetry_multiplicity
  _atom_site_fract_x
  _atom_site_fract_y
  _atom_site_fract_z
  _atom_site_occupancy
  K   K1        1.0  0.89913  0.4999999999999999  0.25  1.0000
  K   K2        1.0  0.57971  0.4999999999999999  0.25  1.0000
  K   K3        1.0  0.59763  0.9999999999999999  0.7500000000000001  1.0000
  K   K4        1.0  0.91987  0.0  0.74999  1.0000
  K   K5        1.0  0.10088  0.4999999999999999  0.7500000000000001  1.0000
  K   K6        1.0  0.42031  0.4999999999999999  0.7500000000000001  1.0000
  K   K7        1.0  0.40238  0.0  0.25  1.0000
  K   K8        1.0  0.08014  0.0  0.25001  1.0000
  Cd  Cd1       1.0  0.20077  0.27102  0.51364  1.0000
  Cd  Cd2       1.0  0.73853  0.50623  0.36765  1.0000
  Cd  Cd3       1.0  0.29765  0.2302  0.0139  1.0000
  Cd  Cd4       1.0  0.75822  0.99455  0.86753  1.0000
  Cd  Cd5       1.0  0.20077  0.7289799999999997  0.98637  1.0000
  Cd  Cd6       1.0  0.73854  0.4937699999999999  0.13235  1.0000
  Cd  Cd7       1.0  0.29765  0.7697999999999998  0.4861  1.0000
  Cd  Cd8       1.0  0.75822  0.00545  0.63247  1.0000
  Cd  Cd9       1.0  0.2415  0.4999999999999999  0.24999000000000005  1.0000
  Cd  Cd10      1.0  0.25703  0.9999999999999999  0.7500000000000001  1.0000
  Cd  Cd11      1.0  0.79924  0.7289799999999997  0.48637000000000014  1.0000
  Cd  Cd12      1.0  0.26148  0.4937699999999999  0.63235  1.0000
  Cd  Cd13      1.0  0.70237  0.7697999999999998  0.9861  1.0000
  Cd  Cd14      1.0  0.24179  0.00545  0.13247  1.0000
  Cd  Cd15      1.0  0.79924  0.27102  0.013630000000000003  1.0000
  Cd  Cd16      1.0  0.26147  0.50623  0.86765  1.0000
  Cd  Cd17      1.0  0.7023599999999999  0.2302  0.5139  1.0000
  Cd  Cd18      1.0  0.24179  0.99455  0.36753  1.0000
  Cd  Cd19      1.0  0.75851  0.50001  0.75001  1.0000
  Cd  Cd20      1.0  0.7429700000000001  0.0  0.25  1.0000
  H   H1        1.0  0.3351  0.38690999999999987  0.30599  1.0000
  H   H2        1.0  0.147  0.6160599999999998  0.29892  1.0000
  H   H3        1.0  0.21428000000000003  0.37543  0.38195  1.0000
  H   H4        1.0  0.92961  0.38952  0.29244  1.0000
  H   H5        1.0  0.91512  0.28481999999999996  0.40369  1.0000
  H   H6        1.0  0.48747999999999997  0.27692  0.29681  1.0000
  H   H7        1.0  0.64061  0.21259  0.30807  1.0000
  H   H8        1.0  0.83135  0.24061999999999995  0.33248  1.0000
  H   H9        1.0  0.26628  0.6447599999999998  0.36884  1.0000
  H   H10       1.0  0.57142  0.7341899999999999  0.37862  1.0000
  H   H11       1.0  0.5511  0.61051  0.28378  1.0000
  H   H12       1.0  0.9945099999999999  0.7213099999999998  0.27096000000000003  1.0000
  H   H13       1.0  0.84168  0.7869899999999999  0.27174000000000004  1.0000
  H   H14       1.0  0.65182  0.76472  0.30118  1.0000
  H   H15       1.0  0.16072  0.11267999999999997  0.80666  1.0000
  H   H16       1.0  0.35366  0.8836699999999998  0.79728  1.0000
  H   H17       1.0  0.28422  0.12443999999999997  0.8830200000000002  1.0000
  H   H18       1.0  0.56709  0.11081999999999999  0.79257  1.0000
  H   H19       1.0  0.58371  0.21493  0.90413  1.0000
  H   H20       1.0  0.01038  0.22346999999999995  0.79708  1.0000
  H   H21       1.0  0.8574799999999999  0.28798999999999997  0.80833  1.0000
  H   H22       1.0  0.66665  0.26023999999999997  0.83261  1.0000
  H   H23       1.0  0.23443  0.85464  0.86898  1.0000
  H   H24       1.0  0.92877  0.7654799999999999  0.87861  1.0000
  H   H25       1.0  0.94976  0.8893899999999998  0.784  1.0000
  H   H26       1.0  0.50583  0.77926  0.77046  1.0000
  H   H27       1.0  0.6579  0.7131699999999997  0.77187  1.0000
  H   H28       1.0  0.84765  0.7352799999999998  0.80154  1.0000
  H   H29       1.0  0.3351  0.6130899999999999  0.19401  1.0000
  H   H30       1.0  0.14699  0.3839399999999999  0.20105  1.0000
  H   H31       1.0  0.21428000000000003  0.62457  0.11805000000000002  1.0000
  H   H32       1.0  0.9296  0.6104799999999999  0.20755  1.0000
  H   H33       1.0  0.91512  0.71518  0.09631  1.0000
  H   H34       1.0  0.48747999999999997  0.7230799999999998  0.20319  1.0000
  H   H35       1.0  0.64061  0.7874099999999999  0.19193  1.0000
  H   H36       1.0  0.8313599999999999  0.7593799999999999  0.16752  1.0000
  H   H37       1.0  0.2663  0.35524  0.13115  1.0000
  H   H38       1.0  0.57142  0.26581  0.12138  1.0000
  H   H39       1.0  0.5511  0.3894899999999999  0.21622000000000002  1.0000
  H   H40       1.0  0.9945099999999999  0.27869  0.22904  1.0000
  H   H41       1.0  0.84168  0.21301  0.22826  1.0000
  H   H42       1.0  0.65182  0.23529  0.19882  1.0000
  H   H43       1.0  0.16072  0.8873399999999998  0.69334  1.0000
  H   H44       1.0  0.35366  0.11633  0.70272  1.0000
  H   H45       1.0  0.28422  0.8755599999999999  0.61698  1.0000
  H   H46       1.0  0.5671  0.88919  0.70743  1.0000
  H   H47       1.0  0.58372  0.7850799999999998  0.59587  1.0000
  H   H48       1.0  0.01039  0.77653  0.70292  1.0000
  H   H49       1.0  0.85747  0.71201  0.69167  1.0000
  H   H50       1.0  0.66665  0.7397599999999998  0.66739  1.0000
  H   H51       1.0  0.23443  0.14536  0.63102  1.0000
  H   H52       1.0  0.92877  0.23451999999999995  0.62139  1.0000
  H   H53       1.0  0.94976  0.11061  0.716  1.0000
  H   H54       1.0  0.50583  0.22073999999999994  0.72954  1.0000
  H   H55       1.0  0.6579  0.2868299999999999  0.7281300000000002  1.0000
  H   H56       1.0  0.8476600000000001  0.26473  0.69846  1.0000
  H   H57       1.0  0.66491  0.6130899999999999  0.69401  1.0000
  H   H58       1.0  0.85301  0.3839399999999999  0.70108  1.0000
  H   H59       1.0  0.7857300000000002  0.62457  0.61805  1.0000
  H   H60       1.0  0.0704  0.6104799999999999  0.70756  1.0000
  H   H61       1.0  0.08489000000000001  0.71518  0.5963100000000001  1.0000
  H   H62       1.0  0.51253  0.7230799999999998  0.7031900000000001  1.0000
  H   H63       1.0  0.3594  0.7874099999999999  0.69193  1.0000
  H   H64       1.0  0.16866  0.7593799999999999  0.66752  1.0000
  H   H65       1.0  0.73373  0.35524  0.63116  1.0000
  H   H66       1.0  0.42859  0.26581999999999995  0.62138  1.0000
  H   H67       1.0  0.44891  0.3894899999999999  0.71622  1.0000
  H   H68       1.0  0.0055  0.27869  0.72904  1.0000
  H   H69       1.0  0.15833  0.21301  0.72826  1.0000
  H   H70       1.0  0.3482  0.23529  0.69882  1.0000
  H   H71       1.0  0.83929  0.88733  0.19334  1.0000
  H   H72       1.0  0.64635  0.11633  0.20272  1.0000
  H   H73       1.0  0.71579  0.8755599999999999  0.11698  1.0000
  H   H74       1.0  0.43293  0.8891799999999999  0.20743  1.0000
  H   H75       1.0  0.4163  0.7850799999999998  0.09587  1.0000
  H   H76       1.0  0.9896300000000001  0.7765399999999999  0.20292  1.0000
  H   H77       1.0  0.14253  0.71201  0.19167  1.0000
  H   H78       1.0  0.33337  0.7397599999999998  0.16739  1.0000
  H   H79       1.0  0.7655800000000001  0.14536  0.13102  1.0000
  H   H80       1.0  0.07124  0.23453  0.12139000000000001  1.0000
  H   H81       1.0  0.05025000000000001  0.11061  0.216  1.0000
  H   H82       1.0  0.49417999999999995  0.22073999999999994  0.22954  1.0000
  H   H83       1.0  0.34211  0.2868299999999999  0.22813  1.0000
  H   H84       1.0  0.15236  0.26473  0.19846  1.0000
  H   H85       1.0  0.66491  0.38690999999999987  0.80599  1.0000
  H   H86       1.0  0.85302  0.6160599999999998  0.79895  1.0000
  H   H87       1.0  0.7857300000000002  0.37543  0.88195  1.0000
  H   H88       1.0  0.07041  0.38953  0.79245  1.0000
  H   H89       1.0  0.0849  0.28481999999999996  0.90369  1.0000
  H   H90       1.0  0.51253  0.27692  0.79681  1.0000
  H   H91       1.0  0.3594  0.21259  0.80807  1.0000
  H   H92       1.0  0.16866  0.24061999999999995  0.83248  1.0000
  H   H93       1.0  0.73372  0.6447599999999998  0.86885  1.0000
  H   H94       1.0  0.42859  0.7341899999999999  0.87862  1.0000
  H   H95       1.0  0.44891  0.61051  0.78378  1.0000
  H   H96       1.0  0.0055  0.7213099999999998  0.77096  1.0000
  H   H97       1.0  0.15833  0.7869899999999999  0.77174  1.0000
  H   H98       1.0  0.34819  0.76472  0.80118  1.0000
  H   H99       1.0  0.83929  0.11266999999999999  0.30666  1.0000
  H   H100      1.0  0.64635  0.8836699999999998  0.29728  1.0000
  H   H101      1.0  0.71579  0.12443999999999997  0.38302  1.0000
  H   H102      1.0  0.4329100000000001  0.11081999999999999  0.29257  1.0000
  H   H103      1.0  0.41629  0.21493  0.40413  1.0000
  H   H104      1.0  0.98962  0.22347999999999996  0.29708  1.0000
  H   H105      1.0  0.14254  0.2879999999999999  0.30833  1.0000
  H   H106      1.0  0.33336  0.26023999999999997  0.33261  1.0000
  H   H107      1.0  0.7655800000000001  0.85464  0.36898  1.0000
  H   H108      1.0  0.07124  0.7654799999999999  0.37861  1.0000
  H   H109      1.0  0.05025000000000001  0.8893899999999998  0.28400000000000003  1.0000
  H   H110      1.0  0.49417999999999995  0.77926  0.27046  1.0000
  H   H111      1.0  0.34211  0.7131699999999997  0.27187  1.0000
  H   H112      1.0  0.15236  0.7352799999999998  0.3015400000000001  1.0000
  C   C1        1.0  0.11921  0.30351  0.43724  1.0000
  C   C2        1.0  0.06929  0.32779  0.39665000000000006  1.0000
  C   C3        1.0  0.12915  0.3643499999999999  0.37183  1.0000
  C   C4        1.0  0.07841  0.3863999999999999  0.33408  1.0000
  C   C5        1.0  0.9678  0.3722299999999999  0.32187  1.0000
  C   C6        1.0  0.90664  0.33601  0.34669  1.0000
  C   C7        1.0  0.95938  0.3134  0.38384  1.0000
  C   C8        1.0  0.13868  0.42609999999999987  0.30681  1.0000
  C   C9        1.0  0.78943  0.32074  0.33378  1.0000
  C   C10       1.0  0.70129  0.35669  0.32826000000000005  1.0000
  C   C11       1.0  0.59164  0.34063  0.3155  1.0000
  C   C12       1.0  0.57143  0.28868  0.30762  1.0000
  C   C13       1.0  0.65716  0.25288  0.31386  1.0000
  C   C14       1.0  0.76465  0.26878  0.3274  1.0000
  C   C15       1.0  0.7236000000000001  0.41184  0.33866  1.0000
  C   C16       1.0  0.49819  0.37885  0.31129  1.0000
  C   C17       1.0  0.34179  0.57877  0.3032  1.0000
  C   C18       1.0  0.40282999999999997  0.6227499999999998  0.3242900000000001  1.0000
  C   C19       1.0  0.35233000000000003  0.6526399999999999  0.35765  1.0000
  C   C20       1.0  0.41431  0.69263  0.37692  1.0000
  C   C21       1.0  0.52522  0.70309  0.36273  1.0000
  C   C22       1.0  0.57608  0.6735999999999998  0.3291800000000001  1.0000
  C   C23       1.0  0.51379  0.63354  0.31018  1.0000
  C   C24       1.0  0.36733  0.72453  0.41364  1.0000
  C   C25       1.0  0.69275  0.6857799999999997  0.31386  1.0000
  C   C26       1.0  0.7799200000000001  0.6489599999999998  0.31347  1.0000
  C   C27       1.0  0.88965  0.6623899999999999  0.29891  1.0000
  C   C28       1.0  0.9103299999999999  0.7119299999999998  0.28314  1.0000
  C   C29       1.0  0.82484  0.74847  0.28361000000000003  1.0000
  C   C30       1.0  0.71773  0.7356999999999999  0.29981  1.0000
  C   C31       1.0  0.98307  0.62418  0.30182  1.0000
  C   C32       1.0  0.75667  0.5961  0.33062  1.0000
  C   C33       1.0  0.38067  0.19631999999999994  0.93824  1.0000
  C   C34       1.0  0.42947  0.17201999999999998  0.89743  1.0000
  C   C35       1.0  0.36922  0.13551  0.8727100000000002  1.0000
  C   C36       1.0  0.41949  0.11346999999999997  0.83483  1.0000
  C   C37       1.0  0.52955  0.12797  0.82217  1.0000
  C   C38       1.0  0.59082  0.16438  0.84674  1.0000
  C   C39       1.0  0.53906  0.18651999999999994  0.88426  1.0000
  C   C40       1.0  0.35846  0.07385  0.80772  1.0000
  C   C41       1.0  0.7075000000000001  0.17994999999999994  0.8334800000000002  1.0000
  C   C42       1.0  0.7952400000000001  0.14393  0.82773  1.0000
  C   C43       1.0  0.9049  0.15994999999999995  0.81513  1.0000
  C   C44       1.0  0.92601  0.21184999999999996  0.80753  1.0000
  C   C45       1.0  0.8404800000000001  0.24770999999999996  0.81385  1.0000
  C   C46       1.0  0.73281  0.2319  0.8273  1.0000
  C   C47       1.0  0.77326  0.08882  0.83849  1.0000
  C   C48       1.0  0.9972  0.12135999999999997  0.81113  1.0000
  C   C49       1.0  0.15873  0.9209599999999998  0.8032  1.0000
  C   C50       1.0  0.09781  0.8770399999999998  0.8246  1.0000
  C   C51       1.0  0.14826  0.8469  0.85786  1.0000
  C   C52       1.0  0.08617  0.8068199999999999  0.87704  1.0000
  C   C53       1.0  0.97506  0.7966299999999998  0.8628200000000003  1.0000
  C   C54       1.0  0.9241699999999999  0.8263399999999997  0.8294  1.0000
  C   C55       1.0  0.98674  0.8663799999999999  0.8105  1.0000
  C   C56       1.0  0.13269  0.7744  0.9136400000000001  1.0000
  C   C57       1.0  0.8073800000000001  0.81435  0.81395  1.0000
  C   C58       1.0  0.72046  0.8513299999999998  0.81331  1.0000
  C   C59       1.0  0.61087  0.8380599999999998  0.79843  1.0000
  C   C60       1.0  0.59  0.7884899999999998  0.78276  1.0000
  C   C61       1.0  0.67503  0.7517499999999999  0.78357  1.0000
  C   C62       1.0  0.78206  0.7644299999999999  0.79994  1.0000
  C   C63       1.0  0.51697  0.8760799999999997  0.8009  1.0000
  C   C64       1.0  0.74338  0.90419  0.83057  1.0000
  C   C65       1.0  0.11920000000000001  0.6964899999999998  0.06276  1.0000
  C   C66       1.0  0.06928  0.67221  0.10335  1.0000
  C   C67       1.0  0.12915  0.6356499999999998  0.12817  1.0000
  C   C68       1.0  0.07841  0.6136  0.16592  1.0000
  C   C69       1.0  0.96779  0.62777  0.17813  1.0000
  C   C70       1.0  0.90664  0.66399  0.15331  1.0000
  C   C71       1.0  0.95938  0.6866  0.11616  1.0000
  C   C72       1.0  0.13868  0.57391  0.19319  1.0000
  C   C73       1.0  0.78943  0.6792699999999999  0.16622000000000003  1.0000
  C   C74       1.0  0.70129  0.6433199999999998  0.17174  1.0000
  C   C75       1.0  0.59164  0.65938  0.1845  1.0000
  C   C76       1.0  0.57143  0.7113199999999998  0.19238  1.0000
  C   C77       1.0  0.65716  0.7471299999999997  0.18614  1.0000
  C   C78       1.0  0.76465  0.73123  0.1726  1.0000
  C   C79       1.0  0.72359  0.5881599999999999  0.16135  1.0000
  C   C80       1.0  0.49818  0.6211499999999998  0.18871  1.0000
  C   C81       1.0  0.34178  0.42122999999999994  0.19678  1.0000
  C   C82       1.0  0.40284  0.3772599999999999  0.17570000000000002  1.0000
  C   C83       1.0  0.35234  0.3473499999999999  0.14234  1.0000
  C   C84       1.0  0.41432  0.30736  0.12308  1.0000
  C   C85       1.0  0.52523  0.29690999999999995  0.13727  1.0000
  C   C86       1.0  0.57608  0.3264  0.17082  1.0000
  C   C87       1.0  0.51379  0.3664599999999999  0.18981  1.0000
  C   C88       1.0  0.36733  0.27546  0.08636  1.0000
  C   C89       1.0  0.6927600000000002  0.31422999999999995  0.18614  1.0000
  C   C90       1.0  0.77993  0.35104  0.18653  1.0000
  C   C91       1.0  0.8896600000000001  0.3376099999999999  0.20109000000000002  1.0000
  C   C92       1.0  0.9103299999999999  0.28808  0.21686  1.0000
  C   C93       1.0  0.82484  0.25153  0.2164  1.0000
  C   C94       1.0  0.71773  0.26431  0.20019  1.0000
  C   C95       1.0  0.98307  0.37582  0.19818  1.0000
  C   C96       1.0  0.7566800000000001  0.40389999999999987  0.16938  1.0000
  C   C97       1.0  0.38067  0.80368  0.5617600000000001  1.0000
  C   C98       1.0  0.42947  0.82799  0.60257  1.0000
  C   C99       1.0  0.36923  0.8644899999999998  0.62729  1.0000
  C   C100      1.0  0.4195  0.8865299999999998  0.66517  1.0000
  C   C101      1.0  0.52956  0.8720299999999997  0.67783  1.0000
  C   C102      1.0  0.59083  0.83562  0.6532600000000001  1.0000
  C   C103      1.0  0.53906  0.8134799999999998  0.61574  1.0000
  C   C104      1.0  0.35846999999999996  0.92616  0.69228  1.0000
  C   C105      1.0  0.70751  0.8200599999999998  0.66652  1.0000
  C   C106      1.0  0.79525  0.8560699999999998  0.67227  1.0000
  C   C107      1.0  0.90491  0.8400499999999997  0.68487  1.0000
  C   C108      1.0  0.92602  0.7881499999999999  0.69247  1.0000
  C   C109      1.0  0.8404800000000001  0.7522899999999998  0.68615  1.0000
  C   C110      1.0  0.73281  0.7680999999999999  0.6727  1.0000
  C   C111      1.0  0.77326  0.91118  0.6615100000000003  1.0000
  C   C112      1.0  0.9972100000000002  0.8786399999999998  0.6888700000000001  1.0000
  C   C113      1.0  0.15874  0.07903999999999997  0.6968  1.0000
  C   C114      1.0  0.09781  0.12296  0.67541  1.0000
  C   C115      1.0  0.14826  0.1531  0.64214  1.0000
  C   C116      1.0  0.08617  0.19318  0.62296  1.0000
  C   C117      1.0  0.97506  0.20336999999999994  0.63718  1.0000
  C   C118      1.0  0.9241699999999999  0.17365999999999998  0.6706  1.0000
  C   C119      1.0  0.98675  0.13361999999999996  0.6895  1.0000
  C   C120      1.0  0.13269  0.22559999999999994  0.58636  1.0000
  C   C121      1.0  0.8073800000000001  0.18564999999999995  0.68605  1.0000
  C   C122      1.0  0.72046  0.14867  0.68669  1.0000
  C   C123      1.0  0.61087  0.16193999999999995  0.70157  1.0000
  C   C124      1.0  0.59  0.21150999999999995  0.71724  1.0000
  C   C125      1.0  0.67503  0.24824999999999994  0.71643  1.0000
  C   C126      1.0  0.78206  0.23556999999999995  0.70006  1.0000
  C   C127      1.0  0.51697  0.12391999999999997  0.6991  1.0000
  C   C128      1.0  0.74338  0.09580999999999998  0.66943  1.0000
  C   C129      1.0  0.8808  0.6964899999999998  0.56276  1.0000
  C   C130      1.0  0.93072  0.67221  0.60335  1.0000
  C   C131      1.0  0.87086  0.6356499999999998  0.62817  1.0000
  C   C132      1.0  0.9216000000000001  0.6136  0.66592  1.0000
  C   C133      1.0  0.03221  0.62777  0.67813  1.0000
  C   C134      1.0  0.09337  0.66399  0.65331  1.0000
  C   C135      1.0  0.04063  0.6866  0.61616  1.0000
  C   C136      1.0  0.86133  0.57391  0.69319  1.0000
  C   C137      1.0  0.21057999999999996  0.6792699999999999  0.66622  1.0000
  C   C138      1.0  0.29872  0.6433199999999998  0.67174  1.0000
  C   C139      1.0  0.40837  0.65938  0.6845  1.0000
  C   C140      1.0  0.42858  0.71133  0.6923800000000001  1.0000
  C   C141      1.0  0.34285  0.7471299999999997  0.6861400000000002  1.0000
  C   C142      1.0  0.23536  0.73123  0.6726  1.0000
  C   C143      1.0  0.27641  0.5881599999999999  0.66134  1.0000
  C   C144      1.0  0.50182  0.6211499999999998  0.68871  1.0000
  C   C145      1.0  0.65822  0.42122999999999994  0.6968  1.0000
  C   C146      1.0  0.59718  0.3772599999999999  0.67571  1.0000
  C   C147      1.0  0.64768  0.3473599999999999  0.64235  1.0000
  C   C148      1.0  0.5857  0.30736999999999987  0.62308  1.0000
  C   C149      1.0  0.47478999999999993  0.29692  0.63727  1.0000
  C   C150      1.0  0.42393  0.32641  0.67082  1.0000
  C   C151      1.0  0.48622  0.3664599999999999  0.68982  1.0000
  C   C152      1.0  0.63268  0.27547  0.58636  1.0000
  C   C153      1.0  0.30726  0.31422999999999995  0.6861400000000002  1.0000
  C   C154      1.0  0.22009  0.35104  0.68654  1.0000
  C   C155      1.0  0.11036  0.3376099999999999  0.70109  1.0000
  C   C156      1.0  0.08968  0.28808  0.71686  1.0000
  C   C157      1.0  0.17517000000000002  0.25153  0.71639  1.0000
  C   C158      1.0  0.28228  0.26431  0.70019  1.0000
  C   C159      1.0  0.01694  0.37582  0.69818  1.0000
  C   C160      1.0  0.24334  0.40389999999999987  0.66938  1.0000
  C   C161      1.0  0.61935  0.80368  0.06176  1.0000
  C   C162      1.0  0.57054  0.82799  0.10257  1.0000
  C   C163      1.0  0.63079  0.8644899999999998  0.12729  1.0000
  C   C164      1.0  0.58052  0.8865299999999998  0.16517  1.0000
  C   C165      1.0  0.47046  0.8720299999999997  0.17783  1.0000
  C   C166      1.0  0.40919  0.83562  0.15326  1.0000
  C   C167      1.0  0.46095  0.8134799999999998  0.11574  1.0000
  C   C168      1.0  0.64155  0.92616  0.19228  1.0000
  C   C169      1.0  0.29251  0.8200599999999998  0.16652  1.0000
  C   C170      1.0  0.20478  0.8560699999999998  0.17227  1.0000
  C   C171      1.0  0.09511  0.8400499999999997  0.18487  1.0000
  C   C172      1.0  0.074  0.7881499999999999  0.19247  1.0000
  C   C173      1.0  0.15953  0.7523  0.18615  1.0000
  C   C174      1.0  0.2672  0.7680999999999999  0.1727  1.0000
  C   C175      1.0  0.22675  0.91118  0.16151  1.0000
  C   C176      1.0  0.00282  0.8786399999999998  0.18887  1.0000
  C   C177      1.0  0.84128  0.07903999999999997  0.1968  1.0000
  C   C178      1.0  0.9022  0.12296  0.1754  1.0000
  C   C179      1.0  0.85175  0.1531  0.14214  1.0000
  C   C180      1.0  0.9138400000000001  0.19318  0.12296  1.0000
  C   C181      1.0  0.02495  0.20338  0.13718000000000005  1.0000
  C   C182      1.0  0.07584  0.17365999999999998  0.1706  1.0000
  C   C183      1.0  0.01327  0.13361999999999996  0.1895  1.0000
  C   C184      1.0  0.8673200000000001  0.22559999999999994  0.08636  1.0000
  C   C185      1.0  0.19263  0.18564999999999995  0.18605  1.0000
  C   C186      1.0  0.27955  0.14867  0.18669  1.0000
  C   C187      1.0  0.38914  0.16193999999999995  0.20157  1.0000
  C   C188      1.0  0.41001000000000004  0.21150999999999995  0.21724  1.0000
  C   C189      1.0  0.32498  0.24824999999999994  0.21643  1.0000
  C   C190      1.0  0.21795  0.23556999999999995  0.20006  1.0000
  C   C191      1.0  0.4830400000000001  0.12391999999999997  0.1991  1.0000
  C   C192      1.0  0.25663  0.09580999999999998  0.16943  1.0000
  C   C193      1.0  0.88081  0.30351  0.9372400000000001  1.0000
  C   C194      1.0  0.93073  0.32779  0.89665  1.0000
  C   C195      1.0  0.87086  0.3643499999999999  0.87183  1.0000
  C   C196      1.0  0.9216000000000001  0.3863999999999999  0.83408  1.0000
  C   C197      1.0  0.03222  0.3722399999999999  0.82187  1.0000
  C   C198      1.0  0.09337  0.33601  0.84669  1.0000
  C   C199      1.0  0.04063  0.31340999999999997  0.88384  1.0000
  C   C200      1.0  0.86133  0.42609999999999987  0.80681  1.0000
  C   C201      1.0  0.21057999999999996  0.32074  0.83378  1.0000
  C   C202      1.0  0.29872  0.35669  0.82826  1.0000
  C   C203      1.0  0.40837  0.34063  0.8155  1.0000
  C   C204      1.0  0.42859  0.28868  0.80762  1.0000
  C   C205      1.0  0.34285999999999994  0.25288  0.81386  1.0000
  C   C206      1.0  0.23536  0.26878  0.8274  1.0000
  C   C207      1.0  0.27642  0.41184999999999994  0.83865  1.0000
  C   C208      1.0  0.50183  0.37885  0.81129  1.0000
  C   C209      1.0  0.65824  0.57877  0.8032200000000002  1.0000
  C   C210      1.0  0.59717  0.6227499999999998  0.8243  1.0000
  C   C211      1.0  0.64767  0.65265  0.85766  1.0000
  C   C212      1.0  0.58569  0.69264  0.87692  1.0000
  C   C213      1.0  0.4747799999999999  0.70309  0.86273  1.0000
  C   C214      1.0  0.42393  0.6735999999999998  0.82918  1.0000
  C   C215      1.0  0.48622  0.63354  0.81019  1.0000
  C   C216      1.0  0.63268  0.7245399999999997  0.9136400000000001  1.0000
  C   C217      1.0  0.30725  0.6857799999999997  0.81386  1.0000
  C   C218      1.0  0.22008  0.6489599999999998  0.81347  1.0000
  C   C219      1.0  0.11035  0.6623899999999999  0.79891  1.0000
  C   C220      1.0  0.08968  0.7119299999999998  0.78314  1.0000
  C   C221      1.0  0.17517000000000002  0.74847  0.7836  1.0000
  C   C222      1.0  0.28228  0.7356999999999999  0.79981  1.0000
  C   C223      1.0  0.01694  0.62418  0.80182  1.0000
  C   C224      1.0  0.24334  0.5961  0.83062  1.0000
  C   C225      1.0  0.61934  0.19631999999999994  0.43824  1.0000
  C   C226      1.0  0.57054  0.17201999999999998  0.39743000000000006  1.0000
  C   C227      1.0  0.63078  0.13551  0.37271  1.0000
  C   C228      1.0  0.58051  0.11346999999999997  0.33483  1.0000
  C   C229      1.0  0.47046  0.12797  0.32217  1.0000
  C   C230      1.0  0.40918  0.16438  0.34674  1.0000
  C   C231      1.0  0.46095  0.18651999999999994  0.38426  1.0000
  C   C232      1.0  0.64154  0.07384  0.30772  1.0000
  C   C233      1.0  0.2925  0.17994999999999994  0.33348  1.0000
  C   C234      1.0  0.20476  0.14394  0.32773  1.0000
  C   C235      1.0  0.0951  0.15995999999999994  0.31513  1.0000
  C   C236      1.0  0.07399  0.21184999999999996  0.30753  1.0000
  C   C237      1.0  0.15953  0.24770999999999996  0.31385  1.0000
  C   C238      1.0  0.2672  0.2319  0.3273  1.0000
  C   C239      1.0  0.22675  0.08882  0.33849  1.0000
  C   C240      1.0  0.0028  0.12135999999999997  0.31113  1.0000
  C   C241      1.0  0.84127  0.9209599999999998  0.3032  1.0000
  C   C242      1.0  0.9022  0.8770399999999998  0.32459  1.0000
  C   C243      1.0  0.85175  0.8469  0.35786  1.0000
  C   C244      1.0  0.9138400000000001  0.8068199999999999  0.37704  1.0000
  C   C245      1.0  0.02495  0.7966299999999998  0.36282  1.0000
  C   C246      1.0  0.07584  0.8263399999999997  0.3294  1.0000
  C   C247      1.0  0.01327  0.8663799999999999  0.3105  1.0000
  C   C248      1.0  0.8673200000000001  0.7744  0.41364  1.0000
  C   C249      1.0  0.19263  0.81435  0.31395  1.0000
  C   C250      1.0  0.27955  0.8513299999999998  0.31331  1.0000
  C   C251      1.0  0.38914  0.8380599999999998  0.29843  1.0000
  C   C252      1.0  0.41001000000000004  0.7884899999999998  0.28276  1.0000
  C   C253      1.0  0.32498  0.7517499999999999  0.28357  1.0000
  C   C254      1.0  0.21795  0.7644399999999998  0.29994  1.0000
  C   C255      1.0  0.4830400000000001  0.8760799999999997  0.3009  1.0000
  C   C256      1.0  0.25664  0.90419  0.33057  1.0000
  O   O1        1.0  0.0697  0.26521999999999996  0.45465  1.0000
  O   O2        1.0  0.21081  0.32278  0.45456  1.0000
  O   O3        1.0  0.24731  0.42883  0.307  1.0000
  O   O4        1.0  0.07971  0.45709  0.28404  1.0000
  O   O5        1.0  0.70846  0.4260599999999999  0.37983  1.0000
  O   O6        1.0  0.76053  0.44213999999999987  0.30901  1.0000
  O   O7        1.0  0.39585  0.3582499999999999  0.30480000000000007  1.0000
  O   O8        1.0  0.51513  0.42531  0.31373000000000006  1.0000
  O   O9        1.0  0.40019000000000005  0.5447599999999999  0.28363  1.0000
  O   O10       1.0  0.2335  0.57573  0.30491  1.0000
  O   O11       1.0  0.26787  0.7146199999999998  0.42981  1.0000
  O   O12       1.0  0.42826000000000003  0.7604299999999999  0.42946  1.0000
  O   O13       1.0  0.08521  0.6438199999999997  0.29337  1.0000
  O   O14       1.0  0.9657000000000001  0.5789  0.31142  1.0000
  O   O15       1.0  0.7658700000000002  0.5883999999999999  0.37324  1.0000
  O   O16       1.0  0.72359  0.5609699999999999  0.30429  1.0000
  O   O17       1.0  0.43398  0.23278  0.9568000000000001  1.0000
  O   O18       1.0  0.28568  0.17934  0.95451  1.0000
  O   O19       1.0  0.24998000000000004  0.07095999999999998  0.80892  1.0000
  O   O20       1.0  0.41688  0.04320999999999999  0.78422  1.0000
  O   O21       1.0  0.78823  0.07530999999999999  0.87981  1.0000
  O   O22       1.0  0.73633  0.058029999999999984  0.80916  1.0000
  O   O23       1.0  0.10016  0.14134  0.80486  1.0000
  O   O24       1.0  0.9779800000000001  0.07505999999999999  0.81365  1.0000
  O   O25       1.0  0.09953  0.9548699999999998  0.78376  1.0000
  O   O26       1.0  0.26713  0.92406  0.80444  1.0000
  O   O27       1.0  0.23335  0.7828799999999999  0.9294100000000001  1.0000
  O   O28       1.0  0.06956  0.7394699999999997  0.92986  1.0000
  O   O29       1.0  0.41572  0.85622  0.79127  1.0000
  O   O30       1.0  0.53228  0.9213199999999998  0.81121  1.0000
  O   O31       1.0  0.73155  0.91197  0.87306  1.0000
  O   O32       1.0  0.77764  0.9392199999999998  0.80438  1.0000
  O   O33       1.0  0.06969  0.7347799999999999  0.04535  1.0000
  O   O34       1.0  0.2108  0.6772299999999998  0.04544  1.0000
  O   O35       1.0  0.2473  0.5711699999999998  0.193  1.0000
  O   O36       1.0  0.0797  0.5429099999999999  0.21596  1.0000
  O   O37       1.0  0.7084400000000001  0.57394  0.12018  1.0000
  O   O38       1.0  0.76053  0.55787  0.191  1.0000
  O   O39       1.0  0.39585  0.6417499999999998  0.1952  1.0000
  O   O40       1.0  0.51513  0.5746899999999999  0.18627  1.0000
  O   O41       1.0  0.40016  0.45522  0.21637  1.0000
  O   O42       1.0  0.23348  0.42427999999999993  0.19506  1.0000
  O   O43       1.0  0.26787  0.28538  0.07019  1.0000
  O   O44       1.0  0.42826000000000003  0.23957  0.07054  1.0000
  O   O45       1.0  0.08521  0.35619  0.20663  1.0000
  O   O46       1.0  0.9657000000000001  0.42111  0.18858000000000003  1.0000
  O   O47       1.0  0.7658700000000002  0.41159999999999997  0.12675  1.0000
  O   O48       1.0  0.7236000000000001  0.43903  0.19571  1.0000
  O   O49       1.0  0.43398  0.7672199999999998  0.54321  1.0000
  O   O50       1.0  0.28568  0.82067  0.54549  1.0000
  O   O51       1.0  0.24999  0.9290499999999998  0.69108  1.0000
  O   O52       1.0  0.41689  0.95679  0.71578  1.0000
  O   O53       1.0  0.78824  0.9246999999999997  0.62019  1.0000
  O   O54       1.0  0.73633  0.9419699999999998  0.69084  1.0000
  O   O55       1.0  0.10018  0.8586599999999999  0.6951400000000002  1.0000
  O   O56       1.0  0.9779800000000001  0.9249399999999998  0.68635  1.0000
  O   O57       1.0  0.09955000000000001  0.045129999999999997  0.71624  1.0000
  O   O58       1.0  0.26714  0.07595  0.69556  1.0000
  O   O59       1.0  0.23335  0.21711999999999998  0.57059  1.0000
  O   O60       1.0  0.06956  0.26053  0.57014  1.0000
  O   O61       1.0  0.41572  0.14378  0.70873  1.0000
  O   O62       1.0  0.53228  0.07867999999999999  0.68879  1.0000
  O   O63       1.0  0.73155  0.08803  0.62694  1.0000
  O   O64       1.0  0.77763  0.06077999999999999  0.69562  1.0000
  O   O65       1.0  0.93031  0.7347799999999999  0.54535  1.0000
  O   O66       1.0  0.78921  0.67722  0.54544  1.0000
  O   O67       1.0  0.7526999999999999  0.5711699999999998  0.693  1.0000
  O   O68       1.0  0.92031  0.5429099999999999  0.71596  1.0000
  O   O69       1.0  0.29155  0.57394  0.62017  1.0000
  O   O70       1.0  0.23948000000000003  0.55787  0.69099  1.0000
  O   O71       1.0  0.60416  0.6417499999999998  0.6952  1.0000
  O   O72       1.0  0.48489  0.5746899999999999  0.68627  1.0000
  O   O73       1.0  0.59983  0.45524  0.7163700000000001  1.0000
  O   O74       1.0  0.7665200000000001  0.42427999999999993  0.69509  1.0000
  O   O75       1.0  0.73214  0.28539  0.57019  1.0000
  O   O76       1.0  0.57175  0.23957  0.57054  1.0000
  O   O77       1.0  0.91481  0.35618  0.70663  1.0000
  O   O78       1.0  0.03431  0.42111  0.68858  1.0000
  O   O79       1.0  0.23414  0.41159999999999997  0.62676  1.0000
  O   O80       1.0  0.27642  0.43903  0.69571  1.0000
  O   O81       1.0  0.56603  0.7672199999999998  0.0432  1.0000
  O   O82       1.0  0.71433  0.82067  0.04549  1.0000
  O   O83       1.0  0.75003  0.9290399999999999  0.19108  1.0000
  O   O84       1.0  0.58313  0.95679  0.21578  1.0000
  O   O85       1.0  0.21178  0.9246999999999997  0.12019  1.0000
  O   O86       1.0  0.26368  0.9419799999999998  0.19084  1.0000
  O   O87       1.0  0.89985  0.8586599999999999  0.19514  1.0000
  O   O88       1.0  0.02203  0.9249399999999998  0.18635  1.0000
  O   O89       1.0  0.90048  0.045129999999999997  0.21624  1.0000
  O   O90       1.0  0.73288  0.07594  0.19556000000000004  1.0000
  O   O91       1.0  0.76666  0.21711999999999998  0.07059  1.0000
  O   O92       1.0  0.93045  0.26053  0.07014  1.0000
  O   O93       1.0  0.5843  0.14378  0.20873  1.0000
  O   O94       1.0  0.46773  0.07867999999999999  0.18879  1.0000
  O   O95       1.0  0.26846  0.08803  0.12695  1.0000
  O   O96       1.0  0.22238  0.06077999999999999  0.19562  1.0000
  O   O97       1.0  0.9303200000000001  0.26521999999999996  0.95465  1.0000
  O   O98       1.0  0.78921  0.32277  0.95456  1.0000
  O   O99       1.0  0.75271  0.42883  0.807  1.0000
  O   O100      1.0  0.92031  0.45709  0.78404  1.0000
  O   O101      1.0  0.29157  0.4260699999999999  0.87982  1.0000
  O   O102      1.0  0.23948000000000003  0.44213999999999987  0.809  1.0000
  O   O103      1.0  0.60416  0.3582499999999999  0.8048  1.0000
  O   O104      1.0  0.48489  0.42531  0.81373  1.0000
  O   O105      1.0  0.59985  0.5447799999999999  0.78363  1.0000
  O   O106      1.0  0.76653  0.57572  0.80494  1.0000
  O   O107      1.0  0.73214  0.7146199999999998  0.92981  1.0000
  O   O108      1.0  0.57175  0.7604399999999998  0.92946  1.0000
  O   O109      1.0  0.9148000000000001  0.64381  0.79337  1.0000
  O   O110      1.0  0.03431  0.5789  0.81142  1.0000
  O   O111      1.0  0.23414  0.5883999999999999  0.87325  1.0000
  O   O112      1.0  0.27641  0.5609699999999999  0.80429  1.0000
  O   O113      1.0  0.56603  0.23278  0.45679  1.0000
  O   O114      1.0  0.71433  0.17934  0.45451  1.0000
  O   O115      1.0  0.75002  0.07095999999999998  0.30892  1.0000
  O   O116      1.0  0.58312  0.04320999999999999  0.28422  1.0000
  O   O117      1.0  0.21178  0.07530999999999999  0.37981  1.0000
  O   O118      1.0  0.26369  0.058029999999999984  0.30916000000000005  1.0000
  O   O119      1.0  0.89983  0.14134  0.30486  1.0000
  O   O120      1.0  0.02203  0.07505999999999999  0.31365  1.0000
  O   O121      1.0  0.9004600000000001  0.9548799999999998  0.28376  1.0000
  O   O122      1.0  0.73287  0.92406  0.30444  1.0000
  O   O123      1.0  0.76666  0.7828799999999999  0.42941  1.0000
  O   O124      1.0  0.93045  0.7394699999999997  0.42986  1.0000
  O   O125      1.0  0.58429  0.85622  0.29127  1.0000
  O   O126      1.0  0.46773  0.9213199999999998  0.31121  1.0000
  O   O127      1.0  0.26847  0.9119799999999998  0.37306  1.0000
  O   O128      1.0  0.22238  0.9392199999999998  0.30438  1.0000
