data_image0
_chemical_formula_structural       Ag8H96C224S48N32
_chemical_formula_sum              "Ag8 H96 C224 S48 N32"
_cell_length_a       12.89507
_cell_length_b       22.01646
_cell_length_c       21.96372
_cell_angle_alpha    90.0
_cell_angle_beta     90.0
_cell_angle_gamma    89.99318

_space_group_name_H-M_alt    "P 1"
_space_group_IT_number       1

loop_
  _space_group_symop_operation_xyz
  'x, y, z'

loop_
  _atom_site_type_symbol
  _atom_site_label
  _atom_site_symmetry_multiplicity
  _atom_site_fract_x
  _atom_site_fract_y
  _atom_site_fract_z
  _atom_site_occupancy
  Ag  Ag1       1.0  0.12652  0.24793000000000007  0.47083  1.0000
  Ag  Ag2       1.0  0.87347  0.2521  0.97084  1.0000
  Ag  Ag3       1.0  0.62651  0.7521  0.02921  1.0000
  Ag  Ag4       1.0  0.37348  0.74787  0.5292  1.0000
  Ag  Ag5       1.0  0.87347  0.7520700000000002  0.52916  1.0000
  Ag  Ag6       1.0  0.12652  0.7479000000000001  0.029149999999999992  1.0000
  Ag  Ag7       1.0  0.37348  0.24790000000000006  0.97078  1.0000
  Ag  Ag8       1.0  0.62651  0.25213  0.4708  1.0000
  H   H1        1.0  0.6801099999999999  0.10232  0.27396  1.0000
  H   H2        1.0  0.85561  0.10341000000000002  0.3343999999999999  1.0000
  H   H3        1.0  0.58868  0.31693  0.25206  1.0000
  H   H4        1.0  0.41158000000000006  0.31966000000000006  0.19462  1.0000
  H   H5        1.0  0.13217  0.11253000000000002  0.10828  1.0000
  H   H6        1.0  0.30468  0.10721000000000003  0.17023999999999997  1.0000
  H   H7        1.0  0.36415  0.3856700000000001  0.62019  1.0000
  H   H8        1.0  0.53795  0.44503000000000004  0.63473  1.0000
  H   H9        1.0  0.8529  0.5229300000000001  0.43790999999999997  1.0000
  H   H10       1.0  0.67603  0.4663400000000001  0.42756  1.0000
  H   H11       1.0  0.92297  0.53942  0.65546  1.0000
  H   H12       1.0  0.09368  0.6038300000000001  0.66249  1.0000
  H   H13       1.0  0.31989  0.39768  0.7739599999999999  1.0000
  H   H14       1.0  0.14439  0.39659000000000005  0.8343899999999999  1.0000
  H   H15       1.0  0.41132  0.18307000000000004  0.75206  1.0000
  H   H16       1.0  0.58842  0.18034000000000003  0.6946099999999998  1.0000
  H   H17       1.0  0.86783  0.38747  0.60828  1.0000
  H   H18       1.0  0.69532  0.39279  0.67024  1.0000
  H   H19       1.0  0.63585  0.11433  0.12018999999999998  1.0000
  H   H20       1.0  0.46204  0.054970000000000005  0.13474  1.0000
  H   H21       1.0  0.14709  0.97708  0.9379099999999998  1.0000
  H   H22       1.0  0.32397  0.03366000000000001  0.92756  1.0000
  H   H23       1.0  0.07701  0.9605800000000001  0.15546  1.0000
  H   H24       1.0  0.90631  0.89617  0.16249  1.0000
  H   H25       1.0  0.18008  0.8977000000000003  0.22600999999999996  1.0000
  H   H26       1.0  0.35562  0.89662  0.16563  1.0000
  H   H27       1.0  0.08871  0.68308  0.24790999999999996  1.0000
  H   H28       1.0  0.91162  0.68034  0.30537999999999993  1.0000
  H   H29       1.0  0.63219  0.8874700000000001  0.39169  1.0000
  H   H30       1.0  0.80469  0.89276  0.32972  1.0000
  H   H31       1.0  0.86401  0.61437  0.87982  1.0000
  H   H32       1.0  0.03787  0.5550200000000001  0.86527  1.0000
  H   H33       1.0  0.35283  0.47713  0.062099999999999995  1.0000
  H   H34       1.0  0.17595  0.53371  0.07245  1.0000
  H   H35       1.0  0.423  0.46061000000000013  0.84457  1.0000
  H   H36       1.0  0.59358  0.39611  0.8375  1.0000
  H   H37       1.0  0.81991  0.6023  0.72601  1.0000
  H   H38       1.0  0.64437  0.60339  0.6656299999999999  1.0000
  H   H39       1.0  0.91128  0.81692  0.74791  1.0000
  H   H40       1.0  0.08837  0.81966  0.80538  1.0000
  H   H41       1.0  0.3678  0.6125300000000001  0.8916899999999999  1.0000
  H   H42       1.0  0.1953  0.60724  0.8297199999999998  1.0000
  H   H43       1.0  0.13598  0.8856300000000003  0.37982  1.0000
  H   H44       1.0  0.9621299999999999  0.9449800000000002  0.36527  1.0000
  H   H45       1.0  0.64716  0.02287000000000001  0.5621  1.0000
  H   H46       1.0  0.82404  0.9662900000000002  0.57245  1.0000
  H   H47       1.0  0.57699  0.03939  0.34456999999999993  1.0000
  H   H48       1.0  0.40642  0.10389  0.33751  1.0000
  H   H49       1.0  0.31989  0.8976800000000003  0.7260399999999999  1.0000
  H   H50       1.0  0.14438  0.8965900000000001  0.6656  1.0000
  H   H51       1.0  0.41131  0.6830700000000001  0.74794  1.0000
  H   H52       1.0  0.58842  0.68034  0.80538  1.0000
  H   H53       1.0  0.86782  0.8874700000000001  0.89172  1.0000
  H   H54       1.0  0.69532  0.8927900000000001  0.8297499999999999  1.0000
  H   H55       1.0  0.63584  0.61433  0.37981  1.0000
  H   H56       1.0  0.46204  0.5549700000000001  0.3652599999999999  1.0000
  H   H57       1.0  0.14709  0.47708  0.56209  1.0000
  H   H58       1.0  0.32396  0.53366  0.57243  1.0000
  H   H59       1.0  0.07702  0.46058000000000004  0.34454  1.0000
  H   H60       1.0  0.90632  0.39617  0.33751  1.0000
  H   H61       1.0  0.6801  0.60232  0.22604  1.0000
  H   H62       1.0  0.85561  0.60341  0.1656  1.0000
  H   H63       1.0  0.58868  0.81693  0.24794  1.0000
  H   H64       1.0  0.41157  0.81966  0.30537999999999993  1.0000
  H   H65       1.0  0.13217  0.6125300000000001  0.39172  1.0000
  H   H66       1.0  0.30468  0.6072100000000001  0.32974999999999993  1.0000
  H   H67       1.0  0.36415  0.8856700000000001  0.87981  1.0000
  H   H68       1.0  0.53795  0.94503  0.86526  1.0000
  H   H69       1.0  0.8529  0.022920000000000003  0.06208999999999999  1.0000
  H   H70       1.0  0.67603  0.9663400000000001  0.07244  1.0000
  H   H71       1.0  0.92298  0.039420000000000004  0.84454  1.0000
  H   H72       1.0  0.09368  0.10383  0.8375099999999999  1.0000
  H   H73       1.0  0.81991  0.10230000000000002  0.77398  1.0000
  H   H74       1.0  0.64437  0.10339000000000001  0.83437  1.0000
  H   H75       1.0  0.91128  0.31692  0.75209  1.0000
  H   H76       1.0  0.08838  0.31966000000000006  0.69462  1.0000
  H   H77       1.0  0.3678100000000001  0.11253000000000002  0.60831  1.0000
  H   H78       1.0  0.19531000000000004  0.10724000000000002  0.67028  1.0000
  H   H79       1.0  0.13598  0.38563  0.12017999999999998  1.0000
  H   H80       1.0  0.9621299999999999  0.44498000000000004  0.13473  1.0000
  H   H81       1.0  0.64716  0.52287  0.9379  1.0000
  H   H82       1.0  0.82404  0.46629  0.92755  1.0000
  H   H83       1.0  0.57699  0.53939  0.15543  1.0000
  H   H84       1.0  0.40641  0.60389  0.16249  1.0000
  H   H85       1.0  0.18008  0.3977  0.27398  1.0000
  H   H86       1.0  0.35562  0.39662  0.33436999999999995  1.0000
  H   H87       1.0  0.08871  0.18308  0.25209  1.0000
  H   H88       1.0  0.91162  0.18034000000000003  0.19462  1.0000
  H   H89       1.0  0.63219  0.38747  0.10831  1.0000
  H   H90       1.0  0.80469  0.39276000000000005  0.17028  1.0000
  H   H91       1.0  0.86401  0.11437  0.62018  1.0000
  H   H92       1.0  0.03787  0.05502  0.63472  1.0000
  H   H93       1.0  0.35283  0.9771300000000002  0.4379  1.0000
  H   H94       1.0  0.17596  0.033710000000000004  0.42754999999999993  1.0000
  H   H95       1.0  0.423  0.96061  0.65542  1.0000
  H   H96       1.0  0.59358  0.8961100000000002  0.66249  1.0000
  C   C1        1.0  0.9308499999999998  0.21963  0.37131999999999993  1.0000
  C   C2        1.0  0.84126  0.20221000000000006  0.34067  1.0000
  C   C3        1.0  0.67237  0.20096000000000003  0.2841099999999999  1.0000
  C   C4        1.0  0.71638  0.14305000000000004  0.29194  1.0000
  C   C5        1.0  0.81052  0.14364  0.32354999999999995  1.0000
  C   C6        1.0  0.57942  0.21812000000000006  0.25364999999999993  1.0000
  C   C7        1.0  0.54447  0.2766700000000001  0.24004  1.0000
  C   C8        1.0  0.45058  0.27807  0.2083  1.0000
  C   C9        1.0  0.40945  0.22063000000000005  0.19595  1.0000
  C   C10       1.0  0.31642000000000003  0.2061  0.16427  1.0000
  C   C11       1.0  0.14997  0.21136  0.10534  1.0000
  C   C12       1.0  0.17802  0.15194  0.12090999999999999  1.0000
  C   C13       1.0  0.27056  0.14918  0.15386  1.0000
  C   C14       1.0  0.060910000000000006  0.22995  0.07486  1.0000
  C   C15       1.0  0.31202  0.35097  0.4992999999999999  1.0000
  C   C16       1.0  0.39809  0.38096  0.5228999999999999  1.0000
  C   C17       1.0  0.4171  0.39691  0.5834799999999999  1.0000
  C   C18       1.0  0.51046  0.42835  0.5910899999999999  1.0000
  C   C19       1.0  0.5653  0.43737  0.53661  1.0000
  C   C20       1.0  0.66061  0.46851000000000004  0.52632  1.0000
  C   C21       1.0  0.83049  0.52515  0.5363  1.0000
  C   C22       1.0  0.80302  0.51183  0.47621  1.0000
  C   C23       1.0  0.70916  0.48055  0.47073999999999994  1.0000
  C   C24       1.0  0.92106  0.5555900000000001  0.55739  1.0000
  C   C25       1.0  0.96051  0.5607900000000001  0.61677  1.0000
  C   C26       1.0  0.05227  0.5944300000000001  0.62047  1.0000
  C   C27       1.0  0.08575  0.61564  0.5636499999999999  1.0000
  C   C28       1.0  0.17603  0.6476100000000001  0.55051  1.0000
  C   C29       1.0  0.06915  0.28037  0.87132  1.0000
  C   C30       1.0  0.15874000000000002  0.29779  0.8406699999999999  1.0000
  C   C31       1.0  0.32763  0.29904000000000003  0.7840999999999999  1.0000
  C   C32       1.0  0.28361  0.35695000000000005  0.79193  1.0000
  C   C33       1.0  0.18948  0.35636000000000007  0.8235499999999999  1.0000
  C   C34       1.0  0.42057  0.28188  0.75365  1.0000
  C   C35       1.0  0.45552000000000004  0.22333  0.7400399999999999  1.0000
  C   C36       1.0  0.54941  0.22193000000000004  0.7083  1.0000
  C   C37       1.0  0.59055  0.27937  0.69595  1.0000
  C   C38       1.0  0.68358  0.29390000000000005  0.66427  1.0000
  C   C39       1.0  0.85003  0.28864000000000006  0.60533  1.0000
  C   C40       1.0  0.82198  0.34806  0.62091  1.0000
  C   C41       1.0  0.72944  0.35082  0.6538599999999999  1.0000
  C   C42       1.0  0.9390900000000001  0.27005  0.57485  1.0000
  C   C43       1.0  0.68798  0.14903  0.9992999999999999  1.0000
  C   C44       1.0  0.60191  0.11904000000000002  0.0229  1.0000
  C   C45       1.0  0.5829  0.10309  0.08347999999999998  1.0000
  C   C46       1.0  0.48954  0.07165  0.09109  1.0000
  C   C47       1.0  0.4347  0.06263  0.03661  1.0000
  C   C48       1.0  0.33939  0.03149  0.02632  1.0000
  C   C49       1.0  0.1695  0.9748600000000001  0.03631  1.0000
  C   C50       1.0  0.19697  0.9881700000000002  0.97621  1.0000
  C   C51       1.0  0.29084  0.019450000000000002  0.97074  1.0000
  C   C52       1.0  0.07893000000000001  0.94441  0.05738999999999999  1.0000
  C   C53       1.0  0.03948  0.93921  0.11676999999999998  1.0000
  C   C54       1.0  0.94772  0.9055700000000001  0.12046999999999998  1.0000
  C   C55       1.0  0.91424  0.88436  0.06365  1.0000
  C   C56       1.0  0.82396  0.85239  0.05052  1.0000
  C   C57       1.0  0.4308199999999999  0.78035  0.12867  1.0000
  C   C58       1.0  0.34127  0.7978100000000001  0.15934  1.0000
  C   C59       1.0  0.17238  0.79906  0.21589  1.0000
  C   C60       1.0  0.21639  0.8569700000000001  0.20806999999999998  1.0000
  C   C61       1.0  0.31053  0.8563900000000002  0.17646  1.0000
  C   C62       1.0  0.07941  0.7819  0.24633  1.0000
  C   C63       1.0  0.0445  0.72334  0.25994  1.0000
  C   C64       1.0  0.95062  0.7219300000000001  0.29169  1.0000
  C   C65       1.0  0.90945  0.7793600000000002  0.30403  1.0000
  C   C66       1.0  0.8164100000000001  0.79388  0.3357  1.0000
  C   C67       1.0  0.64999  0.78864  0.39466999999999997  1.0000
  C   C68       1.0  0.67804  0.84805  0.37908  1.0000
  C   C69       1.0  0.77056  0.8508100000000002  0.34611  1.0000
  C   C70       1.0  0.56095  0.77004  0.42514  1.0000
  C   C71       1.0  0.81188  0.6490100000000001  0.0006899999999999999  1.0000
  C   C72       1.0  0.89796  0.6190400000000001  0.9770999999999999  1.0000
  C   C73       1.0  0.9169800000000001  0.6031200000000001  0.9165199999999999  1.0000
  C   C74       1.0  0.01038  0.57171  0.9089099999999999  1.0000
  C   C75       1.0  0.06522  0.56269  0.9633899999999997  1.0000
  C   C76       1.0  0.16054  0.5315500000000001  0.9736899999999998  1.0000
  C   C77       1.0  0.33046  0.47490000000000004  0.9637099999999998  1.0000
  C   C78       1.0  0.30296  0.4882200000000001  0.02379  1.0000
  C   C79       1.0  0.20908  0.51949  0.029269999999999997  1.0000
  C   C80       1.0  0.42104  0.44442  0.94264  1.0000
  C   C81       1.0  0.46048  0.43921  0.88326  1.0000
  C   C82       1.0  0.55221  0.40552000000000005  0.8795399999999998  1.0000
  C   C83       1.0  0.58572  0.3843000000000001  0.9363499999999999  1.0000
  C   C84       1.0  0.6761700000000002  0.35246000000000005  0.94946  1.0000
  C   C85       1.0  0.56917  0.7196500000000001  0.62866  1.0000
  C   C86       1.0  0.65872  0.7021900000000001  0.65934  1.0000
  C   C87       1.0  0.8276100000000001  0.70094  0.71589  1.0000
  C   C88       1.0  0.7836100000000001  0.6430400000000001  0.70806  1.0000
  C   C89       1.0  0.68946  0.64362  0.67646  1.0000
  C   C90       1.0  0.9205799999999998  0.7181000000000001  0.74633  1.0000
  C   C91       1.0  0.95549  0.7766600000000002  0.7599399999999998  1.0000
  C   C92       1.0  0.04937  0.7780800000000002  0.79169  1.0000
  C   C93       1.0  0.09054  0.7206400000000001  0.8040299999999999  1.0000
  C   C94       1.0  0.18358  0.70612  0.8357  1.0000
  C   C95       1.0  0.35001  0.7113600000000001  0.89467  1.0000
  C   C96       1.0  0.32195  0.65195  0.87908  1.0000
  C   C97       1.0  0.22943  0.64919  0.84611  1.0000
  C   C98       1.0  0.43904  0.7299600000000003  0.9251399999999999  1.0000
  C   C99       1.0  0.18812  0.85099  0.50069  1.0000
  C   C100      1.0  0.10203000000000001  0.8809600000000001  0.4771099999999999  1.0000
  C   C101      1.0  0.08301  0.89688  0.41652  1.0000
  C   C102      1.0  0.98962  0.9282900000000002  0.40891  1.0000
  C   C103      1.0  0.93477  0.93731  0.4634  1.0000
  C   C104      1.0  0.83945  0.96845  0.47369  1.0000
  C   C105      1.0  0.66953  0.025110000000000007  0.46371  1.0000
  C   C106      1.0  0.6970399999999999  0.011780000000000002  0.52379  1.0000
  C   C107      1.0  0.7909100000000001  0.98051  0.5292699999999999  1.0000
  C   C108      1.0  0.57895  0.05558  0.44264  1.0000
  C   C109      1.0  0.53951  0.060800000000000014  0.38326  1.0000
  C   C110      1.0  0.44778  0.09448  0.37955  1.0000
  C   C111      1.0  0.41428  0.1157  0.43635999999999997  1.0000
  C   C112      1.0  0.32382  0.14754  0.44946  1.0000
  C   C113      1.0  0.06915  0.78037  0.62867  1.0000
  C   C114      1.0  0.15874000000000002  0.7977900000000001  0.6593299999999999  1.0000
  C   C115      1.0  0.32763  0.79904  0.71589  1.0000
  C   C116      1.0  0.28361  0.8569500000000001  0.70806  1.0000
  C   C117      1.0  0.18947  0.8563600000000001  0.67644  1.0000
  C   C118      1.0  0.42057  0.7818800000000002  0.74635  1.0000
  C   C119      1.0  0.45552000000000004  0.7233300000000001  0.75996  1.0000
  C   C120      1.0  0.54941  0.7219300000000001  0.7916999999999997  1.0000
  C   C121      1.0  0.59055  0.7793700000000001  0.80404  1.0000
  C   C122      1.0  0.68358  0.7939  0.8357199999999999  1.0000
  C   C123      1.0  0.85003  0.78864  0.8946599999999999  1.0000
  C   C124      1.0  0.82198  0.8480700000000001  0.87908  1.0000
  C   C125      1.0  0.72944  0.8508300000000002  0.84613  1.0000
  C   C126      1.0  0.9390900000000001  0.7700500000000002  0.9251399999999999  1.0000
  C   C127      1.0  0.68797  0.6490300000000001  0.5007  1.0000
  C   C128      1.0  0.60191  0.6190400000000001  0.47709999999999997  1.0000
  C   C129      1.0  0.58289  0.60309  0.41652  1.0000
  C   C130      1.0  0.48954  0.5716500000000001  0.4089  1.0000
  C   C131      1.0  0.4347  0.56263  0.46339  1.0000
  C   C132      1.0  0.33939  0.53149  0.47368  1.0000
  C   C133      1.0  0.1695  0.4748600000000001  0.4636899999999999  1.0000
  C   C134      1.0  0.19697  0.4881700000000001  0.52378  1.0000
  C   C135      1.0  0.29084  0.51945  0.52925  1.0000
  C   C136      1.0  0.07893000000000001  0.44441000000000014  0.44261  1.0000
  C   C137      1.0  0.03949  0.43921  0.38322999999999996  1.0000
  C   C138      1.0  0.94772  0.40557  0.37953  1.0000
  C   C139      1.0  0.91425  0.3843600000000001  0.43634  1.0000
  C   C140      1.0  0.82397  0.35239000000000004  0.44947999999999994  1.0000
  C   C141      1.0  0.93084  0.7196300000000002  0.12868  1.0000
  C   C142      1.0  0.84125  0.70221  0.15933  1.0000
  C   C143      1.0  0.67237  0.7009600000000001  0.21589  1.0000
  C   C144      1.0  0.71638  0.6430500000000001  0.20806  1.0000
  C   C145      1.0  0.81052  0.6436400000000001  0.17644  1.0000
  C   C146      1.0  0.57942  0.71812  0.24635  1.0000
  C   C147      1.0  0.54447  0.77667  0.25996  1.0000
  C   C148      1.0  0.45058  0.7780700000000002  0.2917  1.0000
  C   C149      1.0  0.40945  0.72063  0.30404  1.0000
  C   C150      1.0  0.31641  0.7061  0.33573  1.0000
  C   C151      1.0  0.14996  0.7113600000000001  0.39466  1.0000
  C   C152      1.0  0.17801  0.65194  0.37908  1.0000
  C   C153      1.0  0.27055  0.64918  0.34613  1.0000
  C   C154      1.0  0.060910000000000006  0.72995  0.42514  1.0000
  C   C155      1.0  0.31202  0.85097  0.0007  1.0000
  C   C156      1.0  0.39808  0.8809600000000001  0.9770999999999999  1.0000
  C   C157      1.0  0.4171  0.8969100000000001  0.9165199999999999  1.0000
  C   C158      1.0  0.51045  0.92835  0.9089  1.0000
  C   C159      1.0  0.56529  0.93737  0.9633899999999997  1.0000
  C   C160      1.0  0.6606  0.9685100000000002  0.9736699999999999  1.0000
  C   C161      1.0  0.8305000000000001  0.025150000000000006  0.9636899999999999  1.0000
  C   C162      1.0  0.80302  0.011830000000000002  0.023779999999999996  1.0000
  C   C163      1.0  0.70916  0.98055  0.02925  1.0000
  C   C164      1.0  0.92106  0.05560000000000001  0.94261  1.0000
  C   C165      1.0  0.96051  0.06079000000000001  0.88323  1.0000
  C   C166      1.0  0.05227999999999999  0.09443  0.87953  1.0000
  C   C167      1.0  0.08575  0.11564000000000003  0.93634  1.0000
  C   C168      1.0  0.17603  0.14761  0.9494799999999999  1.0000
  C   C169      1.0  0.56917  0.21965000000000004  0.87133  1.0000
  C   C170      1.0  0.65872  0.20219  0.84066  1.0000
  C   C171      1.0  0.82762  0.20094000000000006  0.78411  1.0000
  C   C172      1.0  0.7836100000000001  0.14304  0.79193  1.0000
  C   C173      1.0  0.68946  0.14362  0.82354  1.0000
  C   C174      1.0  0.9205799999999998  0.2181  0.75367  1.0000
  C   C175      1.0  0.9555  0.27666  0.74006  1.0000
  C   C176      1.0  0.04938  0.27808000000000005  0.70831  1.0000
  C   C177      1.0  0.09054  0.22064  0.69597  1.0000
  C   C178      1.0  0.18358  0.20612  0.6643  1.0000
  C   C179      1.0  0.35001  0.21136  0.60532  1.0000
  C   C180      1.0  0.3219600000000001  0.15195000000000003  0.62092  1.0000
  C   C181      1.0  0.22943  0.14919  0.65388  1.0000
  C   C182      1.0  0.43904  0.22996  0.57486  1.0000
  C   C183      1.0  0.18812  0.3509900000000001  0.9993099999999999  1.0000
  C   C184      1.0  0.10203000000000001  0.38096  0.022889999999999997  1.0000
  C   C185      1.0  0.08301  0.39688  0.08347999999999998  1.0000
  C   C186      1.0  0.98962  0.42829000000000006  0.09109  1.0000
  C   C187      1.0  0.93477  0.43731  0.0366  1.0000
  C   C188      1.0  0.83946  0.46845000000000003  0.026309999999999997  1.0000
  C   C189      1.0  0.66953  0.5251  0.03629  1.0000
  C   C190      1.0  0.69703  0.51178  0.9762  1.0000
  C   C191      1.0  0.7909100000000001  0.48051000000000005  0.97073  1.0000
  C   C192      1.0  0.57895  0.55558  0.05736  1.0000
  C   C193      1.0  0.53951  0.5608  0.11673999999999997  1.0000
  C   C194      1.0  0.44778  0.59448  0.12045  1.0000
  C   C195      1.0  0.41428  0.6157  0.06364  1.0000
  C   C196      1.0  0.32382  0.6475400000000001  0.05054  1.0000
  C   C197      1.0  0.43083  0.28035  0.37133  1.0000
  C   C198      1.0  0.34127  0.2978100000000001  0.34066  1.0000
  C   C199      1.0  0.17238  0.29906  0.2841099999999999  1.0000
  C   C200      1.0  0.21639  0.35697  0.29193  1.0000
  C   C201      1.0  0.31054  0.35639000000000004  0.32354  1.0000
  C   C202      1.0  0.07942  0.2819  0.25367  1.0000
  C   C203      1.0  0.0445  0.22334  0.24005999999999994  1.0000
  C   C204      1.0  0.95062  0.22193000000000004  0.20830999999999997  1.0000
  C   C205      1.0  0.90946  0.27936  0.19597  1.0000
  C   C206      1.0  0.81642  0.29388  0.1643  1.0000
  C   C207      1.0  0.64999  0.28864000000000006  0.10532999999999997  1.0000
  C   C208      1.0  0.67804  0.34805  0.12091999999999999  1.0000
  C   C209      1.0  0.77056  0.35081000000000007  0.15388  1.0000
  C   C210      1.0  0.56095  0.27004000000000006  0.07486  1.0000
  C   C211      1.0  0.81188  0.14901000000000003  0.49930999999999987  1.0000
  C   C212      1.0  0.89796  0.11904000000000002  0.52289  1.0000
  C   C213      1.0  0.9169800000000001  0.10312  0.5834799999999999  1.0000
  C   C214      1.0  0.01038  0.07171  0.5910799999999999  1.0000
  C   C215      1.0  0.06522  0.06269  0.5366  1.0000
  C   C216      1.0  0.16054  0.03155  0.52631  1.0000
  C   C217      1.0  0.33046  0.9749000000000002  0.53629  1.0000
  C   C218      1.0  0.30296  0.98822  0.47621  1.0000
  C   C219      1.0  0.20908  0.01949  0.47073  1.0000
  C   C220      1.0  0.42104  0.9444200000000003  0.55735  1.0000
  C   C221      1.0  0.46048  0.93921  0.6167299999999999  1.0000
  C   C222      1.0  0.55221  0.90552  0.62045  1.0000
  C   C223      1.0  0.58572  0.8843000000000002  0.5636399999999999  1.0000
  C   C224      1.0  0.6761700000000002  0.8524600000000001  0.55054  1.0000
  S   S1        1.0  0.74991  0.25623000000000007  0.31806  1.0000
  S   S2        1.0  0.49115  0.16418  0.22581999999999997  1.0000
  S   S3        1.0  0.24203  0.26349  0.13129  1.0000
  S   S4        1.0  0.49906  0.40472000000000014  0.47574  1.0000
  S   S5        1.0  0.73427  0.49883  0.58624  1.0000
  S   S6        1.0  0.99937  0.5948600000000002  0.50603  1.0000
  S   S7        1.0  0.25008  0.24378000000000002  0.81806  1.0000
  S   S8        1.0  0.50885  0.33582  0.7258199999999999  1.0000
  S   S9        1.0  0.75797  0.23651000000000005  0.63129  1.0000
  S   S10       1.0  0.50094  0.09528000000000003  0.97574  1.0000
  S   S11       1.0  0.26573  0.00117  0.08625  1.0000
  S   S12       1.0  0.00061  0.90514  0.00604  1.0000
  S   S13       1.0  0.24995  0.7438  0.18194  1.0000
  S   S14       1.0  0.99109  0.83583  0.27417  1.0000
  S   S15       1.0  0.7420700000000001  0.7365  0.36871  1.0000
  S   S16       1.0  0.99895  0.59532  0.02427  1.0000
  S   S17       1.0  0.23423000000000002  0.50123  0.91377  1.0000
  S   S18       1.0  0.49935  0.4051200000000001  0.9939899999999999  1.0000
  S   S19       1.0  0.75004  0.7562000000000002  0.68194  1.0000
  S   S20       1.0  0.0089  0.6641700000000001  0.77416  1.0000
  S   S21       1.0  0.25792  0.7635000000000001  0.86871  1.0000
  S   S22       1.0  0.0010399999999999995  0.90468  0.52427  1.0000
  S   S23       1.0  0.76576  0.99877  0.41376999999999997  1.0000
  S   S24       1.0  0.50064  0.09489000000000002  0.49399  1.0000
  S   S25       1.0  0.25008  0.7437800000000002  0.68193  1.0000
  S   S26       1.0  0.50885  0.8358200000000002  0.77418  1.0000
  S   S27       1.0  0.75796  0.73651  0.8687  1.0000
  S   S28       1.0  0.50094  0.5952800000000001  0.52425  1.0000
  S   S29       1.0  0.26572  0.50117  0.41375  1.0000
  S   S30       1.0  0.0006200000000000001  0.40514  0.49395999999999995  1.0000
  S   S31       1.0  0.74991  0.75623  0.18194  1.0000
  S   S32       1.0  0.49114  0.66418  0.27418  1.0000
  S   S33       1.0  0.24203  0.7634900000000001  0.3687  1.0000
  S   S34       1.0  0.49905  0.9047200000000001  0.02426  1.0000
  S   S35       1.0  0.73427  0.99883  0.9137499999999997  1.0000
  S   S36       1.0  0.99938  0.09486000000000001  0.9939599999999998  1.0000
  S   S37       1.0  0.75004  0.2562  0.81806  1.0000
  S   S38       1.0  0.0089  0.16417  0.7258299999999999  1.0000
  S   S39       1.0  0.25792  0.2635  0.63129  1.0000
  S   S40       1.0  0.00104  0.40468  0.97573  1.0000
  S   S41       1.0  0.76576  0.49877  0.08623  1.0000
  S   S42       1.0  0.50064  0.59488  0.00601  1.0000
  S   S43       1.0  0.24996  0.2438  0.31806  1.0000
  S   S44       1.0  0.9911  0.33583  0.22583  1.0000
  S   S45       1.0  0.7420700000000001  0.23650000000000002  0.13129  1.0000
  S   S46       1.0  0.99895  0.09532000000000002  0.47572999999999993  1.0000
  S   S47       1.0  0.23423000000000002  0.00123  0.58623  1.0000
  S   S48       1.0  0.49935  0.9051100000000002  0.50601  1.0000
  N   N1        1.0  0.00673  0.23547000000000004  0.39632  1.0000
  N   N2        1.0  0.98459  0.24548  0.05014  1.0000
  N   N3        1.0  0.23868  0.32654  0.47915  1.0000
  N   N4        1.0  0.25339  0.67325  0.53877  1.0000
  N   N5        1.0  0.99327  0.26453  0.89632  1.0000
  N   N6        1.0  0.01541  0.2545200000000001  0.55014  1.0000
  N   N7        1.0  0.76131  0.17347000000000004  0.97915  1.0000
  N   N8        1.0  0.7466  0.82674  0.03877  1.0000
  N   N9        1.0  0.50668  0.7644700000000002  0.10365  1.0000
  N   N10       1.0  0.48464  0.75446  0.44986999999999994  1.0000
  N   N11       1.0  0.73856  0.67347  0.02083  1.0000
  N   N12       1.0  0.75371  0.32698  0.9611499999999998  1.0000
  N   N13       1.0  0.4933100000000001  0.73553  0.6036499999999999  1.0000
  N   N14       1.0  0.51535  0.7455400000000002  0.9498699999999998  1.0000
  N   N15       1.0  0.26144  0.8265300000000001  0.52083  1.0000
  N   N16       1.0  0.24629  0.17303000000000002  0.46115  1.0000
  N   N17       1.0  0.99327  0.76453  0.60368  1.0000
  N   N18       1.0  0.01541  0.7545200000000001  0.9498499999999999  1.0000
  N   N19       1.0  0.76131  0.67347  0.52085  1.0000
  N   N20       1.0  0.7466100000000001  0.32675000000000004  0.4612299999999999  1.0000
  N   N21       1.0  0.00673  0.7354700000000001  0.10368  1.0000
  N   N22       1.0  0.9845800000000001  0.74548  0.44986  1.0000
  N   N23       1.0  0.23868  0.8265300000000001  0.02084  1.0000
  N   N24       1.0  0.25339  0.17326  0.96123  1.0000
  N   N25       1.0  0.4933100000000001  0.23553000000000002  0.89634  1.0000
  N   N26       1.0  0.51535  0.24554  0.55012  1.0000
  N   N27       1.0  0.26144  0.32653  0.97917  1.0000
  N   N28       1.0  0.24629  0.6730200000000001  0.03885  1.0000
  N   N29       1.0  0.50669  0.26447000000000004  0.39634  1.0000
  N   N30       1.0  0.48464  0.2544600000000001  0.05011999999999999  1.0000
  N   N31       1.0  0.73856  0.17347000000000004  0.47916999999999993  1.0000
  N   N32       1.0  0.75371  0.82697  0.53885  1.0000
