data_image0
_chemical_formula_structural       Cu24H108C300N12O96
_chemical_formula_sum              "Cu24 H108 C300 N12 O96"
_cell_length_a       27.18528
_cell_length_b       27.18516
_cell_length_c       27.18515
_cell_angle_alpha    109.47736
_cell_angle_beta     109.48124999999999
_cell_angle_gamma    109.48124

_space_group_name_H-M_alt    "P 1"
_space_group_IT_number       1

loop_
  _space_group_symop_operation_xyz
  'x, y, z'

loop_
  _atom_site_type_symbol
  _atom_site_label
  _atom_site_symmetry_multiplicity
  _atom_site_fract_x
  _atom_site_fract_y
  _atom_site_fract_z
  _atom_site_occupancy
  Cu  Cu1       1.0  0.18456999999999998  0.8154299999999999  0.0  1.0000
  Cu  Cu2       1.0  0.24120999999999995  0.7587999999999998  0.0  1.0000
  Cu  Cu3       1.0  0.81545  0.81544  0.63087  1.0000
  Cu  Cu4       1.0  0.75881  0.7587999999999998  0.5176  1.0000
  Cu  Cu5       1.0  0.18456999999999998  0.18455999999999995  0.36912999999999996  1.0000
  Cu  Cu6       1.0  0.24121  0.24119999999999991  0.48239999999999994  1.0000
  Cu  Cu7       1.0  0.8154400000000002  0.18456999999999996  0.0  1.0000
  Cu  Cu8       1.0  0.7588  0.24119999999999994  0.0  1.0000
  Cu  Cu9       1.0  0.18457000000000004  0.0  0.81544  1.0000
  Cu  Cu10      1.0  0.24121  0.0  0.7588  1.0000
  Cu  Cu11      1.0  0.18456999999999998  0.36912999999999996  0.18456  1.0000
  Cu  Cu12      1.0  0.24120999999999998  0.48239999999999983  0.24119999999999997  1.0000
  Cu  Cu13      1.0  0.8154499999999999  0.6308699999999998  0.81544  1.0000
  Cu  Cu14      1.0  0.7588100000000001  0.5175999999999998  0.7588  1.0000
  Cu  Cu15      1.0  0.8154400000000003  0.0  0.18457  1.0000
  Cu  Cu16      1.0  0.7588  0.9999999999999999  0.24119999999999997  1.0000
  Cu  Cu17      1.0  0.3691300000000002  0.18455999999999997  0.18456  1.0000
  Cu  Cu18      1.0  0.48241000000000006  0.24119999999999994  0.24119999999999997  1.0000
  Cu  Cu19      1.0  3.2671299309778136e-17  0.81544  0.18457  1.0000
  Cu  Cu20      1.0  0.0  0.7587999999999998  0.24119999999999997  1.0000
  Cu  Cu21      1.0  1.0000000000019393e-05  0.18456999999999996  0.81544  1.0000
  Cu  Cu22      1.0  9.999999999970385e-06  0.24119999999999986  0.7588  1.0000
  Cu  Cu23      1.0  0.6308800000000002  0.81544  0.81544  1.0000
  Cu  Cu24      1.0  0.51761  0.7587999999999998  0.7588  1.0000
  H   H1        1.0  0.26263  0.7489699999999998  0.84654  1.0000
  H   H2        1.0  0.73739  0.58391  0.48633999999999994  1.0000
  H   H3        1.0  0.09759  0.25105999999999995  0.51368  1.0000
  H   H4        1.0  0.9024300000000002  0.41607999999999995  0.15346  1.0000
  H   H5        1.0  0.41608999999999996  0.15346999999999994  0.90243  1.0000
  H   H6        1.0  0.25106  0.5136799999999999  0.09758999999999998  1.0000
  H   H7        1.0  0.5839200000000002  0.48634000000000005  0.7373799999999999  1.0000
  H   H8        1.0  0.74898  0.8465299999999999  0.26262  1.0000
  H   H9        1.0  0.51368  0.09758999999999994  0.25105  1.0000
  H   H10       1.0  0.15347000000000002  0.90243  0.41608  1.0000
  H   H11       1.0  0.8465400000000002  0.2626200000000001  0.7489700000000001  1.0000
  H   H12       1.0  0.48635  0.7373799999999999  0.58391  1.0000
  H   H13       1.0  0.26263  0.5136599999999999  0.41609  1.0000
  H   H14       1.0  0.7373800000000003  0.15347  0.25103  1.0000
  H   H15       1.0  0.0975799999999999  0.8465399999999997  0.58392  1.0000
  H   H16       1.0  0.9024200000000001  0.48632999999999976  0.74895  1.0000
  H   H17       1.0  0.4161000000000002  0.2626299999999999  0.51366  1.0000
  H   H18       1.0  0.25103999999999993  0.7373799999999999  0.15347  1.0000
  H   H19       1.0  0.58393  0.09757999999999999  0.84654  1.0000
  H   H20       1.0  0.7489600000000001  0.9024099999999999  0.4863199999999999  1.0000
  H   H21       1.0  0.51367  0.4160899999999999  0.26262  1.0000
  H   H22       1.0  0.15348000000000003  0.25103999999999993  0.7373799999999999  1.0000
  H   H23       1.0  0.8465400000000002  0.58392  0.09758  1.0000
  H   H24       1.0  0.48632999999999993  0.7489499999999999  0.90241  1.0000
  H   H25       1.0  0.7373800000000003  0.25103  0.15347  1.0000
  H   H26       1.0  0.26263  0.4160899999999999  0.51366  1.0000
  H   H27       1.0  0.9024200000000001  0.7489499999999998  0.4863199999999999  1.0000
  H   H28       1.0  0.09758000000000003  0.58392  0.84654  1.0000
  H   H29       1.0  0.5839200000000001  0.8465399999999997  0.09758  1.0000
  H   H30       1.0  0.7489600000000001  0.48633  0.90241  1.0000
  H   H31       1.0  0.41610000000000014  0.5136599999999999  0.26262  1.0000
  H   H32       1.0  0.25104000000000004  0.15346999999999997  0.7373799999999999  1.0000
  H   H33       1.0  0.48632999999999993  0.9024199999999998  0.74895  1.0000
  H   H34       1.0  0.84655  0.09757999999999999  0.58392  1.0000
  H   H35       1.0  0.15346999999999997  0.7373799999999999  0.25103  1.0000
  H   H36       1.0  0.51367  0.2626299999999999  0.41609  1.0000
  H   H37       1.0  0.73739  0.48634  0.58391  1.0000
  H   H38       1.0  0.26263000000000014  0.8465400000000001  0.7489700000000001  1.0000
  H   H39       1.0  0.9024300000000002  0.15345999999999996  0.41608  1.0000
  H   H40       1.0  0.09759  0.5136799999999999  0.25105  1.0000
  H   H41       1.0  0.5839200000000001  0.7373799999999999  0.48633999999999994  1.0000
  H   H42       1.0  0.74898  0.26262  0.84653  1.0000
  H   H43       1.0  0.4160900000000001  0.90243  0.15346  1.0000
  H   H44       1.0  0.25106  0.09759000000000001  0.51368  1.0000
  H   H45       1.0  0.48635  0.58391  0.7373799999999999  1.0000
  H   H46       1.0  0.8465400000000002  0.7489699999999998  0.26262  1.0000
  H   H47       1.0  0.15347000000000002  0.4160899999999999  0.90243  1.0000
  H   H48       1.0  0.51368  0.25104999999999994  0.09758999999999998  1.0000
  H   H49       1.0  0.24587999999999996  0.6229299999999999  0.62293  1.0000
  H   H50       1.0  0.75413  0.37707  0.37706999999999996  1.0000
  H   H51       1.0  1.0000000000003057e-05  0.37706  0.62295  1.0000
  H   H52       1.0  1.0000000000003057e-05  0.62295  0.37706  1.0000
  H   H53       1.0  0.6229500000000002  0.3770499999999999  0.0  1.0000
  H   H54       1.0  0.3770600000000001  0.62295  0.0  1.0000
  H   H55       1.0  0.37708  0.37707  0.75413  1.0000
  H   H56       1.0  0.62294  0.6229299999999999  0.24587  1.0000
  H   H57       1.0  0.6229500000000002  0.0  0.37705  1.0000
  H   H58       1.0  0.3770600000000001  0.0  0.62295  1.0000
  H   H59       1.0  0.62294  0.24587999999999996  0.62293  1.0000
  H   H60       1.0  0.37707999999999997  0.7541299999999999  0.37706999999999996  1.0000
  H   H61       1.0  0.41719000000000017  0.7745199999999999  0.77452  1.0000
  H   H62       1.0  0.20887000000000003  0.88286  0.88286  1.0000
  H   H63       1.0  0.5828500000000002  0.35734  0.35734  1.0000
  H   H64       1.0  0.7911599999999999  0.6740099999999999  0.67401  1.0000
  H   H65       1.0  1.0000000000003057e-05  0.22551  0.64267  1.0000
  H   H66       1.0  2.220446049250313e-16  0.11713999999999998  0.32599  1.0000
  H   H67       1.0  0.0  0.6426599999999998  0.22549999999999998  1.0000
  H   H68       1.0  0.0  0.3259899999999999  0.11714  1.0000
  H   H69       1.0  0.6426600000000002  0.22549999999999995  0.0  1.0000
  H   H70       1.0  0.32599  0.11714000000000004  0.9999900000000002  1.0000
  H   H71       1.0  0.22551  0.6426599999999998  0.0  1.0000
  H   H72       1.0  0.11713999999999998  0.3259899999999999  0.9999900000000002  1.0000
  H   H73       1.0  0.3573400000000001  0.35734  0.58284  1.0000
  H   H74       1.0  0.6740199999999998  0.6740199999999997  0.79115  1.0000
  H   H75       1.0  0.7745200000000002  0.7745199999999999  0.41718  1.0000
  H   H76       1.0  0.8828600000000002  0.88286  0.20886  1.0000
  H   H77       1.0  0.6426699999999999  0.9999999999999999  0.22549999999999998  1.0000
  H   H78       1.0  0.32598999999999995  0.9999899999999999  0.11714  1.0000
  H   H79       1.0  0.22551000000000004  0.0  0.64266  1.0000
  H   H80       1.0  0.11714  0.9999899999999997  0.32599  1.0000
  H   H81       1.0  0.7745200000000001  0.4171799999999999  0.77452  1.0000
  H   H82       1.0  0.8828600000000002  0.20885999999999996  0.88286  1.0000
  H   H83       1.0  0.3573400000000001  0.5828399999999999  0.35734  1.0000
  H   H84       1.0  0.67402  0.79115  0.67402  1.0000
  H   H85       1.0  0.41717000000000004  0.64267  0.64267  1.0000
  H   H86       1.0  0.20886  0.3259899999999999  0.32599  1.0000
  H   H87       1.0  0.5828300000000001  0.22548999999999994  0.22549  1.0000
  H   H88       1.0  0.7911500000000002  0.11714999999999998  0.11715  1.0000
  H   H89       1.0  1.0000000000003057e-05  0.7745  0.35734  1.0000
  H   H90       1.0  2.0000000000006114e-05  0.88286  0.67401  1.0000
  H   H91       1.0  1.0000000000003057e-05  0.35734  0.7745  1.0000
  H   H92       1.0  2.0000000000006114e-05  0.6740099999999999  0.88286  1.0000
  H   H93       1.0  0.64267  0.41716  0.64267  1.0000
  H   H94       1.0  0.32599  0.20884999999999998  0.32599  1.0000
  H   H95       1.0  0.22549000000000005  0.58283  0.22549  1.0000
  H   H96       1.0  0.11715  0.79115  0.11715  1.0000
  H   H97       1.0  0.35735000000000006  0.0  0.7745  1.0000
  H   H98       1.0  0.6740199999999998  9.999999999880285e-06  0.8828699999999999  1.0000
  H   H99       1.0  0.7745  0.0  0.35734  1.0000
  H   H100      1.0  0.8828699999999999  1.0000000000018907e-05  0.67401  1.0000
  H   H101      1.0  0.64267  0.64267  0.41716  1.0000
  H   H102      1.0  0.32598999999999995  0.3259899999999999  0.20885  1.0000
  H   H103      1.0  0.22549000000000002  0.22549  0.58283  1.0000
  H   H104      1.0  0.11715000000000006  0.11715000000000002  0.79115  1.0000
  H   H105      1.0  0.7745  0.35734  0.0  1.0000
  H   H106      1.0  0.8828699999999999  0.6740099999999999  1e-05  1.0000
  H   H107      1.0  0.3573400000000001  0.7745  0.0  1.0000
  H   H108      1.0  0.67402  0.88286  1e-05  1.0000
  C   C1        1.0  0.25460999999999995  0.7821399999999997  0.8368499999999999  1.0000
  C   C2        1.0  0.23532999999999998  0.8150499999999998  0.8695199999999998  1.0000
  C   C3        1.0  0.22682  0.80532  0.91779  1.0000
  C   C4        1.0  0.7454000000000002  0.5822399999999999  0.52753  1.0000
  C   C5        1.0  0.7646900000000002  0.63421  0.57973  1.0000
  C   C6        1.0  0.7732  0.6909699999999998  0.57851  1.0000
  C   C7        1.0  0.05471999999999999  0.21786999999999998  0.47248000000000007  1.0000
  C   C8        1.0  0.05448999999999997  0.1849699999999999  0.42027999999999993  1.0000
  C   C9        1.0  0.11246999999999999  0.19468999999999992  0.42149999999999993  1.0000
  C   C10       1.0  0.94529  0.4177499999999999  0.16315  1.0000
  C   C11       1.0  0.9455300000000002  0.36578999999999995  0.13048  1.0000
  C   C12       1.0  0.8875300000000003  0.30901999999999996  0.08221  1.0000
  C   C13       1.0  0.41776000000000013  0.16315  0.94529  1.0000
  C   C14       1.0  0.3658000000000001  0.13048  0.94552  1.0000
  C   C15       1.0  0.3090300000000002  0.08222000000000006  0.8875300000000002  1.0000
  C   C16       1.0  0.21787000000000004  0.4724799999999999  0.05472  1.0000
  C   C17       1.0  0.18497000000000005  0.42028  0.05448000000000001  1.0000
  C   C18       1.0  0.19469  0.42149999999999993  0.11247000000000001  1.0000
  C   C19       1.0  0.5822500000000002  0.52753  0.7454  1.0000
  C   C20       1.0  0.6342200000000002  0.5797299999999999  0.76469  1.0000
  C   C21       1.0  0.69098  0.57851  0.77319  1.0000
  C   C22       1.0  0.7821500000000001  0.8368499999999998  0.2546  1.0000
  C   C23       1.0  0.8150500000000002  0.8695199999999998  0.23531999999999997  1.0000
  C   C24       1.0  0.8053300000000001  0.9177899999999999  0.22681  1.0000
  C   C25       1.0  0.4724800000000001  0.05471999999999999  0.21786999999999998  1.0000
  C   C26       1.0  0.42028000000000004  0.054479999999999994  0.18496  1.0000
  C   C27       1.0  0.4215000000000001  0.11246999999999999  0.19468  1.0000
  C   C28       1.0  0.16316000000000014  0.9452900000000001  0.41775  1.0000
  C   C29       1.0  0.1304800000000001  0.9455199999999999  0.36579  1.0000
  C   C30       1.0  0.08221999999999997  0.88753  0.30902  1.0000
  C   C31       1.0  0.8368499999999999  0.2546099999999999  0.78214  1.0000
  C   C32       1.0  0.8695300000000001  0.2353199999999999  0.81505  1.0000
  C   C33       1.0  0.91779  0.22682  0.80532  1.0000
  C   C34       1.0  0.52754  0.7453999999999998  0.58224  1.0000
  C   C35       1.0  0.5797400000000001  0.7646899999999999  0.63421  1.0000
  C   C36       1.0  0.57852  0.7731899999999998  0.69097  1.0000
  C   C37       1.0  0.25461  0.4724699999999999  0.41776  1.0000
  C   C38       1.0  0.23532  0.42027  0.3658  1.0000
  C   C39       1.0  0.22682  0.4214999999999999  0.30903  1.0000
  C   C40       1.0  0.7454000000000002  0.16316  0.21786  1.0000
  C   C41       1.0  0.7646900000000002  0.13048  0.18496  1.0000
  C   C42       1.0  0.7731900000000003  0.08221999999999997  0.19468  1.0000
  C   C43       1.0  0.0547199999999999  0.8368499999999998  0.58225  1.0000
  C   C44       1.0  0.05449000000000012  0.86953  0.63421  1.0000
  C   C45       1.0  0.11247999999999994  0.9177899999999999  0.69098  1.0000
  C   C46       1.0  0.94529  0.52753  0.78213  1.0000
  C   C47       1.0  0.9455300000000001  0.5797299999999999  0.81504  1.0000
  C   C48       1.0  0.88754  0.57851  0.80532  1.0000
  C   C49       1.0  0.41777000000000003  0.25461  0.47247  1.0000
  C   C50       1.0  0.3658  0.23531999999999995  0.42027  1.0000
  C   C51       1.0  0.30903000000000014  0.22681999999999997  0.42149999999999993  1.0000
  C   C52       1.0  0.21787  0.7453999999999998  0.16316  1.0000
  C   C53       1.0  0.18496  0.7646799999999998  0.13048  1.0000
  C   C54       1.0  0.19468999999999995  0.7731899999999998  0.08222  1.0000
  C   C55       1.0  0.58226  0.05471999999999998  0.8368499999999999  1.0000
  C   C56       1.0  0.6342200000000002  0.05448999999999989  0.8695299999999999  1.0000
  C   C57       1.0  0.6909900000000002  0.11247999999999996  0.91779  1.0000
  C   C58       1.0  0.7821400000000001  0.9452900000000001  0.52753  1.0000
  C   C59       1.0  0.8150500000000002  0.94552  0.57972  1.0000
  C   C60       1.0  0.80533  0.8875399999999998  0.57851  1.0000
  C   C61       1.0  0.47248  0.41776  0.25461  1.0000
  C   C62       1.0  0.42028  0.36578999999999995  0.23531999999999997  1.0000
  C   C63       1.0  0.42150000000000004  0.3090299999999999  0.22682  1.0000
  C   C64       1.0  0.16316  0.21786999999999995  0.7454  1.0000
  C   C65       1.0  0.13049000000000002  0.18495999999999996  0.76469  1.0000
  C   C66       1.0  0.08222  0.19467999999999994  0.77319  1.0000
  C   C67       1.0  0.83686  0.58225  0.05471  1.0000
  C   C68       1.0  0.8695300000000002  0.63421  0.05448000000000001  1.0000
  C   C69       1.0  0.9178000000000002  0.6909799999999999  0.11247000000000001  1.0000
  C   C70       1.0  0.52754  0.78213  0.94529  1.0000
  C   C71       1.0  0.57973  0.81504  0.94552  1.0000
  C   C72       1.0  0.57852  0.80532  0.88754  1.0000
  C   C73       1.0  0.7454000000000002  0.21786  0.16316  1.0000
  C   C74       1.0  0.7646900000000002  0.18495999999999996  0.13048  1.0000
  C   C75       1.0  0.7731900000000003  0.19467999999999994  0.08222  1.0000
  C   C76       1.0  0.25461  0.41776  0.47247  1.0000
  C   C77       1.0  0.23531999999999997  0.3657999999999999  0.42027  1.0000
  C   C78       1.0  0.22682000000000002  0.3090299999999999  0.42149999999999993  1.0000
  C   C79       1.0  0.94529  0.78213  0.52753  1.0000
  C   C80       1.0  0.9455300000000002  0.81504  0.57972  1.0000
  C   C81       1.0  0.88754  0.80532  0.57851  1.0000
  C   C82       1.0  0.054719999999999866  0.5822499999999998  0.8368499999999999  1.0000
  C   C83       1.0  0.05448999999999989  0.6342099999999999  0.8695299999999999  1.0000
  C   C84       1.0  0.11247999999999997  0.6909799999999999  0.91779  1.0000
  C   C85       1.0  0.5822500000000002  0.8368499999999998  0.05471  1.0000
  C   C86       1.0  0.63421  0.8695199999999998  0.05448000000000001  1.0000
  C   C87       1.0  0.69098  0.9177899999999999  0.11247000000000001  1.0000
  C   C88       1.0  0.78214  0.52753  0.94529  1.0000
  C   C89       1.0  0.8150500000000002  0.5797299999999999  0.94552  1.0000
  C   C90       1.0  0.8053300000000004  0.57851  0.88754  1.0000
  C   C91       1.0  0.41777000000000003  0.4724699999999999  0.25461  1.0000
  C   C92       1.0  0.36580000000000007  0.42027  0.23531999999999997  1.0000
  C   C93       1.0  0.30903000000000014  0.4214999999999999  0.22682  1.0000
  C   C94       1.0  0.21787000000000004  0.16316  0.7454  1.0000
  C   C95       1.0  0.18496000000000007  0.13047999999999996  0.76469  1.0000
  C   C96       1.0  0.19469  0.08221999999999996  0.77319  1.0000
  C   C97       1.0  0.52754  0.9452899999999997  0.78213  1.0000
  C   C98       1.0  0.57973  0.9455199999999999  0.81504  1.0000
  C   C99       1.0  0.57852  0.8875399999999998  0.80532  1.0000
  C   C100      1.0  0.83686  0.05471999999999998  0.58225  1.0000
  C   C101      1.0  0.8695300000000002  0.05448000000000001  0.63421  1.0000
  C   C102      1.0  0.9178000000000002  0.11246999999999993  0.69098  1.0000
  C   C103      1.0  0.16315999999999997  0.7453999999999998  0.21786  1.0000
  C   C104      1.0  0.13047999999999998  0.7646799999999998  0.18496  1.0000
  C   C105      1.0  0.0822199999999999  0.7731899999999996  0.19468  1.0000
  C   C106      1.0  0.4724800000000001  0.25461  0.41776  1.0000
  C   C107      1.0  0.42028000000000004  0.23531999999999995  0.36579  1.0000
  C   C108      1.0  0.4215000000000001  0.22682  0.30903  1.0000
  C   C109      1.0  0.7454000000000002  0.52753  0.58224  1.0000
  C   C110      1.0  0.7646900000000002  0.5797299999999999  0.63421  1.0000
  C   C111      1.0  0.7732  0.57851  0.69097  1.0000
  C   C112      1.0  0.25461  0.8368499999999998  0.78214  1.0000
  C   C113      1.0  0.23533000000000004  0.8695199999999998  0.81505  1.0000
  C   C114      1.0  0.22681999999999997  0.9177899999999999  0.80532  1.0000
  C   C115      1.0  0.94529  0.16314999999999993  0.41775  1.0000
  C   C116      1.0  0.9455300000000002  0.13048  0.36579  1.0000
  C   C117      1.0  0.8875300000000003  0.08221  0.30902  1.0000
  C   C118      1.0  0.05471999999999993  0.4724799999999999  0.21786999999999998  1.0000
  C   C119      1.0  0.05448999999999999  0.42028  0.18496  1.0000
  C   C120      1.0  0.11247  0.4214999999999999  0.19468  1.0000
  C   C121      1.0  0.5822500000000002  0.7453999999999998  0.52753  1.0000
  C   C122      1.0  0.6342200000000002  0.7646899999999999  0.57973  1.0000
  C   C123      1.0  0.69098  0.7731899999999998  0.57851  1.0000
  C   C124      1.0  0.78215  0.25460999999999995  0.8368499999999999  1.0000
  C   C125      1.0  0.8150500000000002  0.23531999999999992  0.8695199999999998  1.0000
  C   C126      1.0  0.8053300000000002  0.2268199999999999  0.91779  1.0000
  C   C127      1.0  0.41776  0.9452899999999995  0.16315  1.0000
  C   C128      1.0  0.3658000000000001  0.9455199999999999  0.13048  1.0000
  C   C129      1.0  0.30903000000000014  0.8875299999999999  0.08221  1.0000
  C   C130      1.0  0.21787000000000006  0.05471999999999998  0.47248000000000007  1.0000
  C   C131      1.0  0.18496999999999997  0.05448999999999994  0.42027999999999993  1.0000
  C   C132      1.0  0.19469  0.11246999999999997  0.42149999999999993  1.0000
  C   C133      1.0  0.52754  0.5822399999999999  0.7454  1.0000
  C   C134      1.0  0.5797400000000001  0.63421  0.76469  1.0000
  C   C135      1.0  0.57852  0.6909799999999999  0.77319  1.0000
  C   C136      1.0  0.8368499999999999  0.7821399999999997  0.2546  1.0000
  C   C137      1.0  0.8695300000000001  0.8150499999999998  0.23531999999999997  1.0000
  C   C138      1.0  0.91779  0.80532  0.22681  1.0000
  C   C139      1.0  0.1631600000000001  0.41776  0.94529  1.0000
  C   C140      1.0  0.13048999999999997  0.3657999999999999  0.94552  1.0000
  C   C141      1.0  0.08222000000000002  0.3090300000000001  0.8875300000000002  1.0000
  C   C142      1.0  0.47248000000000007  0.21786999999999995  0.05472  1.0000
  C   C143      1.0  0.42028  0.18495999999999996  0.05448000000000001  1.0000
  C   C144      1.0  0.4215000000000001  0.19467999999999994  0.11247000000000001  1.0000
  C   C145      1.0  0.29491000000000006  0.64745  0.64745  1.0000
  C   C146      1.0  0.7051000000000001  0.35254999999999986  0.35255  1.0000
  C   C147      1.0  9.999999999970385e-06  0.35254999999999986  0.64746  1.0000
  C   C148      1.0  9.999999999970385e-06  0.64746  0.35254  1.0000
  C   C149      1.0  0.6474600000000003  0.3525399999999999  0.0  1.0000
  C   C150      1.0  0.35255000000000003  0.64746  0.0  1.0000
  C   C151      1.0  0.35256  0.35256  0.7051  1.0000
  C   C152      1.0  0.6474600000000003  0.64745  0.29491  1.0000
  C   C153      1.0  0.6474600000000003  0.0  0.35254  1.0000
  C   C154      1.0  0.35255000000000003  0.0  0.64746  1.0000
  C   C155      1.0  0.6474600000000003  0.29491  0.64745  1.0000
  C   C156      1.0  0.35255999999999993  0.7050999999999997  0.35255  1.0000
  C   C157      1.0  0.3903500000000001  0.73207  0.73207  1.0000
  C   C158      1.0  0.3268200000000001  0.70223  0.70223  1.0000
  C   C159      1.0  0.2991900000000001  0.72932  0.72932  1.0000
  C   C160      1.0  0.28264000000000006  0.75817  0.7581699999999999  1.0000
  C   C161      1.0  0.26346  0.79194  0.79194  1.0000
  C   C162      1.0  0.22455000000000003  0.8578999999999998  0.8579  1.0000
  C   C163      1.0  0.60968  0.34172999999999987  0.34173  1.0000
  C   C164      1.0  0.6731999999999999  0.3754099999999999  0.37540999999999997  1.0000
  C   C165      1.0  0.7008400000000001  0.4301399999999999  0.43014  1.0000
  C   C166      1.0  0.71738  0.47555  0.4755499999999999  1.0000
  C   C167      1.0  0.7365600000000003  0.52849  0.52849  1.0000
  C   C168      1.0  0.77547  0.63337  0.63337  1.0000
  C   C169      1.0  9.999999999986721e-06  0.2679499999999999  0.65827  1.0000
  C   C170      1.0  1.0000000000035727e-05  0.29778  0.62459  1.0000
  C   C171      1.0  1.0000000000003057e-05  0.27069  0.56987  1.0000
  C   C172      1.0  9.999999999970385e-06  0.24183999999999994  0.52446  1.0000
  C   C173      1.0  1.999999999998161e-05  0.20807  0.47152  1.0000
  C   C174      1.0  0.99999  0.14209999999999998  0.36663  1.0000
  C   C175      1.0  0.0  0.6582699999999999  0.26794  1.0000
  C   C176      1.0  0.0  0.6245899999999999  0.29777  1.0000
  C   C177      1.0  0.0  0.56987  0.27069  1.0000
  C   C178      1.0  9.999999999937713e-06  0.5244599999999999  0.24184  1.0000
  C   C179      1.0  9.999999999970385e-06  0.4715199999999999  0.20807  1.0000
  C   C180      1.0  0.9999900000000002  0.36662999999999996  0.14209  1.0000
  C   C181      1.0  0.65827  0.26794  0.0  1.0000
  C   C182      1.0  0.6245900000000002  0.29776999999999987  0.0  1.0000
  C   C183      1.0  0.56988  0.27069  0.0  1.0000
  C   C184      1.0  0.52446  0.24183999999999994  1e-05  1.0000
  C   C185      1.0  0.4715200000000001  0.20807  1e-05  1.0000
  C   C186      1.0  0.36663  0.14209  0.9999900000000002  1.0000
  C   C187      1.0  0.2679500000000001  0.6582699999999999  0.0  1.0000
  C   C188      1.0  0.29778  0.6245899999999999  0.0  1.0000
  C   C189      1.0  0.27069  0.56987  0.0  1.0000
  C   C190      1.0  0.24183999999999994  0.5244599999999999  1e-05  1.0000
  C   C191      1.0  0.20806999999999998  0.4715199999999999  1e-05  1.0000
  C   C192      1.0  0.1421  0.36662999999999996  0.9999900000000002  1.0000
  C   C193      1.0  0.3417400000000001  0.34172999999999987  0.60967  1.0000
  C   C194      1.0  0.3754199999999999  0.37541999999999986  0.6732  1.0000
  C   C195      1.0  0.43014000000000013  0.4301399999999999  0.70083  1.0000
  C   C196      1.0  0.47556000000000004  0.47555  0.71738  1.0000
  C   C197      1.0  0.5285  0.52849  0.73655  1.0000
  C   C198      1.0  0.63338  0.63337  0.77547  1.0000
  C   C199      1.0  0.7320800000000002  0.73207  0.39034  1.0000
  C   C200      1.0  0.7022400000000002  0.70223  0.32682  1.0000
  C   C201      1.0  0.7293200000000001  0.72932  0.29918  1.0000
  C   C202      1.0  0.7581800000000001  0.75817  0.28263  1.0000
  C   C203      1.0  0.7919400000000002  0.79194  0.26345  1.0000
  C   C204      1.0  0.8579100000000002  0.8578999999999998  0.22453999999999996  1.0000
  C   C205      1.0  0.65827  0.0  0.26794  1.0000
  C   C206      1.0  0.6245900000000002  0.0  0.29777  1.0000
  C   C207      1.0  0.56988  0.0  0.27069  1.0000
  C   C208      1.0  0.52447  1.000000000000158e-05  0.24184  1.0000
  C   C209      1.0  0.4715200000000001  1.000000000000158e-05  0.20807  1.0000
  C   C210      1.0  0.36662999999999996  0.9999899999999999  0.14209  1.0000
  C   C211      1.0  0.2679500000000001  0.0  0.65827  1.0000
  C   C212      1.0  0.29778  0.0  0.62459  1.0000
  C   C213      1.0  0.27069  0.0  0.56987  1.0000
  C   C214      1.0  0.24183999999999997  9.999999999984251e-06  0.52446  1.0000
  C   C215      1.0  0.20808000000000001  1.0000000000018907e-05  0.47152  1.0000
  C   C216      1.0  0.14209999999999998  0.9999899999999999  0.36663  1.0000
  C   C217      1.0  0.7320800000000002  0.39034  0.73207  1.0000
  C   C218      1.0  0.7022400000000002  0.32681999999999994  0.70223  1.0000
  C   C219      1.0  0.7293200000000001  0.29919  0.72932  1.0000
  C   C220      1.0  0.7581800000000001  0.2826299999999998  0.7581699999999999  1.0000
  C   C221      1.0  0.7919499999999999  0.2634499999999999  0.79194  1.0000
  C   C222      1.0  0.8579100000000002  0.22454000000000005  0.8579  1.0000
  C   C223      1.0  0.34174  0.6096699999999998  0.34173  1.0000
  C   C224      1.0  0.3754199999999999  0.6732  0.37540999999999997  1.0000
  C   C225      1.0  0.43014000000000013  0.7008299999999998  0.43013000000000007  1.0000
  C   C226      1.0  0.47556000000000004  0.7173799999999998  0.4755499999999999  1.0000
  C   C227      1.0  0.5285  0.7365599999999998  0.52849  1.0000
  C   C228      1.0  0.63338  0.77547  0.63337  1.0000
  C   C229      1.0  0.39034000000000013  0.65828  0.65827  1.0000
  C   C230      1.0  0.32681  0.6245899999999999  0.62459  1.0000
  C   C231      1.0  0.29918  0.56987  0.56987  1.0000
  C   C232      1.0  0.28263000000000005  0.52445  0.52445  1.0000
  C   C233      1.0  0.26344999999999996  0.4715099999999999  0.47151  1.0000
  C   C234      1.0  0.22454000000000005  0.36663999999999997  0.36663  1.0000
  C   C235      1.0  0.60967  0.26794  0.26793  1.0000
  C   C236      1.0  0.6731900000000002  0.29776999999999987  0.29777  1.0000
  C   C237      1.0  0.7008200000000002  0.27069  0.27069  1.0000
  C   C238      1.0  0.71738  0.24182999999999996  0.24183  1.0000
  C   C239      1.0  0.7365600000000002  0.20807  0.20807  1.0000
  C   C240      1.0  0.77547  0.14209999999999998  0.1421  1.0000
  C   C241      1.0  9.999999999872372e-06  0.7320599999999998  0.34173  1.0000
  C   C242      1.0  9.999999999970385e-06  0.70223  0.37540999999999997  1.0000
  C   C243      1.0  1.0000000000035727e-05  0.72932  0.43013000000000007  1.0000
  C   C244      1.0  3.2671299309778136e-17  0.75817  0.4755400000000001  1.0000
  C   C245      1.0  0.0  0.7919299999999998  0.52848  1.0000
  C   C246      1.0  1.9999999999973442e-05  0.85791  0.63337  1.0000
  C   C247      1.0  9.999999999970385e-06  0.3417399999999999  0.73206  1.0000
  C   C248      1.0  9.999999999937713e-06  0.3754099999999999  0.70223  1.0000
  C   C249      1.0  9.999999999986721e-06  0.4301299999999999  0.72932  1.0000
  C   C250      1.0  0.0  0.47553999999999996  0.7581699999999999  1.0000
  C   C251      1.0  0.0  0.5284799999999998  0.79193  1.0000
  C   C252      1.0  2.0000000000071454e-05  0.6333800000000002  0.8579100000000001  1.0000
  C   C253      1.0  0.6582800000000002  0.3903299999999999  0.65827  1.0000
  C   C254      1.0  0.6246000000000005  0.32680999999999993  0.62459  1.0000
  C   C255      1.0  0.5698700000000001  0.29917  0.56987  1.0000
  C   C256      1.0  0.52446  0.28262999999999994  0.52445  1.0000
  C   C257      1.0  0.4715200000000001  0.26345  0.47151  1.0000
  C   C258      1.0  0.36664000000000013  0.22454  0.36663  1.0000
  C   C259      1.0  0.26794000000000007  0.60967  0.26793  1.0000
  C   C260      1.0  0.29778  0.6731899999999998  0.29777  1.0000
  C   C261      1.0  0.27069  0.70082  0.27069  1.0000
  C   C262      1.0  0.24183999999999994  0.7173799999999998  0.24183  1.0000
  C   C263      1.0  0.20806999999999998  0.73655  0.20806  1.0000
  C   C264      1.0  0.1421099999999999  0.7754599999999998  0.1421  1.0000
  C   C265      1.0  0.3417400000000001  0.0  0.73206  1.0000
  C   C266      1.0  0.37542  0.0  0.70223  1.0000
  C   C267      1.0  0.43013  0.0  0.72932  1.0000
  C   C268      1.0  0.4755499999999999  0.9999999999999998  0.7581699999999999  1.0000
  C   C269      1.0  0.5284900000000001  0.9999899999999999  0.79193  1.0000
  C   C270      1.0  0.63338  1.0000000000088218e-05  0.8579100000000001  1.0000
  C   C271      1.0  0.73206  0.0  0.34174  1.0000
  C   C272      1.0  0.7022300000000001  0.9999999999999999  0.37540999999999997  1.0000
  C   C273      1.0  0.7293200000000001  3.465544204751643e-17  0.43013000000000007  1.0000
  C   C274      1.0  0.75817  0.9999899999999999  0.4755400000000001  1.0000
  C   C275      1.0  0.7919400000000001  0.9999899999999997  0.52848  1.0000
  C   C276      1.0  0.8579100000000002  1.0000000000018907e-05  0.63337  1.0000
  C   C277      1.0  0.6582800000000002  0.6582699999999999  0.39032999999999995  1.0000
  C   C278      1.0  0.6246000000000003  0.6245899999999999  0.32681  1.0000
  C   C279      1.0  0.5698700000000001  0.56987  0.29917  1.0000
  C   C280      1.0  0.52446  0.52445  0.28262  1.0000
  C   C281      1.0  0.47152  0.4715099999999999  0.26345  1.0000
  C   C282      1.0  0.3666400000000001  0.36662999999999996  0.22453999999999996  1.0000
  C   C283      1.0  0.26794000000000007  0.26794  0.60967  1.0000
  C   C284      1.0  0.29778  0.29776999999999987  0.67319  1.0000
  C   C285      1.0  0.27069  0.2706899999999999  0.70082  1.0000
  C   C286      1.0  0.24183999999999997  0.24182999999999996  0.71738  1.0000
  C   C287      1.0  0.20807  0.20807  0.73655  1.0000
  C   C288      1.0  0.14211000000000001  0.14210000000000003  0.7754600000000001  1.0000
  C   C289      1.0  0.73206  0.3417399999999999  0.0  1.0000
  C   C290      1.0  0.7022300000000001  0.3754099999999999  0.0  1.0000
  C   C291      1.0  0.7293200000000001  0.4301299999999999  0.0  1.0000
  C   C292      1.0  0.75817  0.47554  0.9999900000000002  1.0000
  C   C293      1.0  0.79193  0.5284799999999998  0.9999900000000002  1.0000
  C   C294      1.0  0.8579100000000002  0.63337  1e-05  1.0000
  C   C295      1.0  0.34174000000000004  0.7320599999999998  0.0  1.0000
  C   C296      1.0  0.37542  0.70223  0.0  1.0000
  C   C297      1.0  0.43013  0.7293099999999999  0.0  1.0000
  C   C298      1.0  0.47554000000000013  0.75817  0.9999900000000002  1.0000
  C   C299      1.0  0.52848  0.7919299999999998  0.9999900000000002  1.0000
  C   C300      1.0  0.63338  0.85791  1e-05  1.0000
  N   N1        1.0  0.42077999999999993  0.7103999999999999  0.7104  1.0000
  N   N2        1.0  0.57923  0.2896099999999999  0.28961  1.0000
  N   N3        1.0  9.999999999937713e-06  0.2896299999999999  0.71038  1.0000
  N   N4        1.0  9.999999999970385e-06  0.7103799999999999  0.28962  1.0000
  N   N5        1.0  0.7103800000000002  0.28962  0.0  1.0000
  N   N6        1.0  0.28963  0.7103799999999999  0.0  1.0000
  N   N7        1.0  0.2896100000000001  0.2896099999999999  0.57923  1.0000
  N   N8        1.0  0.7104  0.7103999999999999  0.4207699999999999  1.0000
  N   N9        1.0  0.7103800000000002  0.0  0.28962  1.0000
  N   N10       1.0  0.28963  0.0  0.71038  1.0000
  N   N11       1.0  0.7104  0.4207799999999999  0.7104  1.0000
  N   N12       1.0  0.2896100000000001  0.57923  0.28961  1.0000
  O   O1        1.0  0.1981999999999999  0.8278  0.93726  1.0000
  O   O2        1.0  0.24926999999999994  0.7760799999999998  0.93586  1.0000
  O   O3        1.0  0.80183  0.7390899999999998  0.62963  1.0000
  O   O4        1.0  0.7507300000000001  0.68658  0.5268  1.0000
  O   O5        1.0  0.10945000000000006  0.1722  0.37039  1.0000
  O   O6        1.0  0.15981000000000006  0.22394  0.47322  1.0000
  O   O7        1.0  0.89054  0.26093  0.06274  1.0000
  O   O8        1.0  0.84021  0.31340999999999997  0.06414  1.0000
  O   O9        1.0  0.26093  0.06274999999999999  0.89054  1.0000
  O   O10       1.0  0.31340999999999997  0.06413999999999997  0.8402099999999999  1.0000
  O   O11       1.0  0.1722  0.37038  0.10945  1.0000
  O   O12       1.0  0.22394000000000003  0.47321999999999986  0.1598  1.0000
  O   O13       1.0  0.7391  0.6296299999999998  0.80183  1.0000
  O   O14       1.0  0.68659  0.5268  0.75073  1.0000
  O   O15       1.0  0.8278  0.93726  0.19819  1.0000
  O   O16       1.0  0.7760799999999999  0.9358599999999998  0.24926999999999996  1.0000
  O   O17       1.0  0.37039000000000005  0.10944999999999998  0.1722  1.0000
  O   O18       1.0  0.47322000000000025  0.15979999999999994  0.22394  1.0000
  O   O19       1.0  0.06274999999999997  0.8905399999999998  0.26093  1.0000
  O   O20       1.0  0.06414000000000007  0.8402100000000001  0.31341  1.0000
  O   O21       1.0  0.9372600000000002  0.19819  0.8278  1.0000
  O   O22       1.0  0.9358600000000002  0.24927  0.77608  1.0000
  O   O23       1.0  0.6296400000000002  0.8018299999999999  0.73909  1.0000
  O   O24       1.0  0.5268  0.7507299999999998  0.68658  1.0000
  O   O25       1.0  0.19818  0.37038  0.26092  1.0000
  O   O26       1.0  0.24928000000000003  0.4732099999999999  0.31342  1.0000
  O   O27       1.0  0.80181  0.06274999999999997  0.17221  1.0000
  O   O28       1.0  0.7507400000000002  0.06414999999999998  0.22392999999999996  1.0000
  O   O29       1.0  0.10947000000000004  0.93726  0.7390699999999999  1.0000
  O   O30       1.0  0.1598  0.93587  0.6866  1.0000
  O   O31       1.0  0.8905600000000004  0.62962  0.8278099999999999  1.0000
  O   O32       1.0  0.84021  0.52679  0.7760699999999999  1.0000
  O   O33       1.0  0.26092  0.19817999999999994  0.37037  1.0000
  O   O34       1.0  0.31343000000000004  0.24927999999999995  0.47320999999999996  1.0000
  O   O35       1.0  0.17221000000000006  0.8018099999999999  0.06275  1.0000
  O   O36       1.0  0.22393000000000002  0.75074  0.06415  1.0000
  O   O37       1.0  0.7390800000000002  0.10947000000000001  0.93726  1.0000
  O   O38       1.0  0.6866  0.15978999999999982  0.9358699999999999  1.0000
  O   O39       1.0  0.8278100000000003  0.89055  0.62962  1.0000
  O   O40       1.0  0.7760699999999999  0.8401999999999997  0.52679  1.0000
  O   O41       1.0  0.3703800000000001  0.26092  0.19818  1.0000
  O   O42       1.0  0.47321000000000013  0.31342  0.24927999999999997  1.0000
  O   O43       1.0  0.06274999999999996  0.17220999999999995  0.8018099999999999  1.0000
  O   O44       1.0  0.06414999999999996  0.22392999999999993  0.75074  1.0000
  O   O45       1.0  0.9372600000000002  0.7390699999999998  0.10945999999999999  1.0000
  O   O46       1.0  0.9358700000000002  0.6865899999999998  0.15979  1.0000
  O   O47       1.0  0.62963  0.8278099999999998  0.89055  1.0000
  O   O48       1.0  0.5268  0.77607  0.8401999999999998  1.0000
  O   O49       1.0  0.80181  0.17220999999999995  0.06275  1.0000
  O   O50       1.0  0.7507400000000002  0.22392999999999993  0.06414  1.0000
  O   O51       1.0  0.19818  0.2609199999999999  0.37037999999999993  1.0000
  O   O52       1.0  0.24928  0.31342  0.47320999999999996  1.0000
  O   O53       1.0  0.8905600000000002  0.8278099999999998  0.62962  1.0000
  O   O54       1.0  0.8402099999999999  0.77607  0.52679  1.0000
  O   O55       1.0  0.10946999999999997  0.73908  0.93726  1.0000
  O   O56       1.0  0.1597999999999999  0.6865999999999999  0.9358699999999999  1.0000
  O   O57       1.0  0.7390800000000002  0.93726  0.10947  1.0000
  O   O58       1.0  0.6866000000000001  0.9358599999999998  0.15979  1.0000
  O   O59       1.0  0.8278100000000003  0.62962  0.89055  1.0000
  O   O60       1.0  0.7760700000000003  0.5267899999999998  0.8401999999999998  1.0000
  O   O61       1.0  0.26092  0.37036999999999987  0.19818  1.0000
  O   O62       1.0  0.31343000000000004  0.4732099999999999  0.24927999999999997  1.0000
  O   O63       1.0  0.17221  0.06274999999999992  0.8018099999999999  1.0000
  O   O64       1.0  0.22393  0.06415  0.75074  1.0000
  O   O65       1.0  0.62963  0.89055  0.8278099999999999  1.0000
  O   O66       1.0  0.5268  0.8401999999999997  0.7760699999999999  1.0000
  O   O67       1.0  0.93727  0.10947000000000001  0.73908  1.0000
  O   O68       1.0  0.9358700000000002  0.15978999999999996  0.6866  1.0000
  O   O69       1.0  0.06275  0.8018099999999999  0.17221  1.0000
  O   O70       1.0  0.06415  0.75074  0.22392999999999996  1.0000
  O   O71       1.0  0.3703800000000001  0.19817999999999994  0.26092  1.0000
  O   O72       1.0  0.47321000000000013  0.24927999999999995  0.31342  1.0000
  O   O73       1.0  0.8018300000000003  0.6296299999999998  0.73909  1.0000
  O   O74       1.0  0.7507300000000001  0.5268  0.68658  1.0000
  O   O75       1.0  0.19820000000000007  0.93726  0.8278  1.0000
  O   O76       1.0  0.24928  0.9358599999999998  0.77608  1.0000
  O   O77       1.0  0.89054  0.06274  0.26093  1.0000
  O   O78       1.0  0.84021  0.06413999999999999  0.31341  1.0000
  O   O79       1.0  0.10945000000000006  0.37039  0.1722  1.0000
  O   O80       1.0  0.15981  0.4732199999999998  0.22394  1.0000
  O   O81       1.0  0.7391  0.8018299999999999  0.62963  1.0000
  O   O82       1.0  0.6865899999999999  0.7507299999999998  0.5268  1.0000
  O   O83       1.0  0.8278100000000003  0.1982  0.93726  1.0000
  O   O84       1.0  0.7760900000000003  0.24927000000000002  0.93586  1.0000
  O   O85       1.0  0.26092999999999994  0.8905399999999998  0.06274  1.0000
  O   O86       1.0  0.31341  0.84021  0.06414  1.0000
  O   O87       1.0  0.17219999999999996  0.10944999999999998  0.37037999999999993  1.0000
  O   O88       1.0  0.22394000000000006  0.15979999999999994  0.47322  1.0000
  O   O89       1.0  0.6296400000000001  0.7390899999999998  0.80183  1.0000
  O   O90       1.0  0.5268  0.68658  0.75073  1.0000
  O   O91       1.0  0.9372600000000002  0.8278  0.19819  1.0000
  O   O92       1.0  0.9358600000000001  0.7760799999999998  0.24926999999999996  1.0000
  O   O93       1.0  0.06275000000000001  0.26093  0.89054  1.0000
  O   O94       1.0  0.06413999999999997  0.31340999999999997  0.8402099999999999  1.0000
  O   O95       1.0  0.37039000000000005  0.1722  0.10945  1.0000
  O   O96       1.0  0.4732200000000001  0.22394  0.1598  1.0000
