data_image0
_chemical_formula_structural       Mo8H216C176N8O32
_chemical_formula_sum              "Mo8 H216 C176 N8 O32"
_cell_length_a       14.47787
_cell_length_b       20.88814
_cell_length_c       20.888170000000002
_cell_angle_alpha    83.06477000000001
_cell_angle_beta     69.65655
_cell_angle_gamma    69.6632

_space_group_name_H-M_alt    "P 1"
_space_group_IT_number       1

loop_
  _space_group_symop_operation_xyz
  'x, y, z'

loop_
  _atom_site_type_symbol
  _atom_site_label
  _atom_site_symmetry_multiplicity
  _atom_site_fract_x
  _atom_site_fract_y
  _atom_site_fract_z
  _atom_site_occupancy
  Mo  Mo1       1.0  0.48134  0.07027  0.00469  1.0000
  Mo  Mo2       1.0  0.5564800000000001  0.42973  0.4951800000000001  1.0000
  Mo  Mo3       1.0  0.05189000000000002  0.00477  0.4298  1.0000
  Mo  Mo4       1.0  0.48616999999999994  0.49535999999999997  0.07023  1.0000
  Mo  Mo5       1.0  0.51866  0.9297299999999997  0.9953200000000001  1.0000
  Mo  Mo6       1.0  0.44353  0.5702599999999999  0.50483  1.0000
  Mo  Mo7       1.0  0.9481200000000001  0.9952199999999999  0.5702  1.0000
  Mo  Mo8       1.0  0.51384  0.50464  0.9297700000000001  1.0000
  H   H1        1.0  0.2731700000000001  0.06955999999999998  0.73225  1.0000
  H   H2        1.0  0.15270999999999982  0.95632  0.08196  1.0000
  H   H3        1.0  0.20971  0.05467  0.02461  1.0000
  H   H4        1.0  0.25406000000000006  0.9313399999999998  0.00251  1.0000
  H   H5        1.0  0.03478000000000011  0.06588999999999999  0.92353  1.0000
  H   H6        1.0  0.03050999999999999  0.13781  0.03392  1.0000
  H   H7        1.0  0.9905199999999997  0.09024  0.8259100000000001  1.0000
  H   H8        1.0  0.16664999999999996  0.00424  0.7064  1.0000
  H   H9        1.0  0.09214000000000006  0.9711299999999999  0.78093  1.0000
  H   H10       1.0  0.12305000000000005  0.9445399999999999  0.009350000000000002  1.0000
  H   H11       1.0  0.9857  0.06759  0.03879  1.0000
  H   H12       1.0  0.03292000000000002  0.07882999999999998  0.10258  1.0000
  H   H13       1.0  0.13754999999999998  0.13424  0.69596  1.0000
  H   H14       1.0  0.47104999999999997  0.055539999999999985  0.81579  1.0000
  H   H15       1.0  0.52973  0.09486  0.69813  1.0000
  H   H16       1.0  0.42135  0.08845  0.68176  1.0000
  H   H17       1.0  0.40146  0.15019  0.7405800000000001  1.0000
  H   H18       1.0  0.58215  0.96675  0.72673  1.0000
  H   H19       1.0  0.49502  0.93486  0.7948900000000001  1.0000
  H   H20       1.0  0.46936000000000017  0.9590899999999999  0.71667  1.0000
  H   H21       1.0  0.23723999999999995  0.11543  0.20503000000000002  1.0000
  H   H22       1.0  0.27930999999999995  0.90218  0.18657000000000004  1.0000
  H   H23       1.0  0.11988000000000004  0.11188  0.32548  1.0000
  H   H24       1.0  0.15931000000000003  0.90688  0.30731  1.0000
  H   H25       1.0  0.03150000000000003  0.02309  0.72281  1.0000
  H   H26       1.0  0.0021299999999999483  0.15228  0.71667  1.0000
  H   H27       1.0  0.04996999999999998  0.18867  0.76611  1.0000
  H   H28       1.0  0.07453999999999991  0.42994  0.7678  1.0000
  H   H29       1.0  0.19113  0.54352  0.41815  1.0000
  H   H30       1.0  0.28926  0.44517999999999996  0.47555  1.0000
  H   H31       1.0  0.18764000000000006  0.56867  0.49757000000000007  1.0000
  H   H32       1.0  0.02424000000000009  0.4338899999999999  0.57667  1.0000
  H   H33       1.0  0.20218  0.36228  0.46625  1.0000
  H   H34       1.0  0.9058200000000004  0.40999999999999986  0.67443  1.0000
  H   H35       1.0  0.87642  0.49584  0.7940000000000002  1.0000
  H   H36       1.0  0.84344  0.52901  0.71952  1.0000
  H   H37       1.0  0.07682999999999998  0.55518  0.49083  1.0000
  H   H38       1.0  0.09210999999999998  0.43278  0.46162  1.0000
  H   H39       1.0  0.21435000000000004  0.4213299999999999  0.39762000000000003  1.0000
  H   H40       1.0  0.9675100000000001  0.36553  0.80411  1.0000
  H   H41       1.0  0.34206999999999993  0.44413  0.68387  1.0000
  H   H42       1.0  0.32218  0.40523  0.8017800000000002  1.0000
  H   H43       1.0  0.19088000000000013  0.4117299999999999  0.818  1.0000
  H   H44       1.0  0.29203999999999997  0.34968  0.7594100000000001  1.0000
  H   H45       1.0  0.2751099999999999  0.53282  0.7730100000000001  1.0000
  H   H46       1.0  0.22417999999999993  0.56498  0.70495  1.0000
  H   H47       1.0  0.1445599999999999  0.54047  0.78318  1.0000
  H   H48       1.0  0.55803  0.38535999999999987  0.29512  1.0000
  H   H49       1.0  0.36822000000000005  0.59864  0.31327  1.0000
  H   H50       1.0  0.55717  0.38852999999999993  0.17496  1.0000
  H   H51       1.0  0.37321999999999994  0.59369  0.19267  1.0000
  H   H52       1.0  0.77642  0.4772199999999999  0.77765  1.0000
  H   H53       1.0  0.8706000000000002  0.34769  0.7836400000000001  1.0000
  H   H54       1.0  0.004339999999999844  0.31139  0.7338500000000002  1.0000
  H   H55       1.0  0.8429000000000002  0.7323199999999999  0.43007  1.0000
  H   H56       1.0  0.60899  0.082  0.54375  1.0000
  H   H57       1.0  0.76445  0.02459  0.44523  1.0000
  H   H58       1.0  0.68532  0.0025299999999999997  0.56864  1.0000
  H   H59       1.0  0.6009300000000003  0.9235799999999998  0.43392  1.0000
  H   H60       1.0  0.66823  0.03403  0.36226  1.0000
  H   H61       1.0  0.5806900000000003  0.826  0.40995000000000004  1.0000
  H   H62       1.0  0.6707699999999999  0.70634  0.49579  1.0000
  H   H63       1.0  0.5630999999999999  0.78086  0.52903  1.0000
  H   H64       1.0  0.56745  0.009399999999999999  0.5555400000000001  1.0000
  H   H65       1.0  0.55314  0.03899  0.4326  1.0000
  H   H66       1.0  0.61183  0.10259999999999997  0.42131  1.0000
  H   H67       1.0  0.7719200000000003  0.69609  0.36576  1.0000
  H   H68       1.0  0.026600000000000006  0.81582  0.44421  1.0000
  H   H69       1.0  0.12470000000000002  0.69811  0.4051  1.0000
  H   H70       1.0  0.009759999999999934  0.68179  0.4115400000000001  1.0000
  H   H71       1.0  0.05196  0.74051  0.34969  1.0000
  H   H72       1.0  0.04869000000000002  0.7267699999999999  0.53307  1.0000
  H   H73       1.0  0.9296600000000004  0.79495  0.56504  1.0000
  H   H74       1.0  0.9281699999999999  0.7168099999999998  0.54073  1.0000
  H   H75       1.0  0.8531300000000002  0.20507  0.38476  1.0000
  H   H76       1.0  0.6816899999999999  0.18677  0.59807  1.0000
  H   H77       1.0  0.73166  0.32528  0.3881800000000001  1.0000
  H   H78       1.0  0.5657200000000001  0.30731  0.59333  1.0000
  H   H79       1.0  0.5544300000000002  0.7228099999999997  0.47709000000000007  1.0000
  H   H80       1.0  0.65452  0.71679  0.34784  1.0000
  H   H81       1.0  0.7388100000000001  0.76624  0.31142  1.0000
  H   H82       1.0  0.0046000000000001075  0.7677699999999997  0.06981  1.0000
  H   H83       1.0  0.23433999999999994  0.41822  0.9564900000000001  1.0000
  H   H84       1.0  0.23431000000000002  0.47545999999999994  0.05480000000000001  1.0000
  H   H85       1.0  0.25598999999999994  0.49766  0.9314000000000001  1.0000
  H   H86       1.0  0.9580499999999998  0.57663  0.06591  1.0000
  H   H87       1.0  0.06421  0.46611  0.13796  1.0000
  H   H88       1.0  0.81548  0.6746  0.0902  1.0000
  H   H89       1.0  0.87245  0.79396  0.00417  1.0000
  H   H90       1.0  0.8726100000000003  0.71946  0.9711  1.0000
  H   H91       1.0  0.13164999999999996  0.49088999999999994  0.9450800000000001  1.0000
  H   H92       1.0  0.024499999999999987  0.46164  0.06753  1.0000
  H   H93       1.0  0.1354200000000001  0.39756999999999987  0.07875000000000001  1.0000
  H   H94       1.0  0.83272  0.80429  0.13449000000000003  1.0000
  H   H95       1.0  0.28625000000000006  0.68381  0.05581  1.0000
  H   H96       1.0  0.22753  0.80163  0.09466  1.0000
  H   H97       1.0  0.10266000000000002  0.81798  0.08829000000000001  1.0000
  H   H98       1.0  0.14162000000000008  0.75941  0.15033  1.0000
  H   H99       1.0  0.30812999999999985  0.77294  0.9670800000000002  1.0000
  H   H100      1.0  0.2893299999999998  0.70485  0.9350200000000001  1.0000
  H   H101      1.0  0.18517  0.7830899999999997  0.9595400000000001  1.0000
  H   H102      1.0  0.44356  0.29462  0.1152  1.0000
  H   H103      1.0  0.4666299999999999  0.31337999999999994  0.90201  1.0000
  H   H104      1.0  0.44592000000000004  0.17453  0.11168  1.0000
  H   H105      1.0  0.4664899999999999  0.19303999999999993  0.9067700000000001  1.0000
  H   H106      1.0  0.7536800000000001  0.77768  0.02288  1.0000
  H   H107      1.0  0.7179099999999999  0.78381  0.1524  1.0000
  H   H108      1.0  0.81525  0.7341199999999998  0.18872000000000003  1.0000
  H   H109      1.0  0.72684  0.93043  0.26775  1.0000
  H   H110      1.0  0.8472900000000001  0.04368  0.91804  1.0000
  H   H111      1.0  0.7902900000000002  0.94533  0.97539  1.0000
  H   H112      1.0  0.7459499999999999  0.06866  0.99749  1.0000
  H   H113      1.0  0.9652299999999999  0.9341099999999999  0.07647  1.0000
  H   H114      1.0  0.9695000000000001  0.8621899999999999  0.96608  1.0000
  H   H115      1.0  0.009480000000000013  0.90976  0.17409  1.0000
  H   H116      1.0  0.83336  0.99575  0.29361  1.0000
  H   H117      1.0  0.90786  0.02887  0.21907  1.0000
  H   H118      1.0  0.8769500000000001  0.055449999999999985  0.99065  1.0000
  H   H119      1.0  0.014309999999999917  0.93241  0.9612100000000001  1.0000
  H   H120      1.0  0.9670899999999997  0.92117  0.8974200000000001  1.0000
  H   H121      1.0  0.8624600000000001  0.86575  0.30404  1.0000
  H   H122      1.0  0.52896  0.94446  0.18422  1.0000
  H   H123      1.0  0.47027000000000013  0.9051399999999998  0.3018700000000001  1.0000
  H   H124      1.0  0.57866  0.91155  0.31824  1.0000
  H   H125      1.0  0.5985500000000001  0.8498099999999998  0.25942  1.0000
  H   H126      1.0  0.41786000000000006  0.03325  0.27327  1.0000
  H   H127      1.0  0.50499  0.06514  0.20511  1.0000
  H   H128      1.0  0.53065  0.04091  0.28333  1.0000
  H   H129      1.0  0.7627599999999999  0.88457  0.7949700000000002  1.0000
  H   H130      1.0  0.7206999999999999  0.09782  0.81343  1.0000
  H   H131      1.0  0.8801200000000003  0.8881199999999999  0.6745200000000001  1.0000
  H   H132      1.0  0.8407000000000001  0.09310999999999998  0.69269  1.0000
  H   H133      1.0  0.9685100000000001  0.9769099999999998  0.27719  1.0000
  H   H134      1.0  0.9978800000000001  0.8477199999999999  0.28333  1.0000
  H   H135      1.0  0.95003  0.81133  0.23389000000000001  1.0000
  H   H136      1.0  0.92546  0.57005  0.2322  1.0000
  H   H137      1.0  0.8088799999999999  0.45648  0.5818500000000001  1.0000
  H   H138      1.0  0.7107399999999997  0.55482  0.52446  1.0000
  H   H139      1.0  0.81237  0.43132999999999994  0.50243  1.0000
  H   H140      1.0  0.9757700000000002  0.56611  0.42333000000000004  1.0000
  H   H141      1.0  0.7978300000000002  0.6377199999999998  0.53376  1.0000
  H   H142      1.0  0.09418000000000003  0.5899999999999999  0.32557  1.0000
  H   H143      1.0  0.12359000000000007  0.5041499999999999  0.20601  1.0000
  H   H144      1.0  0.15656000000000003  0.47099  0.28049  1.0000
  H   H145      1.0  0.9231700000000002  0.4448099999999999  0.50917  1.0000
  H   H146      1.0  0.90789  0.5672199999999998  0.53838  1.0000
  H   H147      1.0  0.78566  0.5786599999999998  0.60238  1.0000
  H   H148      1.0  0.03249999999999996  0.63447  0.19589  1.0000
  H   H149      1.0  0.6579400000000001  0.5558699999999999  0.31613  1.0000
  H   H150      1.0  0.67782  0.59477  0.19822000000000004  1.0000
  H   H151      1.0  0.8091199999999998  0.5882699999999998  0.18201  1.0000
  H   H152      1.0  0.70797  0.6503099999999999  0.24059  1.0000
  H   H153      1.0  0.72489  0.46717999999999993  0.22699  1.0000
  H   H154      1.0  0.7758200000000003  0.4350099999999999  0.29505  1.0000
  H   H155      1.0  0.8554399999999999  0.45952999999999994  0.21682  1.0000
  H   H156      1.0  0.44198  0.61464  0.70488  1.0000
  H   H157      1.0  0.63179  0.40136  0.68673  1.0000
  H   H158      1.0  0.44283000000000006  0.61147  0.82504  1.0000
  H   H159      1.0  0.6267799999999999  0.40631  0.8073300000000001  1.0000
  H   H160      1.0  0.22359000000000004  0.5227699999999998  0.22235  1.0000
  H   H161      1.0  0.12940999999999997  0.65231  0.21636000000000002  1.0000
  H   H162      1.0  0.9956600000000001  0.6886  0.26615  1.0000
  H   H163      1.0  0.15711  0.26768  0.56993  1.0000
  H   H164      1.0  0.3910200000000001  0.9179999999999999  0.45625  1.0000
  H   H165      1.0  0.23556000000000005  0.9754099999999999  0.55478  1.0000
  H   H166      1.0  0.3146900000000001  0.9974699999999999  0.43137  1.0000
  H   H167      1.0  0.3990800000000001  0.07640999999999998  0.56608  1.0000
  H   H168      1.0  0.33178  0.96597  0.63775  1.0000
  H   H169      1.0  0.4193099999999999  0.17399  0.5900600000000001  1.0000
  H   H170      1.0  0.32924000000000003  0.29366  0.50422  1.0000
  H   H171      1.0  0.4369100000000001  0.21913999999999995  0.47098  1.0000
  H   H172      1.0  0.4325500000000001  0.9906  0.44447000000000003  1.0000
  H   H173      1.0  0.4468700000000002  0.96101  0.5674  1.0000
  H   H174      1.0  0.3881700000000002  0.8973999999999999  0.5787  1.0000
  H   H175      1.0  0.22808000000000006  0.3039099999999999  0.6342400000000001  1.0000
  H   H176      1.0  0.9734000000000002  0.18418  0.55579  1.0000
  H   H177      1.0  0.8753099999999999  0.30188999999999994  0.5949  1.0000
  H   H178      1.0  0.9902500000000002  0.31821  0.58847  1.0000
  H   H179      1.0  0.9480500000000001  0.25949  0.65031  1.0000
  H   H180      1.0  0.9513100000000001  0.27323  0.46693000000000007  1.0000
  H   H181      1.0  0.07035000000000001  0.20503999999999997  0.43496  1.0000
  H   H182      1.0  0.07182999999999999  0.28318999999999994  0.45927000000000007  1.0000
  H   H183      1.0  0.14687999999999996  0.79493  0.61524  1.0000
  H   H184      1.0  0.3183100000000001  0.81323  0.40193000000000006  1.0000
  H   H185      1.0  0.2683499999999999  0.67472  0.61182  1.0000
  H   H186      1.0  0.43428  0.69269  0.40667  1.0000
  H   H187      1.0  0.44557000000000013  0.27719  0.52292  1.0000
  H   H188      1.0  0.34548  0.28321  0.65216  1.0000
  H   H189      1.0  0.2611899999999999  0.23376  0.68859  1.0000
  H   H190      1.0  0.9954099999999999  0.23222  0.93019  1.0000
  H   H191      1.0  0.76567  0.58178  0.04351  1.0000
  H   H192      1.0  0.76569  0.52453  0.9452  1.0000
  H   H193      1.0  0.74401  0.50234  0.0686  1.0000
  H   H194      1.0  0.041949999999999876  0.42337  0.9340900000000002  1.0000
  H   H195      1.0  0.9358  0.5338899999999999  0.8620400000000001  1.0000
  H   H196      1.0  0.18452999999999994  0.3254  0.90981  1.0000
  H   H197      1.0  0.12755  0.20604  0.99583  1.0000
  H   H198      1.0  0.12739999999999999  0.28054  0.028900000000000002  1.0000
  H   H199      1.0  0.8683600000000001  0.5091  0.05492  1.0000
  H   H200      1.0  0.9755100000000001  0.53836  0.9324700000000001  1.0000
  H   H201      1.0  0.8645900000000001  0.6024299999999999  0.92125  1.0000
  H   H202      1.0  0.16729000000000002  0.19571  0.86551  1.0000
  H   H203      1.0  0.71376  0.31619  0.94419  1.0000
  H   H204      1.0  0.77247  0.19836  0.90534  1.0000
  H   H205      1.0  0.89734  0.18201  0.9117100000000001  1.0000
  H   H206      1.0  0.8583799999999999  0.24058  0.8496700000000001  1.0000
  H   H207      1.0  0.69188  0.22706  0.03292  1.0000
  H   H208      1.0  0.71068  0.29515  0.06498  1.0000
  H   H209      1.0  0.81484  0.2169  0.04047  1.0000
  H   H210      1.0  0.5564499999999999  0.70538  0.8848  1.0000
  H   H211      1.0  0.5333799999999997  0.68661  0.09799000000000001  1.0000
  H   H212      1.0  0.55409  0.82547  0.8883200000000001  1.0000
  H   H213      1.0  0.5335200000000001  0.8069599999999998  0.09323  1.0000
  H   H214      1.0  0.24632999999999997  0.22232  0.9771200000000001  1.0000
  H   H215      1.0  0.2821000000000001  0.21619  0.8476  1.0000
  H   H216      1.0  0.18474999999999994  0.26588  0.81128  1.0000
  C   C1        1.0  0.36696999999999985  0.030060000000000003  0.9283500000000001  1.0000
  C   C2        1.0  0.2901799999999999  0.04461  0.8917200000000001  1.0000
  C   C3        1.0  0.18659999999999988  0.04941  0.9305000000000001  1.0000
  C   C4        1.0  0.11555999999999987  0.06176999999999999  0.8952200000000001  1.0000
  C   C5        1.0  0.14569999999999997  0.06874  0.8239400000000001  1.0000
  C   C6        1.0  0.24955999999999998  0.0637  0.78751  1.0000
  C   C7        1.0  0.32345  0.05195  0.82022  1.0000
  C   C8        1.0  0.15643  0.03929  0.007700000000000001  1.0000
  C   C9        1.0  0.17286000000000007  0.96325  0.026370000000000005  1.0000
  C   C10       1.0  0.04507000000000001  0.08357999999999999  0.047510000000000004  1.0000
  C   C11       1.0  0.06783000000000002  0.08028  0.78669  1.0000
  C   C12       1.0  0.09064000000000001  0.01577  0.74713  1.0000
  C   C13       1.0  0.06432000000000006  0.14255  0.73886  1.0000
  C   C14       1.0  0.43672999999999995  0.04546999999999998  0.78021  1.0000
  C   C15       1.0  0.4476700000000001  0.09786999999999997  0.72201  1.0000
  C   C16       1.0  0.49960000000000016  0.9721099999999999  0.75303  1.0000
  C   C17       1.0  0.34507  0.006769999999999998  0.11916000000000002  1.0000
  C   C18       1.0  0.26981  0.0084  0.18654  1.0000
  C   C19       1.0  0.22145  0.06877  0.22647  1.0000
  C   C20       1.0  0.2453200000000001  0.9490599999999999  0.21609  1.0000
  C   C21       1.0  0.15694000000000002  0.06713  0.29255  1.0000
  C   C22       1.0  0.17956999999999998  0.9513099999999999  0.28238  1.0000
  C   C23       1.0  0.32564000000000015  0.46951999999999994  0.57182  1.0000
  C   C24       1.0  0.22660000000000005  0.45499  0.6083200000000001  1.0000
  C   C25       1.0  0.16658  0.45031999999999994  0.5696300000000001  1.0000
  C   C26       1.0  0.07246000000000008  0.4380699999999999  0.60496  1.0000
  C   C27       1.0  0.03794999999999996  0.43114  0.67623  1.0000
  C   C28       1.0  0.10041999999999994  0.43599999999999994  0.7125800000000001  1.0000
  C   C29       1.0  0.19531999999999994  0.44773  0.67982  1.0000
  C   C30       1.0  0.20361  0.46060999999999996  0.49247  1.0000
  C   C31       1.0  0.16247999999999999  0.5366399999999999  0.4737700000000001  1.0000
  C   C32       1.0  0.17631000000000005  0.4165199999999999  0.45271  1.0000
  C   C33       1.0  0.9340999999999999  0.41981  0.71359  1.0000
  C   C34       1.0  0.8527500000000001  0.48434999999999995  0.7532900000000001  1.0000
  C   C35       1.0  0.94526  0.35744  0.76131  1.0000
  C   C36       1.0  0.26211000000000007  0.45427  0.71961  1.0000
  C   C37       1.0  0.26721  0.40203  0.77789  1.0000
  C   C38       1.0  0.22424000000000002  0.52761  0.74671  1.0000
  C   C39       1.0  0.47091  0.49424999999999997  0.38073  1.0000
  C   C40       1.0  0.46490000000000004  0.49247  0.31337  1.0000
  C   C41       1.0  0.51695  0.43198  0.27364  1.0000
  C   C42       1.0  0.41063000000000005  0.55174  0.28376  1.0000
  C   C43       1.0  0.51661  0.43344  0.20767  1.0000
  C   C44       1.0  0.4131500000000001  0.5492999999999999  0.21758  1.0000
  C   C45       1.0  0.89744  0.9282199999999999  0.46964000000000006  1.0000
  C   C46       1.0  0.83502  0.89173  0.45511  1.0000
  C   C47       1.0  0.7361499999999999  0.93052  0.45049  1.0000
  C   C48       1.0  0.67741  0.89523  0.43827  1.0000
  C   C49       1.0  0.7144200000000003  0.8239599999999999  0.43133000000000005  1.0000
  C   C50       1.0  0.8133  0.7875399999999998  0.43621  1.0000
  C   C51       1.0  0.87546  0.82022  0.4479000000000001  1.0000
  C   C52       1.0  0.6957299999999998  0.007709999999999999  0.46070000000000005  1.0000
  C   C53       1.0  0.6360499999999999  0.0264  0.5367800000000001  1.0000
  C   C54       1.0  0.62865  0.04756  0.41652000000000006  1.0000
  C   C55       1.0  0.6480399999999998  0.78675  0.41985  1.0000
  C   C56       1.0  0.60629  0.74711  0.48434  1.0000
  C   C57       1.0  0.7069800000000002  0.73898  0.35753  1.0000
  C   C58       1.0  0.98223  0.7802299999999999  0.45436  1.0000
  C   C59       1.0  0.04569000000000007  0.7219699999999999  0.40202  1.0000
  C   C60       1.0  0.97153  0.75313  0.52773  1.0000
  C   C61       1.0  0.8519900000000001  0.11936999999999999  0.49358  1.0000
  C   C62       1.0  0.7783600000000002  0.18669999999999998  0.49185  1.0000
  C   C63       1.0  0.79048  0.22646  0.43140000000000006  1.0000
  C   C64       1.0  0.69437  0.21625  0.55116  1.0000
  C   C65       1.0  0.72398  0.29244  0.4329700000000001  1.0000
  C   C66       1.0  0.63053  0.28243  0.54887  1.0000
  C   C67       1.0  0.29518000000000005  0.57172  0.03025  1.0000
  C   C68       1.0  0.18155  0.60825  0.0449  1.0000
  C   C69       1.0  0.11676000000000003  0.56959  0.04967  1.0000
  C   C70       1.0  0.010360000000000008  0.60494  0.061950000000000005  1.0000
  C   C71       1.0  0.96894  0.67623  0.06891  1.0000
  C   C72       1.0  0.03638999999999998  0.71252  0.06395  1.0000
  C   C73       1.0  0.14305  0.67973  0.052230000000000006  1.0000
  C   C74       1.0  0.16400000000000006  0.49240999999999996  0.0395  1.0000
  C   C75       1.0  0.19883000000000003  0.47380999999999995  0.96348  1.0000
  C   C76       1.0  0.09251000000000002  0.45264999999999994  0.08369000000000001  1.0000
  C   C77       1.0  0.85373  0.71368  0.0803  1.0000
  C   C78       1.0  0.8371599999999998  0.75329  0.01572  1.0000
  C   C79       1.0  0.8023500000000002  0.7614799999999999  0.14264  1.0000
  C   C80       1.0  0.21640999999999996  0.71952  0.04571  1.0000
  C   C81       1.0  0.16922999999999994  0.77781  0.09794  1.0000
  C   C82       1.0  0.25199000000000005  0.74664  0.97236  1.0000
  C   C83       1.0  0.46495999999999993  0.3807  0.0064800000000000005  1.0000
  C   C84       1.0  0.45716  0.31332999999999994  0.00821  1.0000
  C   C85       1.0  0.44889  0.27336999999999995  0.06855  1.0000
  C   C86       1.0  0.4620600000000002  0.28387999999999997  0.94891  1.0000
  C   C87       1.0  0.45004  0.20741  0.06692  1.0000
  C   C88       1.0  0.46217  0.21774  0.95119  1.0000
  C   C89       1.0  0.6330400000000002  0.9699299999999998  0.07165  1.0000
  C   C90       1.0  0.70982  0.9553899999999999  0.10828  1.0000
  C   C91       1.0  0.8134000000000001  0.95059  0.0695  1.0000
  C   C92       1.0  0.8844499999999998  0.9382199999999999  0.10478000000000001  1.0000
  C   C93       1.0  0.85431  0.9312599999999999  0.17607  1.0000
  C   C94       1.0  0.75045  0.9363  0.21249  1.0000
  C   C95       1.0  0.67656  0.9480499999999998  0.17978000000000002  1.0000
  C   C96       1.0  0.84358  0.9606999999999999  0.9923  1.0000
  C   C97       1.0  0.8271399999999999  0.03675  0.97364  1.0000
  C   C98       1.0  0.95493  0.91642  0.95249  1.0000
  C   C99       1.0  0.9321799999999999  0.91972  0.21331  1.0000
  C   C100      1.0  0.9093599999999998  0.98423  0.25287  1.0000
  C   C101      1.0  0.9356799999999998  0.85744  0.26114  1.0000
  C   C102      1.0  0.5632700000000002  0.95453  0.21979  1.0000
  C   C103      1.0  0.55234  0.90212  0.27799  1.0000
  C   C104      1.0  0.50041  0.02789  0.24697000000000002  1.0000
  C   C105      1.0  0.6549400000000001  0.9932299999999998  0.88084  1.0000
  C   C106      1.0  0.7302  0.9916  0.81346  1.0000
  C   C107      1.0  0.7785600000000005  0.9312199999999999  0.77354  1.0000
  C   C108      1.0  0.7546899999999999  0.050939999999999985  0.78391  1.0000
  C   C109      1.0  0.8430700000000002  0.93287  0.7074500000000001  1.0000
  C   C110      1.0  0.8204299999999999  0.04869  0.71762  1.0000
  C   C111      1.0  0.67437  0.53048  0.42819  1.0000
  C   C112      1.0  0.7734100000000002  0.545  0.39168000000000003  1.0000
  C   C113      1.0  0.8334199999999999  0.54968  0.43037000000000003  1.0000
  C   C114      1.0  0.9275400000000001  0.56193  0.39505  1.0000
  C   C115      1.0  0.9620600000000001  0.56886  0.32377  1.0000
  C   C116      1.0  0.8995900000000002  0.564  0.28743  1.0000
  C   C117      1.0  0.80469  0.55227  0.32019  1.0000
  C   C118      1.0  0.79639  0.53939  0.50753  1.0000
  C   C119      1.0  0.8375199999999999  0.46336  0.52623  1.0000
  C   C120      1.0  0.8237000000000001  0.58347  0.5473  1.0000
  C   C121      1.0  0.0659  0.58019  0.28642  1.0000
  C   C122      1.0  0.14726000000000003  0.5156499999999999  0.24672  1.0000
  C   C123      1.0  0.05475000000000011  0.6425599999999998  0.23870000000000002  1.0000
  C   C124      1.0  0.7378999999999999  0.54573  0.28039  1.0000
  C   C125      1.0  0.7328  0.59796  0.22211000000000003  1.0000
  C   C126      1.0  0.77577  0.47237999999999997  0.25329  1.0000
  C   C127      1.0  0.5291000000000002  0.5057499999999999  0.61927  1.0000
  C   C128      1.0  0.5351  0.50753  0.68663  1.0000
  C   C129      1.0  0.48306000000000004  0.5680199999999999  0.72636  1.0000
  C   C130      1.0  0.5893800000000001  0.44825999999999994  0.71624  1.0000
  C   C131      1.0  0.48339999999999994  0.56656  0.7923400000000002  1.0000
  C   C132      1.0  0.58686  0.4507  0.78242  1.0000
  C   C133      1.0  0.10257  0.07178  0.53036  1.0000
  C   C134      1.0  0.16499000000000003  0.10826  0.54489  1.0000
  C   C135      1.0  0.26386000000000004  0.06947999999999999  0.54951  1.0000
  C   C136      1.0  0.3226  0.10477  0.56173  1.0000
  C   C137      1.0  0.28558999999999996  0.17604  0.56867  1.0000
  C   C138      1.0  0.18671000000000001  0.21246  0.56379  1.0000
  C   C139      1.0  0.12453999999999996  0.17976999999999999  0.5521  1.0000
  C   C140      1.0  0.30428  0.99229  0.53931  1.0000
  C   C141      1.0  0.3639600000000001  0.9735999999999999  0.46322  1.0000
  C   C142      1.0  0.3713500000000001  0.95244  0.58348  1.0000
  C   C143      1.0  0.35196000000000005  0.21323999999999999  0.58015  1.0000
  C   C144      1.0  0.39371  0.25288999999999995  0.5156600000000001  1.0000
  C   C145      1.0  0.29302999999999996  0.26102  0.64247  1.0000
  C   C146      1.0  0.017779999999999976  0.21977  0.54564  1.0000
  C   C147      1.0  0.9543200000000001  0.27802999999999994  0.59799  1.0000
  C   C148      1.0  0.02847999999999998  0.24686999999999998  0.4722700000000001  1.0000
  C   C149      1.0  0.1480200000000001  0.8806299999999999  0.5064200000000001  1.0000
  C   C150      1.0  0.22165000000000007  0.8132999999999999  0.50815  1.0000
  C   C151      1.0  0.20952999999999988  0.77354  0.5686  1.0000
  C   C152      1.0  0.3056299999999999  0.78375  0.4488400000000001  1.0000
  C   C153      1.0  0.27602000000000004  0.70756  0.56703  1.0000
  C   C154      1.0  0.36948000000000003  0.71757  0.45113  1.0000
  C   C155      1.0  0.70482  0.42826999999999993  0.96975  1.0000
  C   C156      1.0  0.8184600000000001  0.39174999999999993  0.9551100000000001  1.0000
  C   C157      1.0  0.8832399999999999  0.43041  0.95034  1.0000
  C   C158      1.0  0.9896499999999999  0.39504999999999996  0.93805  1.0000
  C   C159      1.0  0.031070000000000014  0.32377  0.9311  1.0000
  C   C160      1.0  0.96362  0.28746999999999995  0.93605  1.0000
  C   C161      1.0  0.85696  0.32026999999999994  0.94777  1.0000
  C   C162      1.0  0.8359999999999999  0.50759  0.9605000000000001  1.0000
  C   C163      1.0  0.80118  0.5261899999999999  0.03652  1.0000
  C   C164      1.0  0.9074899999999999  0.54735  0.91631  1.0000
  C   C165      1.0  0.14627999999999988  0.28632  0.91971  1.0000
  C   C166      1.0  0.16285000000000008  0.24670999999999998  0.98428  1.0000
  C   C167      1.0  0.19765999999999984  0.23852  0.8573700000000001  1.0000
  C   C168      1.0  0.7836  0.28048  0.9543  1.0000
  C   C169      1.0  0.83077  0.22218999999999997  0.90206  1.0000
  C   C170      1.0  0.74801  0.25336  0.02765  1.0000
  C   C171      1.0  0.5350399999999997  0.6193  0.9935300000000001  1.0000
  C   C172      1.0  0.54285  0.68666  0.99179  1.0000
  C   C173      1.0  0.5511199999999999  0.72663  0.93146  1.0000
  C   C174      1.0  0.53794  0.71611  0.05109000000000001  1.0000
  C   C175      1.0  0.54996  0.79258  0.9330900000000001  1.0000
  C   C176      1.0  0.5378400000000001  0.78226  0.04881  1.0000
  N   N1        1.0  0.13636000000000004  0.00908  0.32164  1.0000
  N   N2        1.0  0.46682  0.49137999999999993  0.1785  1.0000
  N   N3        1.0  0.6450200000000001  0.3215199999999999  0.49097  1.0000
  N   N4        1.0  0.45804  0.17846  0.00895  1.0000
  N   N5        1.0  0.8636400000000001  0.9909199999999999  0.67836  1.0000
  N   N6        1.0  0.53318  0.50862  0.8215  1.0000
  N   N7        1.0  0.3549800000000001  0.6784799999999999  0.50903  1.0000
  N   N8        1.0  0.5419700000000001  0.8215399999999999  0.99105  1.0000
  O   O1        1.0  0.3809099999999999  0.08104  0.9478500000000001  1.0000
  O   O2        1.0  0.36168  0.06365  0.09427  1.0000
  O   O3        1.0  0.41339  0.96703  0.9387600000000001  1.0000
  O   O4        1.0  0.39359000000000016  0.9482599999999999  0.08742  1.0000
  O   O5        1.0  0.41041000000000005  0.41862999999999995  0.5523  1.0000
  O   O6        1.0  0.5192200000000001  0.43747  0.40579  1.0000
  O   O7        1.0  0.31931  0.53256  0.5616  1.0000
  O   O8        1.0  0.4294200000000003  0.5527299999999999  0.41238  1.0000
  O   O9        1.0  0.96281  0.9476699999999998  0.41882  1.0000
  O   O10       1.0  0.9257600000000005  0.09445  0.43679  1.0000
  O   O11       1.0  0.8804599999999999  0.93853  0.53272  1.0000
  O   O12       1.0  0.8417800000000001  0.08754999999999999  0.55202  1.0000
  O   O13       1.0  0.3288800000000001  0.55227  0.08114  1.0000
  O   O14       1.0  0.4574599999999999  0.40552  0.06311  1.0000
  O   O15       1.0  0.35197999999999996  0.5614399999999999  0.9672100000000001  1.0000
  O   O16       1.0  0.4811700000000001  0.41251999999999994  0.9480200000000001  1.0000
  O   O17       1.0  0.6191000000000001  0.91895  0.05215  1.0000
  O   O18       1.0  0.6383300000000003  0.9363499999999999  0.90574  1.0000
  O   O19       1.0  0.5866200000000001  0.03297  0.06124  1.0000
  O   O20       1.0  0.60642  0.051739999999999994  0.91258  1.0000
  O   O21       1.0  0.5896000000000005  0.58137  0.44770000000000004  1.0000
  O   O22       1.0  0.48078  0.56253  0.59421  1.0000
  O   O23       1.0  0.68069  0.46744  0.43840000000000007  1.0000
  O   O24       1.0  0.5705800000000001  0.44726999999999995  0.58762  1.0000
  O   O25       1.0  0.03720000000000004  0.052329999999999995  0.58118  1.0000
  O   O26       1.0  0.07424999999999995  0.9055499999999999  0.56321  1.0000
  O   O27       1.0  0.11954  0.06147  0.46728  1.0000
  O   O28       1.0  0.15822000000000008  0.9124399999999999  0.44798  1.0000
  O   O29       1.0  0.6711300000000001  0.44772  0.91886  1.0000
  O   O30       1.0  0.5425499999999999  0.59447  0.93689  1.0000
  O   O31       1.0  0.64803  0.43855999999999995  0.03279  1.0000
  O   O32       1.0  0.51884  0.58748  0.051980000000000005  1.0000
