data_image0
_chemical_formula_structural       Cu8H128C244O32
_chemical_formula_sum              "Cu8 H128 C244 O32"
_cell_length_a       20.48269
_cell_length_b       20.483000000000004
_cell_length_c       44.95833
_cell_angle_alpha    93.48257
_cell_angle_beta     93.47858
_cell_angle_gamma    96.44375999999998

_symmetry_space_group_name_H-M    'P 1'
_symmetry_Int_Tables_number       1

loop_
  _symmetry_equiv_pos_as_xyz
  'x,y,z'

loop_
  _atom_site_type_symbol
  _atom_site_label
  _atom_site_symmetry_multiplicity
  _atom_site_fract_x
  _atom_site_fract_y
  _atom_site_fract_z
  _atom_site_occupancy
  Cu  Cu1       1.0  0.09391999999999999  0.5335199999999999  0.68592  1.0000
  Cu  Cu2       1.0  0.11376  0.65277  0.69378  1.0000
  Cu  Cu3       1.0  0.53352  0.09391999999999998  0.18592  1.0000
  Cu  Cu4       1.0  0.6527799999999999  0.11376  0.19378  1.0000
  Cu  Cu5       1.0  0.46647000000000005  0.90607  0.81408  1.0000
  Cu  Cu6       1.0  0.34722  0.8862399999999999  0.80622  1.0000
  Cu  Cu7       1.0  0.90608  0.46647  0.31408  1.0000
  Cu  Cu8       1.0  0.8862399999999999  0.34722  0.30622  1.0000
  H   H1        1.0  0.93718  0.50876  0.6164  1.0000
  H   H2        1.0  0.8565199999999998  0.52062  0.57366  1.0000
  H   H3        1.0  0.9004799999999998  0.73177  0.5855  1.0000
  H   H4        1.0  0.9814899999999999  0.71906  0.62793  1.0000
  H   H5        1.0  0.63148  0.53088  0.46143  1.0000
  H   H6        1.0  0.7201599999999999  0.53049  0.5008  1.0000
  H   H7        1.0  0.7394  0.74264  0.51037  1.0000
  H   H8        1.0  0.65019  0.74275  0.4709  1.0000
  H   H9        1.0  0.27596  0.6926199999999999  0.63754  1.0000
  H   H10       1.0  0.34548  0.69963  0.59389  1.0000
  H   H11       1.0  0.25003  0.51076  0.55757  1.0000
  H   H12       1.0  0.18277  0.50327  0.60204  1.0000
  H   H13       1.0  0.52223  0.7365899999999999  0.47123999999999994  1.0000
  H   H14       1.0  0.44033  0.7281999999999998  0.50933  1.0000
  H   H15       1.0  0.41890000000000005  0.51657  0.49491999999999997  1.0000
  H   H16       1.0  0.50196  0.5251999999999999  0.45772999999999997  1.0000
  H   H17       1.0  0.47232999999999997  0.24550999999999998  0.24566  1.0000
  H   H18       1.0  0.46254999999999996  0.33042  0.28691  1.0000
  H   H19       1.0  0.67167  0.34163  0.30906  1.0000
  H   H20       1.0  0.68034  0.25611  0.26832  1.0000
  H   H21       1.0  0.69191  0.96957  0.25714  1.0000
  H   H22       1.0  0.6908  0.90251  0.30166  1.0000
  H   H23       1.0  0.48513  0.92365  0.30856  1.0000
  H   H24       1.0  0.48658  0.9889599999999998  0.26344  1.0000
  H   H25       1.0  0.68347  0.70442  0.4189899999999999  1.0000
  H   H26       1.0  0.68791  0.78771  0.38159000000000004  1.0000
  H   H27       1.0  0.47707  0.78452  0.38026  1.0000
  H   H28       1.0  0.47292999999999996  0.70109  0.41767  1.0000
  H   H29       1.0  0.67456  0.5786  0.41459  1.0000
  H   H30       1.0  0.66721  0.49244999999999994  0.37351  1.0000
  H   H31       1.0  0.45564999999999994  0.48324  0.3685800000000001  1.0000
  H   H32       1.0  0.46321  0.56953  0.40977  1.0000
  H   H33       1.0  0.50876  0.93718  0.1164  1.0000
  H   H34       1.0  0.5206199999999999  0.8565199999999998  0.07366  1.0000
  H   H35       1.0  0.73178  0.9004799999999998  0.0855  1.0000
  H   H36       1.0  0.7190699999999999  0.9814899999999999  0.12793  1.0000
  H   H37       1.0  0.53087  0.63148  0.96143  1.0000
  H   H38       1.0  0.53048  0.72016  0.0008  1.0000
  H   H39       1.0  0.74264  0.7393899999999999  0.01036  1.0000
  H   H40       1.0  0.74274  0.6501699999999998  0.9709  1.0000
  H   H41       1.0  0.69262  0.27597  0.13754  1.0000
  H   H42       1.0  0.69963  0.34547999999999995  0.09389000000000002  1.0000
  H   H43       1.0  0.5107599999999999  0.25003  0.05757  1.0000
  H   H44       1.0  0.50327  0.18277999999999997  0.10203000000000001  1.0000
  H   H45       1.0  0.73658  0.52223  0.97124  1.0000
  H   H46       1.0  0.72819  0.44034  0.00933  1.0000
  H   H47       1.0  0.51656  0.41888999999999993  0.99492  1.0000
  H   H48       1.0  0.52519  0.50194  0.95773  1.0000
  H   H49       1.0  0.24550999999999998  0.47233  0.74567  1.0000
  H   H50       1.0  0.33041999999999994  0.4625499999999999  0.7869099999999999  1.0000
  H   H51       1.0  0.34163999999999994  0.6716699999999999  0.80907  1.0000
  H   H52       1.0  0.25612  0.68034  0.76832  1.0000
  H   H53       1.0  0.9695699999999998  0.6918999999999998  0.7571399999999999  1.0000
  H   H54       1.0  0.9025  0.6907899999999999  0.8016600000000002  1.0000
  H   H55       1.0  0.92365  0.48513  0.8085499999999999  1.0000
  H   H56       1.0  0.9889599999999998  0.48658  0.76344  1.0000
  H   H57       1.0  0.7044  0.6834599999999998  0.91899  1.0000
  H   H58       1.0  0.7877  0.6879  0.8816  1.0000
  H   H59       1.0  0.7845199999999999  0.47706999999999994  0.88026  1.0000
  H   H60       1.0  0.70109  0.47291  0.9176700000000001  1.0000
  H   H61       1.0  0.5786  0.67454  0.9145900000000001  1.0000
  H   H62       1.0  0.49246  0.6672  0.8735100000000001  1.0000
  H   H63       1.0  0.48323  0.45563999999999993  0.86858  1.0000
  H   H64       1.0  0.56951  0.4632  0.90977  1.0000
  H   H65       1.0  0.49122999999999994  0.06280999999999999  0.8835999999999999  1.0000
  H   H66       1.0  0.47937  0.14346999999999996  0.9263399999999999  1.0000
  H   H67       1.0  0.26820999999999995  0.09951999999999998  0.9145  1.0000
  H   H68       1.0  0.28093000000000007  0.01850000000000001  0.8720700000000001  1.0000
  H   H69       1.0  0.46913  0.36852  0.03857  1.0000
  H   H70       1.0  0.4695099999999999  0.27983  0.9992  1.0000
  H   H71       1.0  0.25735  0.2606  0.98964  1.0000
  H   H72       1.0  0.25725  0.34982  0.0291  1.0000
  H   H73       1.0  0.30737  0.72403  0.86246  1.0000
  H   H74       1.0  0.30036  0.65451  0.9061099999999999  1.0000
  H   H75       1.0  0.48923  0.7499599999999997  0.94243  1.0000
  H   H76       1.0  0.49671999999999994  0.8172199999999998  0.89797  1.0000
  H   H77       1.0  0.26342  0.4777699999999999  0.02876  1.0000
  H   H78       1.0  0.2718  0.55965  0.99067  1.0000
  H   H79       1.0  0.48343  0.5810999999999998  0.00508  1.0000
  H   H80       1.0  0.47480000000000006  0.49806  0.04227  1.0000
  H   H81       1.0  0.75449  0.5276699999999999  0.25433  1.0000
  H   H82       1.0  0.66958  0.53745  0.21309  1.0000
  H   H83       1.0  0.65836  0.32832  0.19093000000000002  1.0000
  H   H84       1.0  0.74388  0.31965999999999994  0.23168  1.0000
  H   H85       1.0  0.030419999999999996  0.30809  0.24286  1.0000
  H   H86       1.0  0.09749  0.3092  0.19834  1.0000
  H   H87       1.0  0.07635  0.51487  0.19145  1.0000
  H   H88       1.0  0.011029999999999988  0.5134199999999999  0.23656  1.0000
  H   H89       1.0  0.2956  0.31653  0.08101  1.0000
  H   H90       1.0  0.21229  0.3121  0.1184  1.0000
  H   H91       1.0  0.21546999999999997  0.52293  0.11974  1.0000
  H   H92       1.0  0.29890999999999995  0.52708  0.08233  1.0000
  H   H93       1.0  0.42139  0.32545  0.08541  1.0000
  H   H94       1.0  0.50754  0.33279  0.12649  1.0000
  H   H95       1.0  0.5167699999999998  0.54435  0.13142  1.0000
  H   H96       1.0  0.4304799999999999  0.5367899999999998  0.09023  1.0000
  H   H97       1.0  0.06282  0.49123  0.3836  1.0000
  H   H98       1.0  0.14347  0.47937999999999986  0.42634  1.0000
  H   H99       1.0  0.09952000000000003  0.26821999999999996  0.41450000000000004  1.0000
  H   H100      1.0  0.018500000000000003  0.28093  0.37207  1.0000
  H   H101      1.0  0.36851  0.46911  0.53857  1.0000
  H   H102      1.0  0.27984  0.46951  0.49920000000000003  1.0000
  H   H103      1.0  0.26059000000000004  0.25735  0.48963  1.0000
  H   H104      1.0  0.3497999999999999  0.25724  0.5291  1.0000
  H   H105      1.0  0.72403  0.30737999999999993  0.36246  1.0000
  H   H106      1.0  0.65452  0.30036  0.40611  1.0000
  H   H107      1.0  0.74996  0.48923999999999995  0.44243  1.0000
  H   H108      1.0  0.81722  0.49673  0.39796000000000004  1.0000
  H   H109      1.0  0.47776  0.2634  0.52876  1.0000
  H   H110      1.0  0.5596599999999999  0.2718  0.49067  1.0000
  H   H111      1.0  0.58109  0.48342  0.50508  1.0000
  H   H112      1.0  0.4980399999999999  0.47479  0.54227  1.0000
  H   H113      1.0  0.52767  0.7544799999999999  0.75434  1.0000
  H   H114      1.0  0.53745  0.6695700000000001  0.71309  1.0000
  H   H115      1.0  0.32832  0.6583599999999998  0.69094  1.0000
  H   H116      1.0  0.31965  0.7438799999999999  0.73168  1.0000
  H   H117      1.0  0.3080800000000001  0.03041999999999999  0.7428600000000001  1.0000
  H   H118      1.0  0.3092  0.09749  0.69834  1.0000
  H   H119      1.0  0.51487  0.07635  0.69144  1.0000
  H   H120      1.0  0.51341  0.011039999999999987  0.73656  1.0000
  H   H121      1.0  0.31652  0.29558  0.58101  1.0000
  H   H122      1.0  0.31209  0.21229  0.61841  1.0000
  H   H123      1.0  0.52292  0.21548  0.61974  1.0000
  H   H124      1.0  0.52707  0.29889999999999994  0.58233  1.0000
  H   H125      1.0  0.32544  0.42139  0.58541  1.0000
  H   H126      1.0  0.33278  0.50754  0.62649  1.0000
  H   H127      1.0  0.54435  0.51675  0.63142  1.0000
  H   H128      1.0  0.53678  0.43046  0.59023  1.0000
  C   C1        1.0  0.96428  0.61325  0.6247  1.0000
  C   C2        1.0  0.9287599999999999  0.5572  0.60942  1.0000
  C   C3        1.0  0.8839299999999999  0.56381  0.58564  1.0000
  C   C4        1.0  0.8732  0.62694  0.57657  1.0000
  C   C5        1.0  0.9087099999999999  0.68311  0.59224  1.0000
  C   C6        1.0  0.9536999999999999  0.6761199999999999  0.61591  1.0000
  C   C7        1.0  0.6348699999999999  0.6369799999999999  0.46268  1.0000
  C   C8        1.0  0.65517  0.57761  0.4718399999999999  1.0000
  C   C9        1.0  0.70526  0.57708  0.49409000000000003  1.0000
  C   C10       1.0  0.73682  0.63665  0.50841  1.0000
  C   C11       1.0  0.71605  0.6963399999999998  0.49944  1.0000
  C   C12       1.0  0.6658  0.69611  0.47712000000000004  1.0000
  C   C13       1.0  0.22511999999999996  0.59745  0.62243  1.0000
  C   C14       1.0  0.27093  0.653  0.62003  1.0000
  C   C15       1.0  0.30933  0.6571299999999999  0.59563  1.0000
  C   C16       1.0  0.30208999999999997  0.60598  0.57266  1.0000
  C   C17       1.0  0.25566999999999995  0.5503599999999997  0.57512  1.0000
  C   C18       1.0  0.21818  0.5461099999999999  0.59985  1.0000
  C   C19       1.0  0.51728  0.63162  0.46101  1.0000
  C   C20       1.0  0.49926  0.68827  0.47612999999999994  1.0000
  C   C21       1.0  0.45316999999999996  0.6838399999999999  0.49765999999999994  1.0000
  C   C22       1.0  0.42314  0.62178  0.50484  1.0000
  C   C23       1.0  0.44115  0.56486  0.48965  1.0000
  C   C24       1.0  0.48787  0.57003  0.46847  1.0000
  C   C25       1.0  0.57684  0.24573  0.25441  1.0000
  C   C26       1.0  0.51538  0.26675999999999994  0.25978  1.0000
  C   C27       1.0  0.50999  0.31395  0.28274  1.0000
  C   C28       1.0  0.56627  0.34157  0.30093  1.0000
  C   C29       1.0  0.62802  0.32024  0.29536  1.0000
  C   C30       1.0  0.63296  0.2727399999999999  0.27248  1.0000
  C   C31       1.0  0.5893099999999999  0.9830699999999999  0.2575  1.0000
  C   C32       1.0  0.64695  0.9588199999999999  0.26847  1.0000
  C   C33       1.0  0.64634  0.9217499999999998  0.29335  1.0000
  C   C34       1.0  0.58786  0.9085  0.30823  1.0000
  C   C35       1.0  0.53012  0.93339  0.29712  1.0000
  C   C36       1.0  0.53088  0.9697699999999998  0.27201  1.0000
  C   C37       1.0  0.57795  0.69683  0.42144  1.0000
  C   C38       1.0  0.6381499999999999  0.72245  0.41092  1.0000
  C   C39       1.0  0.6408999999999999  0.7692499999999998  0.38974  1.0000
  C   C40       1.0  0.58275  0.7921199999999999  0.37799  1.0000
  C   C41       1.0  0.52235  0.7674799999999999  0.38900999999999997  1.0000
  C   C42       1.0  0.5203  0.72058  0.4102  1.0000
  C   C43       1.0  0.56936  0.5791  0.41608  1.0000
  C   C44       1.0  0.62633  0.5575199999999999  0.40488  1.0000
  C   C45       1.0  0.62258  0.5092  0.38159000000000004  1.0000
  C   C46       1.0  0.56095  0.48085999999999995  0.36823999999999996  1.0000
  C   C47       1.0  0.5035700000000001  0.50378  0.37884  1.0000
  C   C48       1.0  0.5081099999999998  0.5522999999999999  0.40219000000000005  1.0000
  C   C49       1.0  0.57466  0.63643  0.44032000000000004  1.0000
  C   C50       1.0  0.013929999999999986  0.60631  0.64955  1.0000
  C   C51       1.0  0.183  0.59379  0.64826  1.0000
  C   C52       1.0  0.5824  0.19513999999999998  0.22987  1.0000
  C   C53       1.0  0.59073  0.024229999999999995  0.23132  1.0000
  C   C54       1.0  0.78625  0.63562  0.53171  1.0000
  C   C55       1.0  0.82722  0.6328299999999999  0.5524  1.0000
  C   C56       1.0  0.37834  0.61622  0.52757  1.0000
  C   C57       1.0  0.34182999999999997  0.6105699999999998  0.54803  1.0000
  C   C58       1.0  0.58667  0.8702899999999998  0.33344  1.0000
  C   C59       1.0  0.58482  0.83566  0.35468  1.0000
  C   C60       1.0  0.55879  0.43147  0.34471  1.0000
  C   C61       1.0  0.56146  0.3896299999999999  0.32436  1.0000
  C   C62       1.0  0.61325  0.96428  0.1247  1.0000
  C   C63       1.0  0.5572  0.9287599999999998  0.10941999999999999  1.0000
  C   C64       1.0  0.56381  0.8839299999999999  0.08564  1.0000
  C   C65       1.0  0.62694  0.8732  0.07657  1.0000
  C   C66       1.0  0.6831199999999998  0.90871  0.09223999999999999  1.0000
  C   C67       1.0  0.6761299999999999  0.9537099999999997  0.11591  1.0000
  C   C68       1.0  0.63697  0.63486  0.96268  1.0000
  C   C69       1.0  0.5776  0.65516  0.9718400000000001  1.0000
  C   C70       1.0  0.5770699999999999  0.7052599999999999  0.99409  1.0000
  C   C71       1.0  0.63665  0.73682  0.00841  1.0000
  C   C72       1.0  0.69633  0.71604  0.99944  1.0000
  C   C73       1.0  0.6961000000000002  0.66579  0.97712  1.0000
  C   C74       1.0  0.59745  0.22513  0.12242  1.0000
  C   C75       1.0  0.653  0.27093  0.12003  1.0000
  C   C76       1.0  0.6571399999999997  0.30933  0.09563  1.0000
  C   C77       1.0  0.60598  0.30209  0.07266  1.0000
  C   C78       1.0  0.55037  0.25566999999999995  0.07512  1.0000
  C   C79       1.0  0.54611  0.21818  0.09985  1.0000
  C   C80       1.0  0.63161  0.51727  0.96101  1.0000
  C   C81       1.0  0.68826  0.49925  0.9761300000000002  1.0000
  C   C82       1.0  0.68383  0.45316999999999996  0.99766  1.0000
  C   C83       1.0  0.62178  0.42314  0.00484  1.0000
  C   C84       1.0  0.56485  0.44114  0.98965  1.0000
  C   C85       1.0  0.57001  0.48784999999999995  0.96847  1.0000
  C   C86       1.0  0.24572999999999998  0.57684  0.7544100000000001  1.0000
  C   C87       1.0  0.26675999999999994  0.5153799999999998  0.7597799999999999  1.0000
  C   C88       1.0  0.31395  0.5099900000000002  0.7827400000000001  1.0000
  C   C89       1.0  0.34157  0.56627  0.80094  1.0000
  C   C90       1.0  0.3202400000000001  0.62802  0.7953599999999998  1.0000
  C   C91       1.0  0.27274  0.6329599999999999  0.77249  1.0000
  C   C92       1.0  0.98306  0.58931  0.7575  1.0000
  C   C93       1.0  0.95882  0.6469499999999998  0.7684700000000001  1.0000
  C   C94       1.0  0.92175  0.64634  0.79336  1.0000
  C   C95       1.0  0.9085  0.58785  0.8082299999999999  1.0000
  C   C96       1.0  0.9333899999999999  0.5301199999999999  0.79712  1.0000
  C   C97       1.0  0.96977  0.5308799999999999  0.77201  1.0000
  C   C98       1.0  0.6968199999999999  0.57793  0.92144  1.0000
  C   C99       1.0  0.72244  0.6381299999999999  0.91092  1.0000
  C   C100      1.0  0.76924  0.6409  0.8897499999999999  1.0000
  C   C101      1.0  0.79212  0.5827499999999999  0.87799  1.0000
  C   C102      1.0  0.76748  0.52235  0.88901  1.0000
  C   C103      1.0  0.7205699999999999  0.52029  0.9102000000000001  1.0000
  C   C104      1.0  0.57909  0.5693499999999999  0.91608  1.0000
  C   C105      1.0  0.55751  0.62632  0.90488  1.0000
  C   C106      1.0  0.50919  0.62257  0.88159  1.0000
  C   C107      1.0  0.48086  0.56094  0.86824  1.0000
  C   C108      1.0  0.50377  0.50356  0.87884  1.0000
  C   C109      1.0  0.55228  0.5081  0.9021900000000002  1.0000
  C   C110      1.0  0.6364200000000001  0.57464  0.9403200000000002  1.0000
  C   C111      1.0  0.60631  0.013929999999999998  0.14955  1.0000
  C   C112      1.0  0.59379  0.183  0.14826  1.0000
  C   C113      1.0  0.19514  0.5824  0.7298799999999999  1.0000
  C   C114      1.0  0.024230000000000012  0.59073  0.7313200000000001  1.0000
  C   C115      1.0  0.63562  0.78625  0.0317  1.0000
  C   C116      1.0  0.63283  0.8272199999999998  0.05239  1.0000
  C   C117      1.0  0.61622  0.37834  0.02757  1.0000
  C   C118      1.0  0.61058  0.3418399999999999  0.04803000000000001  1.0000
  C   C119      1.0  0.87029  0.58666  0.83344  1.0000
  C   C120      1.0  0.83566  0.58482  0.85468  1.0000
  C   C121      1.0  0.43146  0.5587899999999999  0.8446999999999999  1.0000
  C   C122      1.0  0.3896299999999999  0.56146  0.8243599999999999  1.0000
  C   C123      1.0  0.38673999999999986  0.035710000000000006  0.8753  1.0000
  C   C124      1.0  0.44278999999999996  0.07123000000000002  0.89058  1.0000
  C   C125      1.0  0.43618  0.11606  0.9143600000000001  1.0000
  C   C126      1.0  0.37305  0.12679  0.92343  1.0000
  C   C127      1.0  0.31688  0.09128999999999998  0.9077599999999999  1.0000
  C   C128      1.0  0.32386  0.04629  0.88409  1.0000
  C   C129      1.0  0.36302  0.36514  0.03732  1.0000
  C   C130      1.0  0.4224  0.34483  0.02816  1.0000
  C   C131      1.0  0.4229299999999999  0.29473  0.00591  1.0000
  C   C132      1.0  0.36334000000000005  0.26318  0.9915900000000001  1.0000
  C   C133      1.0  0.30366  0.28396  0.00056  1.0000
  C   C134      1.0  0.30389  0.3342  0.02288  1.0000
  C   C135      1.0  0.40253999999999995  0.77487  0.8775800000000001  1.0000
  C   C136      1.0  0.34698999999999997  0.7290599999999999  0.8799699999999999  1.0000
  C   C137      1.0  0.34285999999999994  0.6906599999999999  0.9043700000000001  1.0000
  C   C138      1.0  0.39400999999999997  0.6979  0.9273400000000002  1.0000
  C   C139      1.0  0.44963  0.74432  0.92488  1.0000
  C   C140      1.0  0.45388  0.78181  0.90015  1.0000
  C   C141      1.0  0.36839  0.48273  0.03899  1.0000
  C   C142      1.0  0.31174  0.5007399999999999  0.023870000000000002  1.0000
  C   C143      1.0  0.31617  0.54682  0.00234  1.0000
  C   C144      1.0  0.37822000000000006  0.57685  0.99516  1.0000
  C   C145      1.0  0.43514  0.55886  0.01035  1.0000
  C   C146      1.0  0.42998  0.5121399999999999  0.03153  1.0000
  C   C147      1.0  0.7542599999999999  0.42315  0.24558999999999997  1.0000
  C   C148      1.0  0.73324  0.4846099999999999  0.24022  1.0000
  C   C149      1.0  0.68605  0.49001  0.21726  1.0000
  C   C150      1.0  0.65842  0.43372  0.19906000000000001  1.0000
  C   C151      1.0  0.67976  0.37197  0.20464000000000002  1.0000
  C   C152      1.0  0.7272599999999999  0.36704  0.22751  1.0000
  C   C153      1.0  0.016930000000000004  0.41069  0.2425  1.0000
  C   C154      1.0  0.04117  0.35305  0.23152999999999999  1.0000
  C   C155      1.0  0.07824  0.35365  0.20663999999999996  1.0000
  C   C156      1.0  0.09149  0.41214  0.19177  1.0000
  C   C157      1.0  0.06660999999999999  0.46987999999999996  0.20287999999999998  1.0000
  C   C158      1.0  0.030219999999999997  0.46912  0.22799  1.0000
  C   C159      1.0  0.30317  0.42206  0.07856  1.0000
  C   C160      1.0  0.27755  0.36186  0.08908  1.0000
  C   C161      1.0  0.23075  0.35909999999999986  0.11025  1.0000
  C   C162      1.0  0.20787999999999998  0.41725  0.12200999999999998  1.0000
  C   C163      1.0  0.23251  0.47765  0.11099  1.0000
  C   C164      1.0  0.27941999999999995  0.47969999999999996  0.0898  1.0000
  C   C165      1.0  0.42090999999999995  0.43063999999999997  0.08392  1.0000
  C   C166      1.0  0.44247999999999993  0.37367  0.09512  1.0000
  C   C167      1.0  0.4908  0.37742  0.11841  1.0000
  C   C168      1.0  0.51914  0.43904999999999994  0.13176  1.0000
  C   C169      1.0  0.49622  0.4964299999999999  0.12116  1.0000
  C   C170      1.0  0.44770999999999994  0.49188999999999994  0.09781  1.0000
  C   C171      1.0  0.36358  0.42535  0.05967999999999999  1.0000
  C   C172      1.0  0.3936799999999999  0.9860600000000002  0.85045  1.0000
  C   C173      1.0  0.40619999999999995  0.8169899999999998  0.8517399999999999  1.0000
  C   C174      1.0  0.80486  0.41759999999999997  0.27012  1.0000
  C   C175      1.0  0.97577  0.40926  0.26868  1.0000
  C   C176      1.0  0.36437  0.21373999999999999  0.9683  1.0000
  C   C177      1.0  0.36716  0.17277  0.94761  1.0000
  C   C178      1.0  0.38377  0.6216500000000001  0.97243  1.0000
  C   C179      1.0  0.38941999999999993  0.65815  0.95197  1.0000
  C   C180      1.0  0.12969999999999998  0.41332999999999986  0.16656  1.0000
  C   C181      1.0  0.16433  0.41518  0.14532  1.0000
  C   C182      1.0  0.5685299999999999  0.44121  0.1553  1.0000
  C   C183      1.0  0.61036  0.4385399999999999  0.17564  1.0000
  C   C184      1.0  0.03571  0.38675  0.3753  1.0000
  C   C185      1.0  0.07123  0.4428  0.39058  1.0000
  C   C186      1.0  0.11607  0.43618  0.41436  1.0000
  C   C187      1.0  0.1268  0.37306  0.42343  1.0000
  C   C188      1.0  0.09128999999999997  0.31687999999999994  0.40776  1.0000
  C   C189      1.0  0.04629  0.32387  0.38409  1.0000
  C   C190      1.0  0.36511999999999994  0.36301  0.53732  1.0000
  C   C191      1.0  0.34483  0.42238999999999993  0.52816  1.0000
  C   C192      1.0  0.29473  0.42292  0.50591  1.0000
  C   C193      1.0  0.26318  0.36334  0.49159  1.0000
  C   C194      1.0  0.28395  0.30366  0.50056  1.0000
  C   C195      1.0  0.33419  0.30388  0.52288  1.0000
  C   C196      1.0  0.77487  0.40254999999999996  0.37757  1.0000
  C   C197      1.0  0.72906  0.34699  0.37997  1.0000
  C   C198      1.0  0.69067  0.34286  0.40437  1.0000
  C   C199      1.0  0.69791  0.3940199999999999  0.42734  1.0000
  C   C200      1.0  0.74432  0.44962999999999986  0.42488000000000004  1.0000
  C   C201      1.0  0.78181  0.45389  0.40015  1.0000
  C   C202      1.0  0.4827099999999999  0.36837  0.53899  1.0000
  C   C203      1.0  0.50073  0.31172  0.52387  1.0000
  C   C204      1.0  0.54682  0.31615999999999994  0.50234  1.0000
  C   C205      1.0  0.57685  0.37821999999999995  0.49516  1.0000
  C   C206      1.0  0.5588499999999998  0.43512999999999996  0.51035  1.0000
  C   C207      1.0  0.51213  0.4299699999999999  0.53153  1.0000
  C   C208      1.0  0.4231499999999998  0.75426  0.7455899999999999  1.0000
  C   C209      1.0  0.48460999999999993  0.73323  0.7402200000000001  1.0000
  C   C210      1.0  0.49001  0.68604  0.7172599999999999  1.0000
  C   C211      1.0  0.43371999999999994  0.65842  0.69907  1.0000
  C   C212      1.0  0.37196999999999997  0.67976  0.70464  1.0000
  C   C213      1.0  0.36703  0.7272599999999999  0.72752  1.0000
  C   C214      1.0  0.41068  0.01692999999999998  0.7425  1.0000
  C   C215      1.0  0.35304  0.041170000000000005  0.73153  1.0000
  C   C216      1.0  0.35364999999999996  0.07824  0.70665  1.0000
  C   C217      1.0  0.41214  0.09149  0.69177  1.0000
  C   C218      1.0  0.46986999999999995  0.06660999999999997  0.70288  1.0000
  C   C219      1.0  0.46911  0.030220000000000014  0.72799  1.0000
  C   C220      1.0  0.4220499999999999  0.30316  0.57856  1.0000
  C   C221      1.0  0.36185  0.27754  0.58908  1.0000
  C   C222      1.0  0.35909  0.23074999999999998  0.61026  1.0000
  C   C223      1.0  0.41724  0.20787999999999998  0.62201  1.0000
  C   C224      1.0  0.47764  0.23250999999999994  0.61099  1.0000
  C   C225      1.0  0.47968999999999995  0.27942  0.5898  1.0000
  C   C226      1.0  0.43062999999999996  0.42088999999999993  0.58392  1.0000
  C   C227      1.0  0.37366  0.44248  0.59512  1.0000
  C   C228      1.0  0.37742  0.4907999999999999  0.61841  1.0000
  C   C229      1.0  0.43904999999999994  0.51913  0.63176  1.0000
  C   C230      1.0  0.49642  0.49620999999999976  0.62116  1.0000
  C   C231      1.0  0.49187999999999993  0.4477  0.59781  1.0000
  C   C232      1.0  0.42534  0.36356  0.55968  1.0000
  C   C233      1.0  0.9860599999999999  0.3936799999999999  0.35045  1.0000
  C   C234      1.0  0.8169899999999999  0.4062  0.35174  1.0000
  C   C235      1.0  0.4176  0.80485  0.77013  1.0000
  C   C236      1.0  0.40925999999999996  0.9757599999999998  0.7686799999999999  1.0000
  C   C237      1.0  0.21373999999999999  0.36438  0.46829  1.0000
  C   C238      1.0  0.17277  0.36716999999999994  0.4476  1.0000
  C   C239      1.0  0.62165  0.38377  0.47243  1.0000
  C   C240      1.0  0.65816  0.38942  0.45197  1.0000
  C   C241      1.0  0.41333  0.12970999999999996  0.66656  1.0000
  C   C242      1.0  0.41516999999999993  0.16433  0.64532  1.0000
  C   C243      1.0  0.4412  0.56853  0.65529  1.0000
  C   C244      1.0  0.43853999999999993  0.61036  0.67564  1.0000
  O   O1        1.0  0.01900999999999998  0.5482299999999999  0.65788  1.0000
  O   O2        1.0  0.0486  0.65928  0.66062  1.0000
  O   O3        1.0  0.18255999999999994  0.6467399999999998  0.66496  1.0000
  O   O4        1.0  0.14967  0.53827  0.65171  1.0000
  O   O5        1.0  0.52967  0.17183999999999996  0.21409000000000003  1.0000
  O   O6        1.0  0.64012  0.17831  0.22627  1.0000
  O   O7        1.0  0.53535  0.03885  0.22031  1.0000
  O   O8        1.0  0.64721  0.04277999999999999  0.22185999999999997  1.0000
  O   O9        1.0  0.54823  0.019009999999999996  0.15788  1.0000
  O   O10       1.0  0.6592799999999999  0.04859999999999999  0.16062  1.0000
  O   O11       1.0  0.64675  0.18257  0.16496  1.0000
  O   O12       1.0  0.5382700000000001  0.14967  0.15171  1.0000
  O   O13       1.0  0.17184  0.5296700000000001  0.71409  1.0000
  O   O14       1.0  0.17831  0.64012  0.7262700000000001  1.0000
  O   O15       1.0  0.038840000000000006  0.53535  0.72031  1.0000
  O   O16       1.0  0.04277999999999999  0.6472099999999998  0.7218600000000001  1.0000
  O   O17       1.0  0.45175999999999994  0.98098  0.84212  1.0000
  O   O18       1.0  0.34071  0.9513899999999998  0.83938  1.0000
  O   O19       1.0  0.35325  0.8174299999999999  0.8350400000000001  1.0000
  O   O20       1.0  0.46172  0.8503199999999997  0.84829  1.0000
  O   O21       1.0  0.82815  0.47032  0.28591  1.0000
  O   O22       1.0  0.8216900000000001  0.35987  0.27373  1.0000
  O   O23       1.0  0.96115  0.46464999999999995  0.27969  1.0000
  O   O24       1.0  0.9572199999999998  0.35279  0.27814  1.0000
  O   O25       1.0  0.9809799999999999  0.45176  0.34212  1.0000
  O   O26       1.0  0.9513899999999998  0.34070999999999996  0.33938  1.0000
  O   O27       1.0  0.81743  0.35325  0.33504  1.0000
  O   O28       1.0  0.85032  0.46171999999999996  0.34829  1.0000
  O   O29       1.0  0.47032  0.82815  0.78591  1.0000
  O   O30       1.0  0.35987  0.8216799999999999  0.7737299999999999  1.0000
  O   O31       1.0  0.46463999999999994  0.9611399999999999  0.77969  1.0000
  O   O32       1.0  0.35277999999999987  0.9572099999999999  0.7781399999999999  1.0000
