data_image0
_chemical_formula_structural       Cu16H192C320N16O64
_chemical_formula_sum              "Cu16 H192 C320 N16 O64"
_cell_length_a       24.08254
_cell_length_b       36.82129
_cell_length_c       36.82129
_cell_angle_alpha    90.0
_cell_angle_beta     90.0
_cell_angle_gamma    90.0

_symmetry_space_group_name_H-M    'P 1'
_symmetry_Int_Tables_number       1

loop_
  _symmetry_equiv_pos_as_xyz
  'x,y,z'

loop_
  _atom_site_type_symbol
  _atom_site_label
  _atom_site_symmetry_multiplicity
  _atom_site_fract_x
  _atom_site_fract_y
  _atom_site_fract_z
  _atom_site_occupancy
  Cu  Cu1       1.0  0.4999999999999999  0.18392  0.5067600000000001  1.0000
  Cu  Cu2       1.0  0.4999999999999999  0.81607  0.49323999999999996  1.0000
  Cu  Cu3       1.0  0.4999999999999999  0.49323999999999996  0.18392  1.0000
  Cu  Cu4       1.0  0.4999999999999999  0.5067600000000001  0.81607  1.0000
  Cu  Cu5       1.0  0.0  0.31607  0.00676  1.0000
  Cu  Cu6       1.0  0.0  0.68392  0.99323  1.0000
  Cu  Cu7       1.0  0.0  0.00676  0.68392  1.0000
  Cu  Cu8       1.0  0.0  0.99323  0.31607  1.0000
  Cu  Cu9       1.0  0.0  0.38209  0.01107  1.0000
  Cu  Cu10      1.0  0.0  0.6179100000000001  0.98893  1.0000
  Cu  Cu11      1.0  0.0  0.98893  0.38209  1.0000
  Cu  Cu12      1.0  0.0  0.01107  0.6179100000000001  1.0000
  Cu  Cu13      1.0  0.4999999999999999  0.11791  0.51106  1.0000
  Cu  Cu14      1.0  0.4999999999999999  0.88208  0.48893  1.0000
  Cu  Cu15      1.0  0.4999999999999999  0.51106  0.88208  1.0000
  Cu  Cu16      1.0  0.4999999999999999  0.48893  0.11791  1.0000
  H   H1        1.0  0.33784  0.23155  0.74842  1.0000
  H   H2        1.0  0.37436999999999987  0.09933  0.59165  1.0000
  H   H3        1.0  0.20158999999999994  0.41364  0.8849899999999999  1.0000
  H   H4        1.0  0.12525  0.41251000000000004  0.9307600000000001  1.0000
  H   H5        1.0  0.37564  0.21559000000000003  0.58469  1.0000
  H   H6        1.0  0.16402  0.28925  0.76556  1.0000
  H   H7        1.0  0.12602  0.29609  0.92908  1.0000
  H   H8        1.0  0.29785  0.10222000000000002  0.63735  1.0000
  H   H9        1.0  0.16448  0.33611  0.81267  1.0000
  H   H10       1.0  0.3373299999999999  0.18451  0.70166  1.0000
  H   H11       1.0  0.20233999999999996  0.2967  0.88331  1.0000
  H   H12       1.0  0.2993  0.21891000000000002  0.6305700000000001  1.0000
  H   H13       1.0  0.33784  0.7684500000000001  0.25157  1.0000
  H   H14       1.0  0.37436999999999987  0.9006600000000001  0.40835  1.0000
  H   H15       1.0  0.20158999999999994  0.58636  0.11501  1.0000
  H   H16       1.0  0.12525  0.58748  0.06923  1.0000
  H   H17       1.0  0.37564  0.78441  0.41531  1.0000
  H   H18       1.0  0.16402  0.71075  0.23442999999999997  1.0000
  H   H19       1.0  0.12602  0.70391  0.07091  1.0000
  H   H20       1.0  0.29785  0.8977800000000001  0.36265  1.0000
  H   H21       1.0  0.16448  0.66389  0.18733  1.0000
  H   H22       1.0  0.3373299999999999  0.81549  0.29834  1.0000
  H   H23       1.0  0.20233999999999996  0.70329  0.11669  1.0000
  H   H24       1.0  0.2993  0.7810800000000001  0.3694200000000001  1.0000
  H   H25       1.0  0.33784  0.25157  0.23155  1.0000
  H   H26       1.0  0.37436999999999987  0.40835  0.09933  1.0000
  H   H27       1.0  0.20158999999999994  0.11501  0.41364  1.0000
  H   H28       1.0  0.12525  0.06923  0.41251000000000004  1.0000
  H   H29       1.0  0.37564  0.41531  0.21559000000000003  1.0000
  H   H30       1.0  0.16402  0.23442999999999997  0.28925  1.0000
  H   H31       1.0  0.12602  0.07091  0.29609  1.0000
  H   H32       1.0  0.29785  0.36265  0.10222000000000002  1.0000
  H   H33       1.0  0.16448  0.18733  0.33611  1.0000
  H   H34       1.0  0.3373299999999999  0.29834  0.18451  1.0000
  H   H35       1.0  0.20233999999999996  0.11669  0.2967  1.0000
  H   H36       1.0  0.2993  0.3694200000000001  0.21891000000000002  1.0000
  H   H37       1.0  0.33784  0.74842  0.7684500000000001  1.0000
  H   H38       1.0  0.37436999999999987  0.59165  0.9006600000000001  1.0000
  H   H39       1.0  0.20158999999999994  0.8849899999999999  0.58636  1.0000
  H   H40       1.0  0.12525  0.9307600000000001  0.58748  1.0000
  H   H41       1.0  0.37564  0.58469  0.78441  1.0000
  H   H42       1.0  0.16402  0.76556  0.71075  1.0000
  H   H43       1.0  0.12602  0.92908  0.70391  1.0000
  H   H44       1.0  0.29785  0.63735  0.8977800000000001  1.0000
  H   H45       1.0  0.16448  0.81267  0.66389  1.0000
  H   H46       1.0  0.3373299999999999  0.70166  0.81549  1.0000
  H   H47       1.0  0.20233999999999996  0.88331  0.70329  1.0000
  H   H48       1.0  0.2993  0.6305700000000001  0.7810800000000001  1.0000
  H   H49       1.0  0.16216  0.26845  0.24842999999999998  1.0000
  H   H50       1.0  0.12563  0.40067  0.09165  1.0000
  H   H51       1.0  0.29841  0.08636  0.38499000000000005  1.0000
  H   H52       1.0  0.3747499999999999  0.08749  0.43077  1.0000
  H   H53       1.0  0.12436  0.28441  0.08469  1.0000
  H   H54       1.0  0.33598  0.21075  0.26557  1.0000
  H   H55       1.0  0.37398  0.20391  0.42908  1.0000
  H   H56       1.0  0.20214999999999994  0.39778  0.13735  1.0000
  H   H57       1.0  0.33552  0.16389  0.31267  1.0000
  H   H58       1.0  0.16267  0.31549  0.20166  1.0000
  H   H59       1.0  0.29766  0.20329  0.38331  1.0000
  H   H60       1.0  0.2007  0.28109  0.13058  1.0000
  H   H61       1.0  0.16216  0.73155  0.75157  1.0000
  H   H62       1.0  0.12563  0.59933  0.9083500000000001  1.0000
  H   H63       1.0  0.29841  0.9136400000000001  0.6150000000000001  1.0000
  H   H64       1.0  0.3747499999999999  0.91251  0.56923  1.0000
  H   H65       1.0  0.12436  0.71559  0.9153100000000001  1.0000
  H   H66       1.0  0.33598  0.78924  0.7344300000000001  1.0000
  H   H67       1.0  0.37398  0.79608  0.57091  1.0000
  H   H68       1.0  0.20214999999999994  0.60222  0.8626500000000001  1.0000
  H   H69       1.0  0.33552  0.83611  0.68732  1.0000
  H   H70       1.0  0.16267  0.68451  0.79834  1.0000
  H   H71       1.0  0.29766  0.7967  0.61668  1.0000
  H   H72       1.0  0.2007  0.71891  0.86942  1.0000
  H   H73       1.0  0.16216  0.24842999999999998  0.73155  1.0000
  H   H74       1.0  0.12563  0.09165  0.59933  1.0000
  H   H75       1.0  0.29841  0.38499000000000005  0.9136400000000001  1.0000
  H   H76       1.0  0.3747499999999999  0.43077  0.91251  1.0000
  H   H77       1.0  0.12436  0.08469  0.71559  1.0000
  H   H78       1.0  0.33598  0.26557  0.78924  1.0000
  H   H79       1.0  0.37398  0.42908  0.79608  1.0000
  H   H80       1.0  0.20214999999999994  0.13735  0.60222  1.0000
  H   H81       1.0  0.33552  0.31267  0.83611  1.0000
  H   H82       1.0  0.16267  0.20166  0.68451  1.0000
  H   H83       1.0  0.29766  0.38331  0.7967  1.0000
  H   H84       1.0  0.2007  0.13058  0.71891  1.0000
  H   H85       1.0  0.16216  0.75157  0.26845  1.0000
  H   H86       1.0  0.12563  0.9083500000000001  0.40067  1.0000
  H   H87       1.0  0.29841  0.6150000000000001  0.08636  1.0000
  H   H88       1.0  0.3747499999999999  0.56923  0.08749  1.0000
  H   H89       1.0  0.12436  0.9153100000000001  0.28441  1.0000
  H   H90       1.0  0.33598  0.7344300000000001  0.21075  1.0000
  H   H91       1.0  0.37398  0.57091  0.20391  1.0000
  H   H92       1.0  0.20214999999999994  0.8626500000000001  0.39778  1.0000
  H   H93       1.0  0.33552  0.68732  0.16389  1.0000
  H   H94       1.0  0.16267  0.79834  0.31549  1.0000
  H   H95       1.0  0.29766  0.61668  0.20329  1.0000
  H   H96       1.0  0.2007  0.86942  0.28109  1.0000
  H   H97       1.0  0.66216  0.7684500000000001  0.25157  1.0000
  H   H98       1.0  0.62563  0.9006600000000001  0.40835  1.0000
  H   H99       1.0  0.7984099999999997  0.58636  0.11501  1.0000
  H   H100      1.0  0.87475  0.58748  0.06923  1.0000
  H   H101      1.0  0.62436  0.78441  0.41531  1.0000
  H   H102      1.0  0.8359799999999998  0.71075  0.23442999999999997  1.0000
  H   H103      1.0  0.8739799999999999  0.70391  0.07091  1.0000
  H   H104      1.0  0.70215  0.8977800000000001  0.36265  1.0000
  H   H105      1.0  0.83552  0.66389  0.18733  1.0000
  H   H106      1.0  0.66267  0.81549  0.29834  1.0000
  H   H107      1.0  0.79766  0.70329  0.11669  1.0000
  H   H108      1.0  0.7007  0.7810800000000001  0.3694200000000001  1.0000
  H   H109      1.0  0.66216  0.23155  0.74842  1.0000
  H   H110      1.0  0.62563  0.09933  0.59165  1.0000
  H   H111      1.0  0.7984099999999997  0.41364  0.8849899999999999  1.0000
  H   H112      1.0  0.87475  0.41251000000000004  0.9307600000000001  1.0000
  H   H113      1.0  0.62436  0.21559000000000003  0.58469  1.0000
  H   H114      1.0  0.8359799999999998  0.28925  0.76556  1.0000
  H   H115      1.0  0.8739799999999999  0.29609  0.92908  1.0000
  H   H116      1.0  0.70215  0.10222000000000002  0.63735  1.0000
  H   H117      1.0  0.83552  0.33611  0.81267  1.0000
  H   H118      1.0  0.66267  0.18451  0.70166  1.0000
  H   H119      1.0  0.79766  0.2967  0.88331  1.0000
  H   H120      1.0  0.7007  0.21891000000000002  0.6305700000000001  1.0000
  H   H121      1.0  0.66216  0.74842  0.7684500000000001  1.0000
  H   H122      1.0  0.62563  0.59165  0.9006600000000001  1.0000
  H   H123      1.0  0.7984099999999997  0.8849899999999999  0.58636  1.0000
  H   H124      1.0  0.87475  0.9307600000000001  0.58748  1.0000
  H   H125      1.0  0.62436  0.58469  0.78441  1.0000
  H   H126      1.0  0.8359799999999998  0.76556  0.71075  1.0000
  H   H127      1.0  0.8739799999999999  0.92908  0.70391  1.0000
  H   H128      1.0  0.70215  0.63735  0.8977800000000001  1.0000
  H   H129      1.0  0.83552  0.81267  0.66389  1.0000
  H   H130      1.0  0.66267  0.70166  0.81549  1.0000
  H   H131      1.0  0.79766  0.88331  0.70329  1.0000
  H   H132      1.0  0.7007  0.6305700000000001  0.7810800000000001  1.0000
  H   H133      1.0  0.66216  0.25157  0.23155  1.0000
  H   H134      1.0  0.62563  0.40835  0.09933  1.0000
  H   H135      1.0  0.7984099999999997  0.11501  0.41364  1.0000
  H   H136      1.0  0.87475  0.06923  0.41251000000000004  1.0000
  H   H137      1.0  0.62436  0.41531  0.21559000000000003  1.0000
  H   H138      1.0  0.8359799999999998  0.23442999999999997  0.28925  1.0000
  H   H139      1.0  0.8739799999999999  0.07091  0.29609  1.0000
  H   H140      1.0  0.70215  0.36265  0.10222000000000002  1.0000
  H   H141      1.0  0.83552  0.18733  0.33611  1.0000
  H   H142      1.0  0.66267  0.29834  0.18451  1.0000
  H   H143      1.0  0.79766  0.11669  0.2967  1.0000
  H   H144      1.0  0.7007  0.3694200000000001  0.21891000000000002  1.0000
  H   H145      1.0  0.8378399999999998  0.73155  0.75157  1.0000
  H   H146      1.0  0.87437  0.59933  0.9083500000000001  1.0000
  H   H147      1.0  0.7016  0.9136400000000001  0.6150000000000001  1.0000
  H   H148      1.0  0.62525  0.91251  0.56923  1.0000
  H   H149      1.0  0.87564  0.71559  0.9153100000000001  1.0000
  H   H150      1.0  0.66402  0.78924  0.7344300000000001  1.0000
  H   H151      1.0  0.62602  0.79608  0.57091  1.0000
  H   H152      1.0  0.7978499999999998  0.60222  0.8626500000000001  1.0000
  H   H153      1.0  0.6644799999999998  0.83611  0.68732  1.0000
  H   H154      1.0  0.8373299999999998  0.68451  0.79834  1.0000
  H   H155      1.0  0.7023399999999999  0.7967  0.61668  1.0000
  H   H156      1.0  0.7992999999999999  0.71891  0.86942  1.0000
  H   H157      1.0  0.8378399999999998  0.26845  0.24842999999999998  1.0000
  H   H158      1.0  0.87437  0.40067  0.09165  1.0000
  H   H159      1.0  0.7016  0.08636  0.38499000000000005  1.0000
  H   H160      1.0  0.62525  0.08749  0.43077  1.0000
  H   H161      1.0  0.87564  0.28441  0.08469  1.0000
  H   H162      1.0  0.66402  0.21075  0.26557  1.0000
  H   H163      1.0  0.62602  0.20391  0.42908  1.0000
  H   H164      1.0  0.7978499999999998  0.39778  0.13735  1.0000
  H   H165      1.0  0.6644799999999998  0.16389  0.31267  1.0000
  H   H166      1.0  0.8373299999999998  0.31549  0.20166  1.0000
  H   H167      1.0  0.7023399999999999  0.20329  0.38331  1.0000
  H   H168      1.0  0.7992999999999999  0.28109  0.13058  1.0000
  H   H169      1.0  0.8378399999999998  0.75157  0.26845  1.0000
  H   H170      1.0  0.87437  0.9083500000000001  0.40067  1.0000
  H   H171      1.0  0.7016  0.6150000000000001  0.08636  1.0000
  H   H172      1.0  0.62525  0.56923  0.08749  1.0000
  H   H173      1.0  0.87564  0.9153100000000001  0.28441  1.0000
  H   H174      1.0  0.66402  0.7344300000000001  0.21075  1.0000
  H   H175      1.0  0.62602  0.57091  0.20391  1.0000
  H   H176      1.0  0.7978499999999998  0.8626500000000001  0.39778  1.0000
  H   H177      1.0  0.6644799999999998  0.68732  0.16389  1.0000
  H   H178      1.0  0.8373299999999998  0.79834  0.31549  1.0000
  H   H179      1.0  0.7023399999999999  0.61668  0.20329  1.0000
  H   H180      1.0  0.7992999999999999  0.86942  0.28109  1.0000
  H   H181      1.0  0.8378399999999998  0.24842999999999998  0.73155  1.0000
  H   H182      1.0  0.87437  0.09165  0.59933  1.0000
  H   H183      1.0  0.7016  0.38499000000000005  0.9136400000000001  1.0000
  H   H184      1.0  0.62525  0.43077  0.91251  1.0000
  H   H185      1.0  0.87564  0.08469  0.71559  1.0000
  H   H186      1.0  0.66402  0.26557  0.78924  1.0000
  H   H187      1.0  0.62602  0.42908  0.79608  1.0000
  H   H188      1.0  0.7978499999999998  0.13735  0.60222  1.0000
  H   H189      1.0  0.6644799999999998  0.31267  0.83611  1.0000
  H   H190      1.0  0.8373299999999998  0.20166  0.68451  1.0000
  H   H191      1.0  0.7023399999999999  0.38331  0.7967  1.0000
  H   H192      1.0  0.7992999999999999  0.13058  0.71891  1.0000
  C   C1        1.0  0.29882999999999993  0.2256  0.73481  1.0000
  C   C2        1.0  0.37964999999999993  0.15725  0.58535  1.0000
  C   C3        1.0  0.29372999999999994  0.16079  0.63685  1.0000
  C   C4        1.0  0.35739999999999994  0.1253  0.60026  1.0000
  C   C5        1.0  0.20716  0.35516000000000003  0.8812399999999999  1.0000
  C   C6        1.0  0.12091999999999999  0.35424  0.93283  1.0000
  C   C7        1.0  0.18528999999999995  0.38794  0.89484  1.0000
  C   C8        1.0  0.14273  0.38735  0.92037  1.0000
  C   C9        1.0  0.35863999999999996  0.191  0.59665  1.0000
  C   C10       1.0  0.2021  0.29362  0.7808  1.0000
  C   C11       1.0  0.14268  0.32162  0.91907  1.0000
  C   C12       1.0  0.31497  0.12695000000000004  0.62575  1.0000
  C   C13       1.0  0.20190999999999998  0.32042  0.80744  1.0000
  C   C14       1.0  0.29905999999999994  0.19876  0.70822  1.0000
  C   C15       1.0  0.18524999999999997  0.32197  0.8936800000000001  1.0000
  C   C16       1.0  0.31616  0.19285  0.62214  1.0000
  C   C17       1.0  0.42445  0.15531  0.5577100000000002  1.0000
  C   C18       1.0  0.07584999999999999  0.35319  0.9603  1.0000
  C   C19       1.0  0.29882999999999993  0.7744  0.26518  1.0000
  C   C20       1.0  0.37964999999999993  0.84274  0.41465  1.0000
  C   C21       1.0  0.29372999999999994  0.8392  0.36315  1.0000
  C   C22       1.0  0.35739999999999994  0.8747  0.39974  1.0000
  C   C23       1.0  0.20716  0.64484  0.11875  1.0000
  C   C24       1.0  0.12091999999999999  0.64576  0.06716  1.0000
  C   C25       1.0  0.18528999999999995  0.61206  0.10515  1.0000
  C   C26       1.0  0.14273  0.61265  0.07962  1.0000
  C   C27       1.0  0.35863999999999996  0.8089900000000001  0.40334  1.0000
  C   C28       1.0  0.2021  0.70638  0.21919999999999998  1.0000
  C   C29       1.0  0.14268  0.67837  0.08093000000000002  1.0000
  C   C30       1.0  0.31497  0.8730400000000001  0.37424  1.0000
  C   C31       1.0  0.20190999999999998  0.67957  0.19256000000000004  1.0000
  C   C32       1.0  0.29905999999999994  0.80124  0.29177  1.0000
  C   C33       1.0  0.18524999999999997  0.67802  0.10631  1.0000
  C   C34       1.0  0.31616  0.80714  0.37785  1.0000
  C   C35       1.0  0.42445  0.8446900000000002  0.44229  1.0000
  C   C36       1.0  0.07584999999999999  0.6468  0.0397  1.0000
  C   C37       1.0  0.29882999999999993  0.26518  0.2256  1.0000
  C   C38       1.0  0.37964999999999993  0.41465  0.15725  1.0000
  C   C39       1.0  0.29372999999999994  0.36315  0.16079  1.0000
  C   C40       1.0  0.35739999999999994  0.39974  0.1253  1.0000
  C   C41       1.0  0.20716  0.11875  0.35516000000000003  1.0000
  C   C42       1.0  0.12091999999999999  0.06716  0.35424  1.0000
  C   C43       1.0  0.18528999999999995  0.10515  0.38794  1.0000
  C   C44       1.0  0.14273  0.07962  0.38735  1.0000
  C   C45       1.0  0.35863999999999996  0.40334  0.191  1.0000
  C   C46       1.0  0.2021  0.21919999999999998  0.29362  1.0000
  C   C47       1.0  0.14268  0.08093000000000002  0.32162  1.0000
  C   C48       1.0  0.31497  0.37424  0.12695000000000004  1.0000
  C   C49       1.0  0.20190999999999998  0.19256000000000004  0.32042  1.0000
  C   C50       1.0  0.29905999999999994  0.29177  0.19876  1.0000
  C   C51       1.0  0.18524999999999997  0.10631  0.32197  1.0000
  C   C52       1.0  0.31616  0.37785  0.19285  1.0000
  C   C53       1.0  0.42445  0.44229  0.15531  1.0000
  C   C54       1.0  0.07584999999999999  0.0397  0.35319  1.0000
  C   C55       1.0  0.29882999999999993  0.73481  0.7744  1.0000
  C   C56       1.0  0.37964999999999993  0.58535  0.84274  1.0000
  C   C57       1.0  0.29372999999999994  0.63685  0.8392  1.0000
  C   C58       1.0  0.35739999999999994  0.60026  0.8747  1.0000
  C   C59       1.0  0.20716  0.8812399999999999  0.64484  1.0000
  C   C60       1.0  0.12091999999999999  0.93283  0.64576  1.0000
  C   C61       1.0  0.18528999999999995  0.89484  0.61206  1.0000
  C   C62       1.0  0.14273  0.92037  0.61265  1.0000
  C   C63       1.0  0.35863999999999996  0.59665  0.8089900000000001  1.0000
  C   C64       1.0  0.2021  0.7808  0.70638  1.0000
  C   C65       1.0  0.14268  0.91907  0.67837  1.0000
  C   C66       1.0  0.31497  0.62575  0.8730400000000001  1.0000
  C   C67       1.0  0.20190999999999998  0.80744  0.67957  1.0000
  C   C68       1.0  0.29905999999999994  0.70822  0.80124  1.0000
  C   C69       1.0  0.18524999999999997  0.8936800000000001  0.67802  1.0000
  C   C70       1.0  0.31616  0.62214  0.80714  1.0000
  C   C71       1.0  0.42445  0.5577100000000002  0.8446900000000002  1.0000
  C   C72       1.0  0.07584999999999999  0.9603  0.6468  1.0000
  C   C73       1.0  0.20117  0.2744  0.23481  1.0000
  C   C74       1.0  0.12035  0.34275  0.08535  1.0000
  C   C75       1.0  0.20627  0.3392  0.13685  1.0000
  C   C76       1.0  0.1426  0.3747  0.10026  1.0000
  C   C77       1.0  0.29283999999999993  0.14484  0.38125  1.0000
  C   C78       1.0  0.37908  0.14576  0.43283  1.0000
  C   C79       1.0  0.31471  0.11206000000000002  0.39485000000000003  1.0000
  C   C80       1.0  0.3572699999999999  0.11265  0.4203700000000001  1.0000
  C   C81       1.0  0.14136  0.30900000000000005  0.09665  1.0000
  C   C82       1.0  0.29789999999999994  0.20638  0.28080000000000005  1.0000
  C   C83       1.0  0.35731999999999997  0.17838  0.41907000000000005  1.0000
  C   C84       1.0  0.18502999999999994  0.37305  0.12575  1.0000
  C   C85       1.0  0.29808999999999997  0.17958  0.30744  1.0000
  C   C86       1.0  0.20094  0.30124  0.20823  1.0000
  C   C87       1.0  0.31475  0.17802  0.39368  1.0000
  C   C88       1.0  0.18384  0.30715  0.12214000000000001  1.0000
  C   C89       1.0  0.07554999999999999  0.34469  0.05771  1.0000
  C   C90       1.0  0.4241499999999999  0.14681  0.4603  1.0000
  C   C91       1.0  0.20117  0.72559  0.76518  1.0000
  C   C92       1.0  0.12035  0.65725  0.9146400000000001  1.0000
  C   C93       1.0  0.20627  0.66079  0.86315  1.0000
  C   C94       1.0  0.1426  0.6253  0.8997400000000001  1.0000
  C   C95       1.0  0.29283999999999993  0.85516  0.6187500000000001  1.0000
  C   C96       1.0  0.37908  0.8542300000000002  0.56716  1.0000
  C   C97       1.0  0.31471  0.88793  0.60515  1.0000
  C   C98       1.0  0.3572699999999999  0.8873499999999999  0.57962  1.0000
  C   C99       1.0  0.14136  0.691  0.90334  1.0000
  C   C100      1.0  0.29789999999999994  0.79361  0.7192  1.0000
  C   C101      1.0  0.35731999999999997  0.8216200000000001  0.5809200000000001  1.0000
  C   C102      1.0  0.18502999999999994  0.62695  0.87424  1.0000
  C   C103      1.0  0.29808999999999997  0.82042  0.6925600000000001  1.0000
  C   C104      1.0  0.20094  0.69876  0.79177  1.0000
  C   C105      1.0  0.31475  0.82197  0.60631  1.0000
  C   C106      1.0  0.18384  0.6928500000000001  0.8778500000000001  1.0000
  C   C107      1.0  0.07554999999999999  0.65531  0.9422900000000001  1.0000
  C   C108      1.0  0.4241499999999999  0.85319  0.53969  1.0000
  C   C109      1.0  0.20117  0.23481  0.72559  1.0000
  C   C110      1.0  0.12035  0.08535  0.65725  1.0000
  C   C111      1.0  0.20627  0.13685  0.66079  1.0000
  C   C112      1.0  0.1426  0.10026  0.6253  1.0000
  C   C113      1.0  0.29283999999999993  0.38125  0.85516  1.0000
  C   C114      1.0  0.37908  0.43283  0.8542300000000002  1.0000
  C   C115      1.0  0.31471  0.39485000000000003  0.88793  1.0000
  C   C116      1.0  0.3572699999999999  0.4203700000000001  0.8873499999999999  1.0000
  C   C117      1.0  0.14136  0.09665  0.691  1.0000
  C   C118      1.0  0.29789999999999994  0.28080000000000005  0.79361  1.0000
  C   C119      1.0  0.35731999999999997  0.41907000000000005  0.8216200000000001  1.0000
  C   C120      1.0  0.18502999999999994  0.12575  0.62695  1.0000
  C   C121      1.0  0.29808999999999997  0.30744  0.82042  1.0000
  C   C122      1.0  0.20094  0.20823  0.69876  1.0000
  C   C123      1.0  0.31475  0.39368  0.82197  1.0000
  C   C124      1.0  0.18384  0.12214000000000001  0.6928500000000001  1.0000
  C   C125      1.0  0.07554999999999999  0.05771  0.65531  1.0000
  C   C126      1.0  0.4241499999999999  0.4603  0.85319  1.0000
  C   C127      1.0  0.20117  0.76518  0.2744  1.0000
  C   C128      1.0  0.12035  0.9146400000000001  0.34275  1.0000
  C   C129      1.0  0.20627  0.86315  0.3392  1.0000
  C   C130      1.0  0.1426  0.8997400000000001  0.3747  1.0000
  C   C131      1.0  0.29283999999999993  0.6187500000000001  0.14484  1.0000
  C   C132      1.0  0.37908  0.56716  0.14576  1.0000
  C   C133      1.0  0.31471  0.60515  0.11206000000000002  1.0000
  C   C134      1.0  0.3572699999999999  0.57962  0.11265  1.0000
  C   C135      1.0  0.14136  0.90334  0.30900000000000005  1.0000
  C   C136      1.0  0.29789999999999994  0.7192  0.20638  1.0000
  C   C137      1.0  0.35731999999999997  0.5809200000000001  0.17838  1.0000
  C   C138      1.0  0.18502999999999994  0.87424  0.37305  1.0000
  C   C139      1.0  0.29808999999999997  0.6925600000000001  0.17958  1.0000
  C   C140      1.0  0.20094  0.79177  0.30124  1.0000
  C   C141      1.0  0.31475  0.60631  0.17802  1.0000
  C   C142      1.0  0.18384  0.8778500000000001  0.30715  1.0000
  C   C143      1.0  0.07554999999999999  0.9422900000000001  0.34469  1.0000
  C   C144      1.0  0.4241499999999999  0.53969  0.14681  1.0000
  C   C145      1.0  0.7011699999999998  0.7744  0.26518  1.0000
  C   C146      1.0  0.62035  0.84274  0.41465  1.0000
  C   C147      1.0  0.70627  0.8392  0.36315  1.0000
  C   C148      1.0  0.6426  0.8747  0.39974  1.0000
  C   C149      1.0  0.7928399999999998  0.64484  0.11875  1.0000
  C   C150      1.0  0.87908  0.64576  0.06716  1.0000
  C   C151      1.0  0.81471  0.61206  0.10515  1.0000
  C   C152      1.0  0.85727  0.61265  0.07962  1.0000
  C   C153      1.0  0.6413599999999999  0.8089900000000001  0.40334  1.0000
  C   C154      1.0  0.7979  0.70638  0.21919999999999998  1.0000
  C   C155      1.0  0.8573199999999999  0.67837  0.08093000000000002  1.0000
  C   C156      1.0  0.68504  0.8730400000000001  0.37424  1.0000
  C   C157      1.0  0.7980899999999999  0.67957  0.19256000000000004  1.0000
  C   C158      1.0  0.70094  0.80124  0.29177  1.0000
  C   C159      1.0  0.81475  0.67802  0.10631  1.0000
  C   C160      1.0  0.68384  0.80714  0.37785  1.0000
  C   C161      1.0  0.57555  0.8446900000000002  0.44229  1.0000
  C   C162      1.0  0.92415  0.6468  0.0397  1.0000
  C   C163      1.0  0.7011699999999998  0.2256  0.73481  1.0000
  C   C164      1.0  0.62035  0.15725  0.58535  1.0000
  C   C165      1.0  0.70627  0.16079  0.63685  1.0000
  C   C166      1.0  0.6426  0.1253  0.60026  1.0000
  C   C167      1.0  0.7928399999999998  0.35516000000000003  0.8812399999999999  1.0000
  C   C168      1.0  0.87908  0.35424  0.93283  1.0000
  C   C169      1.0  0.81471  0.38794  0.89484  1.0000
  C   C170      1.0  0.85727  0.38735  0.92037  1.0000
  C   C171      1.0  0.6413599999999999  0.191  0.59665  1.0000
  C   C172      1.0  0.7979  0.29362  0.7808  1.0000
  C   C173      1.0  0.8573199999999999  0.32162  0.91907  1.0000
  C   C174      1.0  0.68504  0.12695000000000004  0.62575  1.0000
  C   C175      1.0  0.7980899999999999  0.32042  0.80744  1.0000
  C   C176      1.0  0.70094  0.19876  0.70822  1.0000
  C   C177      1.0  0.81475  0.32197  0.8936800000000001  1.0000
  C   C178      1.0  0.68384  0.19285  0.62214  1.0000
  C   C179      1.0  0.57555  0.15531  0.5577100000000002  1.0000
  C   C180      1.0  0.92415  0.35319  0.9603  1.0000
  C   C181      1.0  0.7011699999999998  0.73481  0.7744  1.0000
  C   C182      1.0  0.62035  0.58535  0.84274  1.0000
  C   C183      1.0  0.70627  0.63685  0.8392  1.0000
  C   C184      1.0  0.6426  0.60026  0.8747  1.0000
  C   C185      1.0  0.7928399999999998  0.8812399999999999  0.64484  1.0000
  C   C186      1.0  0.87908  0.93283  0.64576  1.0000
  C   C187      1.0  0.81471  0.89484  0.61206  1.0000
  C   C188      1.0  0.85727  0.92037  0.61265  1.0000
  C   C189      1.0  0.6413599999999999  0.59665  0.8089900000000001  1.0000
  C   C190      1.0  0.7979  0.7808  0.70638  1.0000
  C   C191      1.0  0.8573199999999999  0.91907  0.67837  1.0000
  C   C192      1.0  0.68504  0.62575  0.8730400000000001  1.0000
  C   C193      1.0  0.7980899999999999  0.80744  0.67957  1.0000
  C   C194      1.0  0.70094  0.70822  0.80124  1.0000
  C   C195      1.0  0.81475  0.8936800000000001  0.67802  1.0000
  C   C196      1.0  0.68384  0.62214  0.80714  1.0000
  C   C197      1.0  0.57555  0.5577100000000002  0.8446900000000002  1.0000
  C   C198      1.0  0.92415  0.9603  0.6468  1.0000
  C   C199      1.0  0.7011699999999998  0.26518  0.2256  1.0000
  C   C200      1.0  0.62035  0.41465  0.15725  1.0000
  C   C201      1.0  0.70627  0.36315  0.16079  1.0000
  C   C202      1.0  0.6426  0.39974  0.1253  1.0000
  C   C203      1.0  0.7928399999999998  0.11875  0.35516000000000003  1.0000
  C   C204      1.0  0.87908  0.06716  0.35424  1.0000
  C   C205      1.0  0.81471  0.10515  0.38794  1.0000
  C   C206      1.0  0.85727  0.07962  0.38735  1.0000
  C   C207      1.0  0.6413599999999999  0.40334  0.191  1.0000
  C   C208      1.0  0.7979  0.21919999999999998  0.29362  1.0000
  C   C209      1.0  0.8573199999999999  0.08093000000000002  0.32162  1.0000
  C   C210      1.0  0.68504  0.37424  0.12695000000000004  1.0000
  C   C211      1.0  0.7980899999999999  0.19256000000000004  0.32042  1.0000
  C   C212      1.0  0.70094  0.29177  0.19876  1.0000
  C   C213      1.0  0.81475  0.10631  0.32197  1.0000
  C   C214      1.0  0.68384  0.37785  0.19285  1.0000
  C   C215      1.0  0.57555  0.44229  0.15531  1.0000
  C   C216      1.0  0.92415  0.0397  0.35319  1.0000
  C   C217      1.0  0.79883  0.72559  0.76518  1.0000
  C   C218      1.0  0.87965  0.65725  0.9146400000000001  1.0000
  C   C219      1.0  0.7937299999999998  0.66079  0.86315  1.0000
  C   C220      1.0  0.8574  0.6253  0.8997400000000001  1.0000
  C   C221      1.0  0.70716  0.85516  0.6187500000000001  1.0000
  C   C222      1.0  0.62093  0.8542300000000002  0.56716  1.0000
  C   C223      1.0  0.6852899999999997  0.88793  0.60515  1.0000
  C   C224      1.0  0.64273  0.8873499999999999  0.57962  1.0000
  C   C225      1.0  0.8586399999999998  0.691  0.90334  1.0000
  C   C226      1.0  0.7020999999999998  0.79361  0.7192  1.0000
  C   C227      1.0  0.6426799999999999  0.8216200000000001  0.5809200000000001  1.0000
  C   C228      1.0  0.81497  0.62695  0.87424  1.0000
  C   C229      1.0  0.70191  0.82042  0.6925600000000001  1.0000
  C   C230      1.0  0.7990599999999998  0.69876  0.79177  1.0000
  C   C231      1.0  0.6852499999999999  0.82197  0.60631  1.0000
  C   C232      1.0  0.81616  0.6928500000000001  0.8778500000000001  1.0000
  C   C233      1.0  0.9244499999999999  0.65531  0.9422900000000001  1.0000
  C   C234      1.0  0.57585  0.85319  0.53969  1.0000
  C   C235      1.0  0.79883  0.2744  0.23481  1.0000
  C   C236      1.0  0.87965  0.34275  0.08535  1.0000
  C   C237      1.0  0.7937299999999998  0.3392  0.13685  1.0000
  C   C238      1.0  0.8574  0.3747  0.10026  1.0000
  C   C239      1.0  0.70716  0.14484  0.38125  1.0000
  C   C240      1.0  0.62093  0.14576  0.43283  1.0000
  C   C241      1.0  0.6852899999999997  0.11206000000000002  0.39485000000000003  1.0000
  C   C242      1.0  0.64273  0.11265  0.4203700000000001  1.0000
  C   C243      1.0  0.8586399999999998  0.30900000000000005  0.09665  1.0000
  C   C244      1.0  0.7020999999999998  0.20638  0.28080000000000005  1.0000
  C   C245      1.0  0.6426799999999999  0.17838  0.41907000000000005  1.0000
  C   C246      1.0  0.81497  0.37305  0.12575  1.0000
  C   C247      1.0  0.70191  0.17958  0.30744  1.0000
  C   C248      1.0  0.7990599999999998  0.30124  0.20823  1.0000
  C   C249      1.0  0.6852499999999999  0.17802  0.39368  1.0000
  C   C250      1.0  0.81616  0.30715  0.12214000000000001  1.0000
  C   C251      1.0  0.9244499999999999  0.34469  0.05771  1.0000
  C   C252      1.0  0.57585  0.14681  0.4603  1.0000
  C   C253      1.0  0.79883  0.76518  0.2744  1.0000
  C   C254      1.0  0.87965  0.9146500000000001  0.34275  1.0000
  C   C255      1.0  0.7937299999999998  0.86315  0.3392  1.0000
  C   C256      1.0  0.8574  0.8997400000000001  0.3747  1.0000
  C   C257      1.0  0.70716  0.6187500000000001  0.14484  1.0000
  C   C258      1.0  0.62093  0.56716  0.14576  1.0000
  C   C259      1.0  0.6852899999999997  0.60515  0.11206000000000002  1.0000
  C   C260      1.0  0.64273  0.57962  0.11265  1.0000
  C   C261      1.0  0.8586399999999998  0.90334  0.30900000000000005  1.0000
  C   C262      1.0  0.7020999999999998  0.7192  0.20638  1.0000
  C   C263      1.0  0.6426799999999999  0.5809200000000001  0.17838  1.0000
  C   C264      1.0  0.81497  0.87424  0.37305  1.0000
  C   C265      1.0  0.70191  0.6925600000000001  0.17958  1.0000
  C   C266      1.0  0.7990599999999998  0.79177  0.30124  1.0000
  C   C267      1.0  0.6852499999999999  0.60631  0.17802  1.0000
  C   C268      1.0  0.81616  0.8778500000000001  0.30715  1.0000
  C   C269      1.0  0.9244499999999999  0.9422900000000001  0.34469  1.0000
  C   C270      1.0  0.57585  0.53969  0.14681  1.0000
  C   C271      1.0  0.79883  0.23481  0.72559  1.0000
  C   C272      1.0  0.87965  0.08535  0.65725  1.0000
  C   C273      1.0  0.7937299999999998  0.13685  0.66079  1.0000
  C   C274      1.0  0.8574  0.10026  0.6253  1.0000
  C   C275      1.0  0.70716  0.38125  0.85516  1.0000
  C   C276      1.0  0.62093  0.43283  0.8542300000000002  1.0000
  C   C277      1.0  0.6852899999999997  0.39485000000000003  0.88793  1.0000
  C   C278      1.0  0.64273  0.4203700000000001  0.8873499999999999  1.0000
  C   C279      1.0  0.8586399999999998  0.09665  0.691  1.0000
  C   C280      1.0  0.7020999999999998  0.28080000000000005  0.79361  1.0000
  C   C281      1.0  0.6426799999999999  0.41907000000000005  0.8216200000000001  1.0000
  C   C282      1.0  0.81497  0.12575  0.62695  1.0000
  C   C283      1.0  0.70191  0.30744  0.82042  1.0000
  C   C284      1.0  0.7990599999999998  0.20823  0.69876  1.0000
  C   C285      1.0  0.6852499999999999  0.39368  0.82197  1.0000
  C   C286      1.0  0.81616  0.12214000000000001  0.6928500000000001  1.0000
  C   C287      1.0  0.9244499999999999  0.05771  0.65531  1.0000
  C   C288      1.0  0.57585  0.4603  0.85319  1.0000
  C   C289      1.0  0.24999999999999994  0.32765  0.82765  1.0000
  C   C290      1.0  0.24999999999999994  0.27294  0.77294  1.0000
  C   C291      1.0  0.24999999999999994  0.24448  0.74448  1.0000
  C   C292      1.0  0.24999999999999994  0.18973  0.68973  1.0000
  C   C293      1.0  0.24999999999999994  0.6723500000000001  0.17235  1.0000
  C   C294      1.0  0.24999999999999994  0.72705  0.22705  1.0000
  C   C295      1.0  0.24999999999999994  0.75551  0.25552  1.0000
  C   C296      1.0  0.24999999999999994  0.81027  0.31027  1.0000
  C   C297      1.0  0.24999999999999994  0.17235  0.32765  1.0000
  C   C298      1.0  0.24999999999999994  0.22705  0.27294  1.0000
  C   C299      1.0  0.24999999999999994  0.25552  0.24448  1.0000
  C   C300      1.0  0.24999999999999994  0.31027  0.18973  1.0000
  C   C301      1.0  0.24999999999999994  0.82765  0.6723500000000001  1.0000
  C   C302      1.0  0.24999999999999994  0.77294  0.72705  1.0000
  C   C303      1.0  0.24999999999999994  0.74448  0.75551  1.0000
  C   C304      1.0  0.24999999999999994  0.68973  0.81027  1.0000
  C   C305      1.0  0.75  0.6723500000000001  0.17235  1.0000
  C   C306      1.0  0.75  0.72705  0.22705  1.0000
  C   C307      1.0  0.75  0.75551  0.25552  1.0000
  C   C308      1.0  0.75  0.81027  0.31027  1.0000
  C   C309      1.0  0.75  0.32765  0.82765  1.0000
  C   C310      1.0  0.75  0.27294  0.77294  1.0000
  C   C311      1.0  0.75  0.24448  0.74448  1.0000
  C   C312      1.0  0.75  0.18973  0.68973  1.0000
  C   C313      1.0  0.75  0.82765  0.6723500000000001  1.0000
  C   C314      1.0  0.75  0.77294  0.72705  1.0000
  C   C315      1.0  0.75  0.74448  0.75551  1.0000
  C   C316      1.0  0.75  0.68973  0.81027  1.0000
  C   C317      1.0  0.75  0.17235  0.32765  1.0000
  C   C318      1.0  0.75  0.22705  0.27294  1.0000
  C   C319      1.0  0.75  0.25552  0.24448  1.0000
  C   C320      1.0  0.75  0.31027  0.18973  1.0000
  N   N1        1.0  0.24999999999999994  0.35502  0.85502  1.0000
  N   N2        1.0  0.24999999999999994  0.16247  0.66247  1.0000
  N   N3        1.0  0.24999999999999994  0.64498  0.14498  1.0000
  N   N4        1.0  0.24999999999999994  0.83753  0.33753000000000005  1.0000
  N   N5        1.0  0.24999999999999994  0.14498  0.35502  1.0000
  N   N6        1.0  0.24999999999999994  0.33753000000000005  0.16247  1.0000
  N   N7        1.0  0.24999999999999994  0.85502  0.64498  1.0000
  N   N8        1.0  0.24999999999999994  0.66247  0.83753  1.0000
  N   N9        1.0  0.75  0.64498  0.14498  1.0000
  N   N10       1.0  0.75  0.83753  0.33753000000000005  1.0000
  N   N11       1.0  0.75  0.35502  0.85502  1.0000
  N   N12       1.0  0.75  0.16247  0.66247  1.0000
  N   N13       1.0  0.75  0.85502  0.64498  1.0000
  N   N14       1.0  0.75  0.66247  0.83753  1.0000
  N   N15       1.0  0.75  0.14498  0.35502  1.0000
  N   N16       1.0  0.75  0.33753000000000005  0.16247  1.0000
  O   O1        1.0  0.44201  0.1855  0.54464  1.0000
  O   O2        1.0  0.05820999999999999  0.38355  0.9729700000000001  1.0000
  O   O3        1.0  0.44187  0.12359000000000002  0.5488  1.0000
  O   O4        1.0  0.058029999999999984  0.32160000000000005  0.96937  1.0000
  O   O5        1.0  0.44201  0.81449  0.45535  1.0000
  O   O6        1.0  0.05820999999999999  0.61645  0.027020000000000006  1.0000
  O   O7        1.0  0.44187  0.87641  0.4512  1.0000
  O   O8        1.0  0.058029999999999984  0.67839  0.030630000000000004  1.0000
  O   O9        1.0  0.44201  0.45535  0.1855  1.0000
  O   O10       1.0  0.05820999999999999  0.027020000000000006  0.38355  1.0000
  O   O11       1.0  0.44187  0.4512  0.12359000000000002  1.0000
  O   O12       1.0  0.058029999999999984  0.030630000000000004  0.32160000000000005  1.0000
  O   O13       1.0  0.44201  0.54464  0.8145000000000001  1.0000
  O   O14       1.0  0.05820999999999999  0.9729700000000001  0.61645  1.0000
  O   O15       1.0  0.44187  0.5488  0.87641  1.0000
  O   O16       1.0  0.058029999999999984  0.96937  0.67839  1.0000
  O   O17       1.0  0.05799  0.3145  0.04464  1.0000
  O   O18       1.0  0.44179  0.11645  0.47298000000000007  1.0000
  O   O19       1.0  0.05813  0.37641  0.0488  1.0000
  O   O20       1.0  0.4419699999999999  0.17839  0.46937000000000006  1.0000
  O   O21       1.0  0.05799  0.6855  0.95535  1.0000
  O   O22       1.0  0.44179  0.88355  0.52702  1.0000
  O   O23       1.0  0.05813  0.62358  0.95119  1.0000
  O   O24       1.0  0.4419699999999999  0.8216  0.53063  1.0000
  O   O25       1.0  0.05799  0.04464  0.6855  1.0000
  O   O26       1.0  0.44179  0.47298000000000007  0.88355  1.0000
  O   O27       1.0  0.05813  0.0488  0.62358  1.0000
  O   O28       1.0  0.4419699999999999  0.46937000000000006  0.8216  1.0000
  O   O29       1.0  0.05799  0.95535  0.3145  1.0000
  O   O30       1.0  0.44179  0.52702  0.11645  1.0000
  O   O31       1.0  0.05813  0.95119  0.37641  1.0000
  O   O32       1.0  0.4419699999999999  0.53063  0.17839  1.0000
  O   O33       1.0  0.5579899999999999  0.81449  0.45535  1.0000
  O   O34       1.0  0.9417899999999999  0.61645  0.027020000000000006  1.0000
  O   O35       1.0  0.55813  0.87641  0.4512  1.0000
  O   O36       1.0  0.9419699999999998  0.67839  0.030630000000000004  1.0000
  O   O37       1.0  0.5579899999999999  0.1855  0.54464  1.0000
  O   O38       1.0  0.9417899999999999  0.38355  0.9729700000000001  1.0000
  O   O39       1.0  0.55813  0.12359000000000002  0.5488  1.0000
  O   O40       1.0  0.9419699999999998  0.32160000000000005  0.96937  1.0000
  O   O41       1.0  0.5579899999999999  0.54464  0.8145000000000001  1.0000
  O   O42       1.0  0.9417899999999999  0.9729700000000001  0.61645  1.0000
  O   O43       1.0  0.55813  0.5488  0.87641  1.0000
  O   O44       1.0  0.9419699999999998  0.96937  0.67839  1.0000
  O   O45       1.0  0.5579899999999999  0.45535  0.1855  1.0000
  O   O46       1.0  0.9417899999999999  0.027020000000000006  0.38355  1.0000
  O   O47       1.0  0.55813  0.4512  0.12359000000000002  1.0000
  O   O48       1.0  0.9419699999999998  0.030630000000000004  0.32160000000000005  1.0000
  O   O49       1.0  0.94201  0.6855  0.95535  1.0000
  O   O50       1.0  0.55821  0.88355  0.52702  1.0000
  O   O51       1.0  0.94187  0.62358  0.95119  1.0000
  O   O52       1.0  0.55803  0.8216  0.53063  1.0000
  O   O53       1.0  0.94201  0.3145  0.04464  1.0000
  O   O54       1.0  0.55821  0.11645  0.47298000000000007  1.0000
  O   O55       1.0  0.94187  0.37641  0.0488  1.0000
  O   O56       1.0  0.55803  0.17839  0.46937000000000006  1.0000
  O   O57       1.0  0.94201  0.95535  0.3145  1.0000
  O   O58       1.0  0.55821  0.52702  0.11645  1.0000
  O   O59       1.0  0.94187  0.95119  0.37641  1.0000
  O   O60       1.0  0.55803  0.53063  0.17839  1.0000
  O   O61       1.0  0.94201  0.04464  0.6855  1.0000
  O   O62       1.0  0.55821  0.47298000000000007  0.88355  1.0000
  O   O63       1.0  0.94187  0.0488  0.62358  1.0000
  O   O64       1.0  0.55803  0.46937000000000006  0.8216  1.0000
