data_image0
_chemical_formula_structural       Co12H144C240N24O76
_chemical_formula_sum              "Co12 H144 C240 N24 O76"
_cell_length_a       13.87534
_cell_length_b       21.71828
_cell_length_c       34.65848
_cell_angle_alpha    89.95261000000002
_cell_angle_beta     95.21227
_cell_angle_gamma    90.02368

_space_group_name_H-M_alt    "P 1"
_space_group_IT_number       1

loop_
  _space_group_symop_operation_xyz
  'x, y, z'

loop_
  _atom_site_type_symbol
  _atom_site_label
  _atom_site_symmetry_multiplicity
  _atom_site_fract_x
  _atom_site_fract_y
  _atom_site_fract_z
  _atom_site_occupancy
  Co  Co1       1.0  0.47567  0.50697  0.85413  1.0000
  Co  Co2       1.0  0.30554  0.57455  0.82038  1.0000
  Co  Co3       1.0  0.28578000000000003  0.4251599999999999  0.8357500000000001  1.0000
  Co  Co4       1.0  0.9741899999999999  0.99341  0.3544  1.0000
  Co  Co5       1.0  0.8031200000000002  0.92592  0.3203300000000001  1.0000
  Co  Co6       1.0  0.78501  0.07515  0.33579  1.0000
  Co  Co7       1.0  0.02579  0.00692  0.64588  1.0000
  Co  Co8       1.0  0.19647  0.07456  0.68024  1.0000
  Co  Co9       1.0  0.21472999999999998  0.92501  0.66438  1.0000
  Co  Co10      1.0  0.5247  0.49345999999999995  0.14599  1.0000
  Co  Co11      1.0  0.69468  0.42527000000000004  0.17978  1.0000
  Co  Co12      1.0  0.7146  0.57466  0.16416000000000003  1.0000
  H   H1        1.0  0.7421  0.04043  0.0888  1.0000
  H   H2        1.0  0.50751  0.12160999999999998  0.9361400000000001  1.0000
  H   H3        1.0  0.60844  0.89837  0.014660000000000001  1.0000
  H   H4        1.0  0.58835  0.0346  0.92431  1.0000
  H   H5        1.0  0.65889  0.08949  0.04289000000000001  1.0000
  H   H6        1.0  0.66622  0.85419  0.9570500000000001  1.0000
  H   H7        1.0  0.09661000000000004  0.10732999999999998  0.94318  1.0000
  H   H8        1.0  0.12326  0.82852  0.9939000000000001  1.0000
  H   H9        1.0  0.15636999999999998  0.01887000000000001  0.12088  1.0000
  H   H10       1.0  0.08189  0.88421  0.03425  1.0000
  H   H11       1.0  0.42245  0.1752  0.89056  1.0000
  H   H12       1.0  0.15269000000000002  0.01548  0.9483200000000002  1.0000
  H   H13       1.0  0.3891299999999999  0.27353  0.85491  1.0000
  H   H14       1.0  0.6464499999999999  0.91546  0.14784  1.0000
  H   H15       1.0  0.65478  0.92328  0.21993  1.0000
  H   H16       1.0  0.12474  0.07481  0.06506  1.0000
  H   H17       1.0  0.62869  0.35874  0.92175  1.0000
  H   H18       1.0  0.76251  0.09885999999999999  0.14276  1.0000
  H   H19       1.0  0.14375  0.00949  0.25531  1.0000
  H   H20       1.0  0.76994  0.10625999999999998  0.21474  1.0000
  H   H21       1.0  0.6483199999999999  0.6562  0.90979  1.0000
  H   H22       1.0  0.16305000000000003  0.73021  0.9942900000000001  1.0000
  H   H23       1.0  0.11211999999999996  0.82816  0.88622  1.0000
  H   H24       1.0  0.70106  0.7558000000000001  0.94073  1.0000
  H   H25       1.0  0.15680000000000002  0.73337  0.8509100000000002  1.0000
  H   H26       1.0  0.15274000000000004  0.24506  0.8487500000000001  1.0000
  H   H27       1.0  0.43367  0.8401099999999999  0.89481  1.0000
  H   H28       1.0  0.38227000000000005  0.74055  0.8637800000000001  1.0000
  H   H29       1.0  0.66589  0.25939  0.95649  1.0000
  H   H30       1.0  0.11479  0.15142  0.886  1.0000
  H   H31       1.0  0.22319  0.24106  0.99223  1.0000
  H   H32       1.0  0.21115000000000003  0.63704  0.9585300000000001  1.0000
  H   H33       1.0  0.19986  0.01783  0.18908  1.0000
  H   H34       1.0  0.9199299999999999  0.9555  0.14006  1.0000
  H   H35       1.0  0.26172  0.33471  0.9543600000000001  1.0000
  H   H36       1.0  0.8677299999999999  0.94356  0.20596  1.0000
  H   H37       1.0  0.24052  0.45903  0.5887  1.0000
  H   H38       1.0  0.007450000000000001  0.37846  0.43671  1.0000
  H   H39       1.0  0.10676999999999999  0.60141  0.51428  1.0000
  H   H40       1.0  0.08874  0.46527  0.42402  1.0000
  H   H41       1.0  0.15883  0.4103399999999999  0.54264  1.0000
  H   H42       1.0  0.16469  0.64608  0.45692  1.0000
  H   H43       1.0  0.59741  0.39300999999999997  0.4429  1.0000
  H   H44       1.0  0.62148  0.67235  0.49394  1.0000
  H   H45       1.0  0.6565  0.48093  0.62082  1.0000
  H   H46       1.0  0.5807499999999999  0.61592  0.53383  1.0000
  H   H47       1.0  0.92262  0.32493  0.39075  1.0000
  H   H48       1.0  0.6537999999999999  0.48475  0.44828  1.0000
  H   H49       1.0  0.88932  0.22687  0.35489  1.0000
  H   H50       1.0  0.14605  0.58451  0.64746  1.0000
  H   H51       1.0  0.1549  0.57746  0.71957  1.0000
  H   H52       1.0  0.62462  0.42561  0.56507  1.0000
  H   H53       1.0  0.12845999999999994  0.14124  0.42165  1.0000
  H   H54       1.0  0.26195  0.40129  0.64297  1.0000
  H   H55       1.0  0.64313  0.49079  0.75526  1.0000
  H   H56       1.0  0.26999  0.39421999999999996  0.7149400000000002  1.0000
  H   H57       1.0  0.14473000000000003  0.84415  0.40988  1.0000
  H   H58       1.0  0.66398  0.77001  0.49471  1.0000
  H   H59       1.0  0.61397  0.67357  0.38606  1.0000
  H   H60       1.0  0.19919000000000003  0.74421  0.4402300000000001  1.0000
  H   H61       1.0  0.65794  0.76902  0.35131  1.0000
  H   H62       1.0  0.6521  0.25561  0.34877  1.0000
  H   H63       1.0  0.93248  0.65911  0.39419  1.0000
  H   H64       1.0  0.87964  0.75897  0.36383  1.0000
  H   H65       1.0  0.16562999999999997  0.24042  0.4565  1.0000
  H   H66       1.0  0.6148799999999999  0.34887  0.38619  1.0000
  H   H67       1.0  0.72352  0.25878  0.49223  1.0000
  H   H68       1.0  0.71178  0.86393  0.45931  1.0000
  H   H69       1.0  0.69929  0.48107999999999995  0.6891  1.0000
  H   H70       1.0  0.41986  0.5437  0.63967  1.0000
  H   H71       1.0  0.7615700000000001  0.16544  0.45435  1.0000
  H   H72       1.0  0.3675  0.55671  0.70546  1.0000
  H   H73       1.0  0.75922  0.5408  0.41131000000000006  1.0000
  H   H74       1.0  0.9927  0.6221  0.56349  1.0000
  H   H75       1.0  0.89334  0.39875  0.48588000000000003  1.0000
  H   H76       1.0  0.91159  0.53522  0.57593  1.0000
  H   H77       1.0  0.84135  0.58964  0.45719  1.0000
  H   H78       1.0  0.83504  0.35447  0.54301  1.0000
  H   H79       1.0  0.40229  0.60722  0.55714  1.0000
  H   H80       1.0  0.37581  0.32843  0.50602  1.0000
  H   H81       1.0  0.344  0.51943  0.37926  1.0000
  H   H82       1.0  0.41863  0.3843  0.4661  1.0000
  H   H83       1.0  0.07723  0.6756  0.60931  1.0000
  H   H84       1.0  0.34657  0.51547  0.55171  1.0000
  H   H85       1.0  0.11021  0.7737299999999999  0.64511  1.0000
  H   H86       1.0  0.85394  0.41533  0.35244  1.0000
  H   H87       1.0  0.84502  0.42260999999999993  0.28034  1.0000
  H   H88       1.0  0.37529  0.57471  0.43489  1.0000
  H   H89       1.0  0.8709099999999999  0.8589900000000001  0.57801  1.0000
  H   H90       1.0  0.738  0.59857  0.35709  1.0000
  H   H91       1.0  0.35635000000000006  0.50932  0.24477  1.0000
  H   H92       1.0  0.72997  0.60575  0.28512  1.0000
  H   H93       1.0  0.85376  0.15609  0.58946  1.0000
  H   H94       1.0  0.33583999999999997  0.2304  0.50575  1.0000
  H   H95       1.0  0.38635  0.32823  0.6138  1.0000
  H   H96       1.0  0.8001200000000003  0.25624  0.55934  1.0000
  H   H97       1.0  0.34379  0.233  0.64923  1.0000
  H   H98       1.0  0.34746  0.7447999999999999  0.65121  1.0000
  H   H99       1.0  0.06691999999999998  0.34063  0.60585  1.0000
  H   H100      1.0  0.11916  0.24055000000000004  0.63601  1.0000
  H   H101      1.0  0.83427  0.7597499999999999  0.5433  1.0000
  H   H102      1.0  0.38473999999999997  0.65141  0.61389  1.0000
  H   H103      1.0  0.27623  0.7414  0.50775  1.0000
  H   H104      1.0  0.29132  0.1363  0.54178  1.0000
  H   H105      1.0  0.29985  0.51792  0.31096  1.0000
  H   H106      1.0  0.57982  0.4557300000000001  0.36018000000000006  1.0000
  H   H107      1.0  0.23816  0.83483  0.54558  1.0000
  H   H108      1.0  0.63215  0.44345000000000007  0.29433  1.0000
  H   H109      1.0  0.25804  0.95949  0.91131  1.0000
  H   H110      1.0  0.49244999999999994  0.87833  0.06391  1.0000
  H   H111      1.0  0.39242  0.10146  0.9856100000000001  1.0000
  H   H112      1.0  0.412  0.9648299999999999  0.07578  1.0000
  H   H113      1.0  0.34125  0.9104899999999999  0.9571500000000001  1.0000
  H   H114      1.0  0.33423  0.14475  0.04378  1.0000
  H   H115      1.0  0.90333  0.8928  0.05687  1.0000
  H   H116      1.0  0.87632  0.17133  0.00608  1.0000
  H   H117      1.0  0.84349  0.9810899999999999  0.87905  1.0000
  H   H118      1.0  0.9182  0.11576  0.9657200000000001  1.0000
  H   H119      1.0  0.57754  0.82478  0.10944  1.0000
  H   H120      1.0  0.84755  0.98459  0.05168  1.0000
  H   H121      1.0  0.6108  0.72642  0.14514000000000002  1.0000
  H   H122      1.0  0.35369  0.08446  0.85234  1.0000
  H   H123      1.0  0.34521  0.07692  0.78023  1.0000
  H   H124      1.0  0.8751999999999999  0.9251300000000001  0.93493  1.0000
  H   H125      1.0  0.37132  0.64126  0.07825  1.0000
  H   H126      1.0  0.23762  0.9010800000000001  0.85725  1.0000
  H   H127      1.0  0.8566199999999999  0.99166  0.74453  1.0000
  H   H128      1.0  0.23005  0.8938699999999999  0.78524  1.0000
  H   H129      1.0  0.35211  0.3436  0.09002  1.0000
  H   H130      1.0  0.83632  0.26952  0.00571  1.0000
  H   H131      1.0  0.88792  0.17163  0.11372  1.0000
  H   H132      1.0  0.29961  0.24376  0.05935000000000001  1.0000
  H   H133      1.0  0.84336  0.26623  0.14912  1.0000
  H   H134      1.0  0.84731  0.75502  0.15126  1.0000
  H   H135      1.0  0.56721  0.16002  0.10554  1.0000
  H   H136      1.0  0.61829  0.25986  0.13623  1.0000
  H   H137      1.0  0.33429  0.74055  0.04349  1.0000
  H   H138      1.0  0.88507  0.84864  0.114  1.0000
  H   H139      1.0  0.7767899999999999  0.75907  0.00782  1.0000
  H   H140      1.0  0.78871  0.36276  0.04152  1.0000
  H   H141      1.0  0.8002099999999999  0.9818199999999999  0.81071  1.0000
  H   H142      1.0  0.08021000000000003  0.04384  0.86015  1.0000
  H   H143      1.0  0.73829  0.66541  0.04561  1.0000
  H   H144      1.0  0.13241  0.05701  0.79431  1.0000
  C   C1        1.0  0.62748  0.06888  0.9824200000000001  1.0000
  C   C2        1.0  0.61544  0.94577  0.00511  1.0000
  C   C3        1.0  0.6440299999999999  0.9714199999999998  0.07460000000000001  1.0000
  C   C4        1.0  0.60437  0.02316  0.9548  1.0000
  C   C5        1.0  0.63735  0.99142  0.03318  1.0000
  C   C6        1.0  0.64456  0.052930000000000005  0.02169  1.0000
  C   C7        1.0  0.59931  0.9613200000000001  0.96597  1.0000
  C   C8        1.0  0.10057  0.9304599999999998  0.02535  1.0000
  C   C9        1.0  0.5628400000000002  0.9156599999999999  0.93569  1.0000
  C   C10       1.0  0.12848999999999997  0.8982199999999999  0.95572  1.0000
  C   C11       1.0  0.4682  0.21529  0.89691  1.0000
  C   C12       1.0  0.13939999999999997  0.00576  0.97813  1.0000
  C   C13       1.0  0.12168000000000004  0.94425  0.98768  1.0000
  C   C14       1.0  0.16791  0.11725  0.99736  1.0000
  C   C15       1.0  0.70354  0.00683  0.14077  1.0000
  C   C16       1.0  0.14246  0.05211  0.006060000000000002  1.0000
  C   C17       1.0  0.96801  0.96717  0.27383  1.0000
  C   C18       1.0  0.57011  0.8039700000000001  0.92015  1.0000
  C   C19       1.0  0.54696  0.21104999999999996  0.92552  1.0000
  C   C20       1.0  0.71219  0.01521  0.22193  1.0000
  C   C21       1.0  0.10039999999999998  0.9770700000000001  0.05342  1.0000
  C   C22       1.0  0.63412  0.13521  0.9708000000000001  1.0000
  C   C23       1.0  0.13698  0.78566  0.94249  1.0000
  C   C24       1.0  0.47905  0.38143999999999995  0.86664  1.0000
  C   C25       1.0  0.72427  0.01596  0.2648700000000001  1.0000
  C   C26       1.0  0.4491299999999999  0.27015  0.87726  1.0000
  C   C27       1.0  0.002830000000000003  0.97489  0.2348  1.0000
  C   C28       1.0  0.67273  0.957  0.16253  1.0000
  C   C29       1.0  0.67704  0.96173  0.20271  1.0000
  C   C30       1.0  0.12450000000000001  0.03745  0.04413  1.0000
  C   C31       1.0  0.58453  0.31816  0.91484  1.0000
  C   C32       1.0  0.51205  0.69235  0.8846700000000001  1.0000
  C   C33       1.0  0.47763  0.63403  0.86624  1.0000
  C   C34       1.0  0.062279999999999995  0.96014  0.09078  1.0000
  C   C35       1.0  0.16731  0.19039  0.94146  1.0000
  C   C36       1.0  0.06379  0.98627  0.16036  1.0000
  C   C37       1.0  0.7385899999999999  0.06065  0.15987  1.0000
  C   C38       1.0  0.0959  0.9971299999999998  0.22989  1.0000
  C   C39       1.0  0.50637  0.32258  0.88622  1.0000
  C   C40       1.0  0.74247  0.06487  0.19995  1.0000
  C   C41       1.0  0.18865999999999997  0.67998  0.90261  1.0000
  C   C42       1.0  0.20875  0.29563  0.89943  1.0000
  C   C43       1.0  0.6019800000000001  0.6966  0.9066  1.0000
  C   C44       1.0  0.16157000000000002  0.73093  0.9628300000000001  1.0000
  C   C45       1.0  0.13315000000000002  0.7863799999999999  0.9018600000000002  1.0000
  C   C46       1.0  0.63109  0.75202  0.92398  1.0000
  C   C47       1.0  0.15842000000000003  0.73342  0.8823300000000001  1.0000
  C   C48       1.0  0.16742  0.24377999999999997  0.88009  1.0000
  C   C49       1.0  0.48006  0.79997  0.89807  1.0000
  C   C50       1.0  0.45211  0.7445  0.8805600000000001  1.0000
  C   C51       1.0  0.60573  0.26298  0.9343400000000001  1.0000
  C   C52       1.0  0.23261999999999997  0.34924  0.87661  1.0000
  C   C53       1.0  0.14704  0.19154  0.90084  1.0000
  C   C54       1.0  0.20866  0.24219  0.96098  1.0000
  C   C55       1.0  0.18811  0.67892  0.9431  1.0000
  C   C56       1.0  0.12674  0.00219  0.19286000000000006  1.0000
  C   C57       1.0  0.96946  0.9660899999999999  0.16509  1.0000
  C   C58       1.0  0.22998  0.6261  0.88286  1.0000
  C   C59       1.0  0.22939  0.29433  0.93981  1.0000
  C   C60       1.0  0.94031  0.9596999999999999  0.20211000000000007  1.0000
  C   C61       1.0  0.1281  0.43088  0.48215  1.0000
  C   C62       1.0  0.11423  0.55403  0.50478  1.0000
  C   C63       1.0  0.14315  0.5284  0.57441  1.0000
  C   C64       1.0  0.10469  0.47664  0.45451  1.0000
  C   C65       1.0  0.13635  0.5084  0.53292  1.0000
  C   C66       1.0  0.14428  0.4469000000000001  0.52142  1.0000
  C   C67       1.0  0.09853000000000005  0.53844  0.46563000000000004  1.0000
  C   C68       1.0  0.60025  0.56983  0.52502  1.0000
  C   C69       1.0  0.06223  0.58413  0.43528  1.0000
  C   C70       1.0  0.63108  0.60302  0.45584  1.0000
  C   C71       1.0  0.96825  0.28481  0.39697  1.0000
  C   C72       1.0  0.63969  0.49477000000000004  0.47794  1.0000
  C   C73       1.0  0.62218  0.55637  0.4874  1.0000
  C   C74       1.0  0.6679  0.38309  0.4972500000000001  1.0000
  C   C75       1.0  0.20261999999999997  0.49308  0.64067  1.0000
  C   C76       1.0  0.64215  0.44825  0.5058700000000002  1.0000
  C   C77       1.0  0.46855  0.53393  0.77359  1.0000
  C   C78       1.0  0.06837999999999998  0.69585  0.41982  1.0000
  C   C79       1.0  0.04686  0.28895  0.42558  1.0000
  C   C80       1.0  0.21209999999999998  0.48545  0.72197  1.0000
  C   C81       1.0  0.6003199999999999  0.52319  0.55316  1.0000
  C   C82       1.0  0.13487000000000002  0.36455  0.47050000000000003  1.0000
  C   C83       1.0  0.63783  0.71545  0.44268  1.0000
  C   C84       1.0  0.9786699999999999  0.11889  0.36668000000000006  1.0000
  C   C85       1.0  0.22432000000000005  0.48500999999999994  0.7649400000000002  1.0000
  C   C86       1.0  0.94925  0.23007  0.37725  1.0000
  C   C87       1.0  0.50291  0.52606  0.7345  1.0000
  C   C88       1.0  0.17221  0.54307  0.66231  1.0000
  C   C89       1.0  0.17693  0.53878  0.70252  1.0000
  C   C90       1.0  0.62427  0.46279999999999993  0.54395  1.0000
  C   C91       1.0  0.08449999999999999  0.1819  0.41478  1.0000
  C   C92       1.0  0.008410000000000003  0.80773  0.38507  1.0000
  C   C93       1.0  0.97341  0.8660900000000001  0.3668  1.0000
  C   C94       1.0  0.56257  0.53993  0.59064  1.0000
  C   C95       1.0  0.6673899999999999  0.30976  0.4415400000000001  1.0000
  C   C96       1.0  0.56383  0.51346  0.66019  1.0000
  C   C97       1.0  0.23798  0.43949  0.66001  1.0000
  C   C98       1.0  0.59564  0.50317  0.7297400000000003  1.0000
  C   C99       1.0  0.006410000000000002  0.17763  0.38618  1.0000
  C   C100      1.0  0.24226000000000006  0.4355899999999999  0.7001400000000002  1.0000
  C   C101      1.0  0.68865  0.82173  0.4032300000000001  1.0000
  C   C102      1.0  0.70865  0.20463  0.3994  1.0000
  C   C103      1.0  0.09873000000000003  0.8036100000000002  0.4067500000000001  1.0000
  C   C104      1.0  0.66261  0.76986  0.46326  1.0000
  C   C105      1.0  0.63458  0.71507  0.40205  1.0000
  C   C106      1.0  0.12885  0.74805  0.42374  1.0000
  C   C107      1.0  0.65935  0.76839  0.38273  1.0000
  C   C108      1.0  0.66718  0.25653  0.38011  1.0000
  C   C109      1.0  0.97821  0.69955  0.39778  1.0000
  C   C110      1.0  0.9493599999999999  0.7552  0.38069  1.0000
  C   C111      1.0  0.10560000000000004  0.237  0.4343200000000001  1.0000
  C   C112      1.0  0.73248  0.15102  0.37662  1.0000
  C   C113      1.0  0.64705  0.30866  0.40094  1.0000
  C   C114      1.0  0.7087  0.25789  0.461  1.0000
  C   C115      1.0  0.68884  0.8222099999999999  0.44373  1.0000
  C   C116      1.0  0.62651  0.49743  0.69276  1.0000
  C   C117      1.0  0.46945  0.53364  0.66478  1.0000
  C   C118      1.0  0.72797  0.87627  0.3835  1.0000
  C   C119      1.0  0.7292600000000001  0.20583  0.4397800000000001  1.0000
  C   C120      1.0  0.44019  0.54064  0.70174  1.0000
  C   C121      1.0  0.87262  0.56919  0.51775  1.0000
  C   C122      1.0  0.88598  0.44615999999999995  0.49528  1.0000
  C   C123      1.0  0.85681  0.47152999999999995  0.42559  1.0000
  C   C124      1.0  0.89588  0.52357  0.54547  1.0000
  C   C125      1.0  0.86379  0.49165  0.46706000000000003  1.0000
  C   C126      1.0  0.85612  0.55318  0.47848000000000007  1.0000
  C   C127      1.0  0.90178  0.46177  0.53443  1.0000
  C   C128      1.0  0.39954  0.43048  0.47489000000000003  1.0000
  C   C129      1.0  0.93773  0.41608  0.56481  1.0000
  C   C130      1.0  0.37026  0.3980000000000001  0.54433  1.0000
  C   C131      1.0  0.03147999999999999  0.71564  0.60301  1.0000
  C   C132      1.0  0.36038  0.50564  0.52199  1.0000
  C   C133      1.0  0.37796  0.44412  0.51249  1.0000
  C   C134      1.0  0.33177  0.61713  0.50277  1.0000
  C   C135      1.0  0.79725  0.50676  0.35932  1.0000
  C   C136      1.0  0.35765  0.55208  0.49408  1.0000
  C   C137      1.0  0.53154  0.46756999999999993  0.22641  1.0000
  C   C138      1.0  0.93096  0.30432  0.58005  1.0000
  C   C139      1.0  0.953  0.71144  0.57433  1.0000
  C   C140      1.0  0.78786  0.51457  0.27802  1.0000
  C   C141      1.0  0.39976  0.47714  0.44679  1.0000
  C   C142      1.0  0.86543  0.63547  0.52946  1.0000
  C   C143      1.0  0.36244000000000004  0.28549  0.5575400000000001  1.0000
  C   C144      1.0  0.020959999999999996  0.88152  0.63325  1.0000
  C   C145      1.0  0.77564  0.51498  0.23505  1.0000
  C   C146      1.0  0.050350000000000006  0.77041  0.62271  1.0000
  C   C147      1.0  0.49701  0.47491  0.26548  1.0000
  C   C148      1.0  0.8277  0.45679999999999993  0.33765  1.0000
  C   C149      1.0  0.823  0.46123  0.29744  1.0000
  C   C150      1.0  0.37568  0.53751  0.456  1.0000
  C   C151      1.0  0.91513  0.81847  0.58501  1.0000
  C   C152      1.0  0.98995  0.19213999999999998  0.61471  1.0000
  C   C153      1.0  0.024590000000000008  0.1338  0.63317  1.0000
  C   C154      1.0  0.43764  0.46029  0.40937000000000007  1.0000
  C   C155      1.0  0.33232000000000006  0.69049  0.5584900000000002  1.0000
  C   C156      1.0  0.4360200000000001  0.48644999999999994  0.33979  1.0000
  C   C157      1.0  0.7619  0.56038  0.34001000000000003  1.0000
  C   C158      1.0  0.40394  0.49711000000000005  0.27029000000000003  1.0000
  C   C159      1.0  0.99319  0.8228300000000001  0.61366  1.0000
  C   C160      1.0  0.7576899999999999  0.56436  0.29989000000000005  1.0000
  C   C161      1.0  0.31358  0.17917  0.59761  1.0000
  C   C162      1.0  0.29102  0.79571  0.60056  1.0000
  C   C163      1.0  0.89996  0.19652  0.59282  1.0000
  C   C164      1.0  0.33817  0.23077  0.53724  1.0000
  C   C165      1.0  0.36622  0.28627  0.59818  1.0000
  C   C166      1.0  0.87035  0.25222  0.57589  1.0000
  C   C167      1.0  0.34219  0.23302  0.6178  1.0000
  C   C168      1.0  0.33247  0.74381  0.61986  1.0000
  C   C169      1.0  0.021039999999999996  0.30028  0.60213  1.0000
  C   C170      1.0  0.04943000000000001  0.24451  0.61917  1.0000
  C   C171      1.0  0.89421  0.76331  0.56551  1.0000
  C   C172      1.0  0.26705  0.84927  0.62339  1.0000
  C   C173      1.0  0.35262999999999994  0.69162  0.59909  1.0000
  C   C174      1.0  0.29105  0.74235  0.53899  1.0000
  C   C175      1.0  0.31345  0.1784  0.5571  1.0000
  C   C176      1.0  0.37297  0.50224  0.30727  1.0000
  C   C177      1.0  0.53032  0.4662  0.33512  1.0000
  C   C178      1.0  0.275  0.12419  0.61736  1.0000
  C   C179      1.0  0.27049  0.79446  0.56017  1.0000
  C   C180      1.0  0.55959  0.45964999999999995  0.29814  1.0000
  C   C181      1.0  0.37285  0.931  0.01763  1.0000
  C   C182      1.0  0.38548  0.05405  0.99513  1.0000
  C   C183      1.0  0.35620000000000007  0.028519999999999997  0.92556  1.0000
  C   C184      1.0  0.39626999999999996  0.97655  0.04533  1.0000
  C   C185      1.0  0.36311  0.00853  0.96699  1.0000
  C   C186      1.0  0.35577  0.9469899999999999  0.97839  1.0000
  C   C187      1.0  0.40204  0.0384  0.03427  1.0000
  C   C188      1.0  0.89961  0.0695  0.97463  1.0000
  C   C189      1.0  0.43937  0.08402  0.0645  1.0000
  C   C190      1.0  0.8718499999999999  0.10172  0.04429  1.0000
  C   C191      1.0  0.53179  0.7847  0.10313  1.0000
  C   C192      1.0  0.8609  0.99423  0.02187  1.0000
  C   C193      1.0  0.87858  0.05571999999999999  0.01231  1.0000
  C   C194      1.0  0.8321799999999999  0.8827999999999999  0.00267  1.0000
  C   C195      1.0  0.29667  0.9931  0.85934  1.0000
  C   C196      1.0  0.85766  0.94789  0.99394  1.0000
  C   C197      1.0  0.03184000000000001  0.03372  0.72634  1.0000
  C   C198      1.0  0.43055000000000004  0.19572  0.08018  1.0000
  C   C199      1.0  0.45307000000000003  0.78891  0.07451000000000002  1.0000
  C   C200      1.0  0.28797  0.9849  0.77813  1.0000
  C   C201      1.0  0.89962  0.02287  0.9465599999999998  1.0000
  C   C202      1.0  0.36606999999999995  0.8646699999999999  0.029070000000000002  1.0000
  C   C203      1.0  0.86325  0.21424999999999997  0.05751  1.0000
  C   C204      1.0  0.5213  0.6186  0.13327000000000003  1.0000
  C   C205      1.0  0.27599  0.98407  0.73519  1.0000
  C   C206      1.0  0.55082  0.72985  0.1228  1.0000
  C   C207      1.0  0.99716  0.02603  0.76536  1.0000
  C   C208      1.0  0.32736  0.04298  0.83759  1.0000
  C   C209      1.0  0.32305  0.03837  0.7974  1.0000
  C   C210      1.0  0.87549  0.96251  0.9558500000000001  1.0000
  C   C211      1.0  0.41545  0.68182  0.0852  1.0000
  C   C212      1.0  0.48836  0.30781  0.11531  1.0000
  C   C213      1.0  0.52243  0.36605  0.13402  1.0000
  C   C214      1.0  0.93766  0.03976  0.9092  1.0000
  C   C215      1.0  0.83273  0.8096900000000001  0.05856000000000001  1.0000
  C   C216      1.0  0.93609  0.01376  0.83964  1.0000
  C   C217      1.0  0.26148  0.93934  0.8401700000000002  1.0000
  C   C218      1.0  0.90413  0.00365  0.77011  1.0000
  C   C219      1.0  0.49363999999999997  0.67744  0.1138  1.0000
  C   C220      1.0  0.25761  0.93521  0.80007  1.0000
  C   C221      1.0  0.8115  0.32  0.09746  1.0000
  C   C222      1.0  0.79122  0.7044  0.10058  1.0000
  C   C223      1.0  0.39853  0.30326  0.09333  1.0000
  C   C224      1.0  0.83823  0.26889  0.03718  1.0000
  C   C225      1.0  0.86697  0.21349  0.09813  1.0000
  C   C226      1.0  0.36954000000000004  0.24766  0.07612  1.0000
  C   C227      1.0  0.84165  0.26644  0.11769000000000002  1.0000
  C   C228      1.0  0.83256  0.7562499999999999  0.11992  1.0000
  C   C229      1.0  0.52068  0.20008  0.10216  1.0000
  C   C230      1.0  0.54848  0.25573  0.11946999999999999  1.0000
  C   C231      1.0  0.39434  0.7369899999999999  0.06568  1.0000
  C   C232      1.0  0.76745  0.65071  0.12336  1.0000
  C   C233      1.0  0.85293  0.8084999999999999  0.09917  1.0000
  C   C234      1.0  0.79137  0.7579100000000001  0.03906000000000001  1.0000
  C   C235      1.0  0.81182  0.32092  0.05695  1.0000
  C   C236      1.0  0.87313  0.99804  0.80708  1.0000
  C   C237      1.0  0.030509999999999995  0.03395  0.83504  1.0000
  C   C238      1.0  0.77078  0.37426  0.11716  1.0000
  C   C239      1.0  0.77063  0.70576  0.06021  1.0000
  C   C240      1.0  0.05978999999999997  0.04083  0.79809  1.0000
  N   N1        1.0  0.70141  0.006409999999999999  0.10012000000000001  1.0000
  N   N2        1.0  0.56109  0.1535  0.9438099999999999  1.0000
  N   N3        1.0  0.60121  0.85754  0.94026  1.0000
  N   N4        1.0  0.14349000000000006  0.13548  0.9600600000000001  1.0000
  N   N5        1.0  0.11748000000000003  0.83772  0.9650200000000001  1.0000
  N   N6        1.0  0.09695000000000001  0.99208  0.12308  1.0000
  N   N7        1.0  0.20001  0.49311  0.59998  1.0000
  N   N8        1.0  0.06106  0.34636  0.44396  1.0000
  N   N9        1.0  0.10005000000000004  0.64236  0.4399200000000001  1.0000
  N   N10       1.0  0.64356  0.36474  0.4600000000000001  1.0000
  N   N11       1.0  0.61742  0.66328  0.46506999999999993  1.0000
  N   N12       1.0  0.59707  0.5077  0.6229300000000001  1.0000
  N   N13       1.0  0.7998  0.50669  0.40001  1.0000
  N   N14       1.0  0.93915  0.654  0.55598  1.0000
  N   N15       1.0  0.8996400000000001  0.35797  0.56007  1.0000
  N   N16       1.0  0.35611  0.63549  0.54004  1.0000
  N   N17       1.0  0.38166  0.33757  0.53494  1.0000
  N   N18       1.0  0.40309  0.4924  0.37708  1.0000
  N   N19       1.0  0.2991  0.99336  0.9000100000000002  1.0000
  N   N20       1.0  0.43889999999999996  0.8464  0.05619  1.0000
  N   N21       1.0  0.39947  0.14177  0.06044  1.0000
  N   N22       1.0  0.85645  0.8646499999999999  0.03999  1.0000
  N   N23       1.0  0.88275  0.16222  0.03496  1.0000
  N   N24       1.0  0.90317  0.00765  0.87692  1.0000
  O   O1        1.0  0.59952  0.9246699999999999  0.08416  1.0000
  O   O2        1.0  0.49981000000000003  0.93123  0.9099300000000002  1.0000
  O   O3        1.0  0.14393  0.9158999999999999  0.92255  1.0000
  O   O4        1.0  0.33992  0.4975899999999999  0.84561  1.0000
  O   O5        1.0  0.99987  0.9189699999999998  0.09162  1.0000
  O   O6        1.0  0.7007  0.16863  0.9849100000000001  1.0000
  O   O7        1.0  0.75779  0.06586  0.28134  1.0000
  O   O8        1.0  0.5226600000000002  0.58359  0.87674  1.0000
  O   O9        1.0  0.01879  0.99169  0.30281  1.0000
  O   O10       1.0  0.2095  0.15039  0.023160000000000004  1.0000
  O   O11       1.0  0.70399  0.96745  0.28337  1.0000
  O   O12       1.0  0.5191699999999998  0.43168  0.88059  1.0000
  O   O13       1.0  0.40485  0.63723  0.8412  1.0000
  O   O14       1.0  0.41637  0.38061  0.8373  1.0000
  O   O15       1.0  0.88994  0.9369100000000001  0.27571  1.0000
  O   O16       1.0  0.28009  0.3962  0.89061  1.0000
  O   O17       1.0  0.21008000000000002  0.35085  0.8393500000000003  1.0000
  O   O18       1.0  0.21409000000000006  0.62481  0.8446400000000002  1.0000
  O   O19       1.0  0.27927  0.58736  0.90214  1.0000
  O   O20       1.0  0.09938  0.57529  0.58408  1.0000
  O   O21       1.0  0.9998199999999999  0.5686  0.40919000000000005  1.0000
  O   O22       1.0  0.65075  0.58626  0.42305  1.0000
  O   O23       1.0  0.83886  0.002669999999999999  0.3454  1.0000
  O   O24       1.0  0.50025  0.58109  0.59159  1.0000
  O   O25       1.0  0.20213  0.33106  0.48417  1.0000
  O   O26       1.0  0.2574  0.43483  0.78137  1.0000
  O   O27       1.0  0.01897  0.91641  0.37695  1.0000
  O   O28       1.0  0.51983  0.50972  0.8025800000000002  1.0000
  O   O29       1.0  0.70967  0.34994  0.52302  1.0000
  O   O30       1.0  0.20471999999999999  0.53371  0.7833600000000001  1.0000
  O   O31       1.0  0.018880000000000015  0.06856  0.38056  1.0000
  O   O32       1.0  0.89999  0.8629199999999999  0.3419900000000001  1.0000
  O   O33       1.0  0.91537  0.12007  0.33756  1.0000
  O   O34       1.0  0.39013  0.56368  0.7756000000000001  1.0000
  O   O35       1.0  0.77994  0.104  0.39058  1.0000
  O   O36       1.0  0.70972  0.14949  0.33938  1.0000
  O   O37       1.0  0.7095699999999999  0.87822  0.34538  1.0000
  O   O38       1.0  0.77761  0.9150599999999999  0.40255000000000013  1.0000
  O   O39       1.0  0.90072  0.42464  0.41595  1.0000
  O   O40       1.0  1.0000000000011116e-05  0.43144999999999994  0.59101  1.0000
  O   O41       1.0  0.35363  0.41579  0.57732  1.0000
  O   O42       1.0  0.16092  0.9977299999999999  0.65563  1.0000
  O   O43       1.0  0.49988999999999995  0.41905999999999993  0.40843  1.0000
  O   O44       1.0  0.798  0.66869  0.51592  1.0000
  O   O45       1.0  0.74255  0.5651  0.21857  1.0000
  O   O46       1.0  0.98028  0.08315  0.62268  1.0000
  O   O47       1.0  0.48097  0.49284999999999995  0.19760000000000003  1.0000
  O   O48       1.0  0.28995  0.65021  0.47697999999999996  1.0000
  O   O49       1.0  0.7953099999999999  0.4662  0.2167  1.0000
  O   O50       1.0  0.98116  0.93196  0.6194  1.0000
  O   O51       1.0  0.0967  0.13709  0.65846  1.0000
  O   O52       1.0  0.08394999999999998  0.88032  0.66247  1.0000
  O   O53       1.0  0.60932  0.43713  0.22433  1.0000
  O   O54       1.0  0.2197  0.89636  0.60949  1.0000
  O   O55       1.0  0.2898  0.8506699999999999  0.66064  1.0000
  O   O56       1.0  0.28666  0.1249  0.65576  1.0000
  O   O57       1.0  0.23228  0.08271  0.59807  1.0000
  O   O58       1.0  0.40049  0.07531  0.91592  1.0000
  O   O59       1.0  0.5041  0.06879  0.08975  1.0000
  O   O60       1.0  0.85685  0.08405  0.07750000000000001  1.0000
  O   O61       1.0  0.66043  0.50222  0.15445  1.0000
  O   O62       1.0  0.99998  0.081  0.90837  1.0000
  O   O63       1.0  0.29961  0.8314399999999998  0.014610000000000001  1.0000
  O   O64       1.0  0.24228999999999998  0.93417  0.71877  1.0000
  O   O65       1.0  0.47665  0.41653  0.12435000000000002  1.0000
  O   O66       1.0  0.9807699999999999  0.00951  0.69733  1.0000
  O   O67       1.0  0.79072  0.8496  0.97688  1.0000
  O   O68       1.0  0.2965  0.03251  0.71664  1.0000
  O   O69       1.0  0.48098  0.56839  0.11935  1.0000
  O   O70       1.0  0.5957500000000001  0.3627  0.15876  1.0000
  O   O71       1.0  0.58447  0.61939  0.16245  1.0000
  O   O72       1.0  0.11039999999999997  0.06348  0.72448  1.0000
  O   O73       1.0  0.72026  0.60367  0.10933  1.0000
  O   O74       1.0  0.7899100000000001  0.6491  0.16063  1.0000
  O   O75       1.0  0.786  0.37515000000000004  0.15542  1.0000
  O   O76       1.0  0.7229799999999998  0.41367  0.0979  1.0000
