data_image0
_chemical_formula_structural       Cu48H72C216N96O104
_chemical_formula_sum              "Cu48 H72 C216 N96 O104"
_cell_length_a       31.72066
_cell_length_b       31.72549
_cell_length_c       31.723129999999998
_cell_angle_alpha    60.02969
_cell_angle_beta     60.00415999999999
_cell_angle_gamma    60.02622000000001

_space_group_name_H-M_alt    "P 1"
_space_group_IT_number       1

loop_
  _space_group_symop_operation_xyz
  'x, y, z'

loop_
  _atom_site_type_symbol
  _atom_site_label
  _atom_site_symmetry_multiplicity
  _atom_site_fract_x
  _atom_site_fract_y
  _atom_site_fract_z
  _atom_site_occupancy
  Cu  Cu1       1.0  0.6657200000000001  0.99991  6e-05  1.0000
  Cu  Cu2       1.0  0.7430199999999997  0.99993  3e-05  1.0000
  Cu  Cu3       1.0  0.33424999999999994  0.99993  0.0  1.0000
  Cu  Cu4       1.0  0.25712999999999997  0.99992  1e-05  1.0000
  Cu  Cu5       1.0  2.000000000000753e-05  0.33424999999999994  0.66572  1.0000
  Cu  Cu6       1.0  0.9999899999999998  0.25702  0.74299  1.0000
  Cu  Cu7       1.0  0.9999899999999997  0.6657399999999999  0.3342800000000001  1.0000
  Cu  Cu8       1.0  1.999999999995153e-05  0.74297  0.25701  1.0000
  Cu  Cu9       1.0  5.000000000001883e-05  0.9999899999999999  0.66574  1.0000
  Cu  Cu10      1.0  2.9999999999970815e-05  1.999999999997926e-05  0.74284  1.0000
  Cu  Cu11      1.0  1.999999999998729e-05  9.99999999998963e-06  0.33423  1.0000
  Cu  Cu12      1.0  1.0000000000059766e-05  0.9999799999999999  0.25713  1.0000
  Cu  Cu13      1.0  0.33420999999999995  0.6658000000000001  0.99997  1.0000
  Cu  Cu14      1.0  0.25708999999999993  0.74287  3e-05  1.0000
  Cu  Cu15      1.0  0.6657499999999997  0.33418  1e-05  1.0000
  Cu  Cu16      1.0  0.7428699999999998  0.25712999999999997  0.9999600000000001  1.0000
  Cu  Cu17      1.0  0.9999899999999999  0.66579  0.99999  1.0000
  Cu  Cu18      1.0  0.0  0.74287  2e-05  1.0000
  Cu  Cu19      1.0  4.999999999999083e-05  0.33422  1e-05  1.0000
  Cu  Cu20      1.0  2.0000000000035533e-05  0.25715  0.99997  1.0000
  Cu  Cu21      1.0  0.6658399999999999  1.000000000000579e-05  0.33421  1.0000
  Cu  Cu22      1.0  0.74297  0.9999899999999999  0.25711  1.0000
  Cu  Cu23      1.0  0.33428999999999975  1.0000000000021949e-05  0.66577  1.0000
  Cu  Cu24      1.0  0.25699999999999995  1.999999999997926e-05  0.74305  1.0000
  Cu  Cu25      1.0  0.62438  0.72729  0.02394  1.0000
  Cu  Cu26      1.0  0.6243600000000001  0.023939999999999996  0.72733  1.0000
  Cu  Cu27      1.0  0.023960000000000006  0.62442  0.62442  1.0000
  Cu  Cu28      1.0  0.7272699999999991  0.62439  0.62439  1.0000
  Cu  Cu29      1.0  0.7273399999999999  0.023939999999999996  0.62438  1.0000
  Cu  Cu30      1.0  0.023940000000000055  0.72729  0.6243599999999999  1.0000
  Cu  Cu31      1.0  0.62444  0.62442  0.02396  1.0000
  Cu  Cu32      1.0  0.6244  0.62439  0.7272700000000001  1.0000
  Cu  Cu33      1.0  0.023940000000000055  0.6243499999999997  0.7273000000000001  1.0000
  Cu  Cu34      1.0  0.7273300000000003  0.6243699999999998  0.02394  1.0000
  Cu  Cu35      1.0  0.62444  0.023949999999999954  0.6244400000000001  1.0000
  Cu  Cu36      1.0  0.62444  0.72722  0.6244  1.0000
  Cu  Cu37      1.0  0.37489  0.27414999999999995  0.97603  1.0000
  Cu  Cu38      1.0  0.37590999999999986  0.97607  0.27216  1.0000
  Cu  Cu39      1.0  0.27271  0.37561  0.37563  1.0000
  Cu  Cu40      1.0  0.9760500000000001  0.37557999999999997  0.37558  1.0000
  Cu  Cu41      1.0  0.37482000000000004  0.9760399999999998  0.37488  1.0000
  Cu  Cu42      1.0  0.3755599999999996  0.27278999999999987  0.3756  1.0000
  Cu  Cu43      1.0  0.2723099999999998  0.37577  0.97608  1.0000
  Cu  Cu44      1.0  0.9760699999999997  0.37564999999999993  0.27269  1.0000
  Cu  Cu45      1.0  0.3755699999999998  0.37563  0.27275  1.0000
  Cu  Cu46      1.0  0.37590999999999986  0.37583999999999995  0.9760700000000001  1.0000
  Cu  Cu47      1.0  0.27219  0.97609  0.37593  1.0000
  Cu  Cu48      1.0  0.9760600000000001  0.27271  0.37564  1.0000
  H   H1        1.0  0.7049499999999996  0.8410399999999998  0.02228  1.0000
  H   H2        1.0  0.43164  0.022250000000000002  0.84104  1.0000
  H   H3        1.0  0.022260000000000096  0.4315599999999998  0.70497  1.0000
  H   H4        1.0  0.84112  0.7050499999999997  0.43155  1.0000
  H   H5        1.0  0.8410099999999999  0.022250000000000034  0.7050099999999999  1.0000
  H   H6        1.0  0.02226000000000015  0.8410499999999997  0.43163  1.0000
  H   H7        1.0  0.43161999999999984  0.70499  0.02224  1.0000
  H   H8        1.0  0.7050500000000002  0.4316099999999998  0.84108  1.0000
  H   H9        1.0  0.022260000000000096  0.7050199999999996  0.84096  1.0000
  H   H10       1.0  0.8410699999999999  0.43165  0.02226  1.0000
  H   H11       1.0  0.7049700000000001  0.022249999999999985  0.43165  1.0000
  H   H12       1.0  0.4316399999999999  0.8411  0.70499  1.0000
  H   H13       1.0  0.5685600000000001  0.15855  0.97771  1.0000
  H   H14       1.0  0.29502  0.97773  0.15897  1.0000
  H   H15       1.0  0.15885000000000002  0.56843  0.29501  1.0000
  H   H16       1.0  0.9777399999999999  0.29500999999999994  0.56845  1.0000
  H   H17       1.0  0.5685800000000001  0.9777599999999997  0.29512  1.0000
  H   H18       1.0  0.2949800000000001  0.15890999999999997  0.56841  1.0000
  H   H19       1.0  0.15925000000000006  0.29483  0.97774  1.0000
  H   H20       1.0  0.9777499999999999  0.5683599999999999  0.15895  1.0000
  H   H21       1.0  0.5683699999999999  0.2949299999999999  0.15896  1.0000
  H   H22       1.0  0.29497000000000007  0.56839  0.97776  1.0000
  H   H23       1.0  0.15924000000000005  0.9777499999999999  0.56826  1.0000
  H   H24       1.0  0.9777499999999999  0.15902  0.29501  1.0000
  H   H25       1.0  0.29517  0.15867  0.97774  1.0000
  H   H26       1.0  0.5683  0.97771  0.15917  1.0000
  H   H27       1.0  0.9777399999999999  0.5684399999999997  0.29504  1.0000
  H   H28       1.0  0.15889999999999999  0.29491  0.56847  1.0000
  H   H29       1.0  0.15899000000000008  0.9777499999999998  0.29499  1.0000
  H   H30       1.0  0.9777499999999999  0.1589499999999999  0.56836  1.0000
  H   H31       1.0  0.5683000000000005  0.29476  0.97776  1.0000
  H   H32       1.0  0.29494  0.56838  0.15892  1.0000
  H   H33       1.0  0.9777399999999996  0.29501  0.15903  1.0000
  H   H34       1.0  0.15890999999999997  0.56838  0.97774  1.0000
  H   H35       1.0  0.29522  0.97773  0.56858  1.0000
  H   H36       1.0  0.5683399999999997  0.15896  0.29498  1.0000
  H   H37       1.0  0.43165999999999993  0.8410399999999998  0.02228  1.0000
  H   H38       1.0  0.70494  0.02226999999999998  0.84107  1.0000
  H   H39       1.0  0.8411500000000001  0.43157  0.705  1.0000
  H   H40       1.0  0.02225999999999998  0.70498  0.43155  1.0000
  H   H41       1.0  0.43160000000000004  0.02226999999999998  0.70495  1.0000
  H   H42       1.0  0.70505  0.84106  0.43163  1.0000
  H   H43       1.0  0.8409799999999998  0.7050399999999998  0.02225  1.0000
  H   H44       1.0  0.022259999999999953  0.43163999999999997  0.84105  1.0000
  H   H45       1.0  0.4315999999999999  0.70512  0.84101  1.0000
  H   H46       1.0  0.70498  0.43163  0.02224  1.0000
  H   H47       1.0  0.84107  0.022269999999999998  0.43165  1.0000
  H   H48       1.0  0.02226000000000004  0.8409899999999999  0.70497  1.0000
  H   H49       1.0  0.84317  0.84321  0.01489  1.0000
  H   H50       1.0  0.29866999999999994  0.014869999999999996  0.8431400000000001  1.0000
  H   H51       1.0  0.014869999999999916  0.29871000000000003  0.84309  1.0000
  H   H52       1.0  0.8432799999999998  0.8431599999999998  0.29868  1.0000
  H   H53       1.0  0.84317  0.014880000000000018  0.84321  1.0000
  H   H54       1.0  0.014869999999999944  0.84309  0.29869  1.0000
  H   H55       1.0  0.29873  0.84312  0.01484  1.0000
  H   H56       1.0  0.8432399999999997  0.29873  0.8431400000000001  1.0000
  H   H57       1.0  0.014860000000000052  0.84321  0.84318  1.0000
  H   H58       1.0  0.84314  0.29873  0.01484  1.0000
  H   H59       1.0  0.84318  0.014839999999999996  0.29871  1.0000
  H   H60       1.0  0.29866  0.8432499999999999  0.8432  1.0000
  H   H61       1.0  0.7013399999999996  0.15677000000000002  0.98512  1.0000
  H   H62       1.0  0.15679  0.9851399999999999  0.15679  1.0000
  H   H63       1.0  0.15676000000000018  0.7012699999999997  0.15686  1.0000
  H   H64       1.0  0.9851300000000001  0.15689999999999998  0.70131  1.0000
  H   H65       1.0  0.7013799999999997  0.98513  0.15680999999999998  1.0000
  H   H66       1.0  0.15675  0.15680999999999992  0.70136  1.0000
  H   H67       1.0  0.15682  0.15676  0.98514  1.0000
  H   H68       1.0  0.98514  0.70129  0.15691000000000002  1.0000
  H   H69       1.0  0.70131  0.15679  0.15676  1.0000
  H   H70       1.0  0.15683000000000002  0.7013199999999999  0.9851600000000001  1.0000
  H   H71       1.0  0.15689000000000006  0.9851299999999998  0.70135  1.0000
  H   H72       1.0  0.9851499999999997  0.15680999999999992  0.1568  1.0000
  C   C1        1.0  0.74459  0.82115  0.02204  1.0000
  C   C2        1.0  0.7710700000000003  0.8475199999999998  0.01913  1.0000
  C   C3        1.0  0.7453399999999999  0.9032499999999998  0.014700000000000001  1.0000
  C   C4        1.0  0.41214999999999985  0.022030000000000004  0.82111  1.0000
  C   C5        1.0  0.36221999999999993  0.019100000000000006  0.84748  1.0000
  C   C6        1.0  0.33665000000000006  0.014650000000000031  0.9032099999999998  1.0000
  C   C7        1.0  0.022019999999999977  0.41214  0.74461  1.0000
  C   C8        1.0  0.019090000000000048  0.36222999999999994  0.77107  1.0000
  C   C9        1.0  0.014660000000000117  0.33663999999999983  0.7453499999999998  1.0000
  C   C10       1.0  0.8211599999999999  0.7446699999999998  0.41211  1.0000
  C   C11       1.0  0.8475399999999998  0.7711299999999998  0.3622  1.0000
  C   C12       1.0  0.9032799999999999  0.7454099999999998  0.33661  1.0000
  C   C13       1.0  0.8211  0.022030000000000004  0.74466  1.0000
  C   C14       1.0  0.84749  0.019100000000000037  0.7711299999999999  1.0000
  C   C15       1.0  0.90323  0.014679999999999967  0.74537  1.0000
  C   C16       1.0  0.022020000000000005  0.82111  0.41215  1.0000
  C   C17       1.0  0.019099999999999968  0.84747  0.36223  1.0000
  C   C18       1.0  0.014679999999999985  0.90319  0.33666  1.0000
  C   C19       1.0  0.41218  0.74463  0.021999999999999995  1.0000
  C   C20       1.0  0.36226999999999976  0.7711  0.01906  1.0000
  C   C21       1.0  0.3366899999999998  0.74537  0.014650000000000002  1.0000
  C   C22       1.0  0.74469  0.41216000000000014  0.8211199999999999  1.0000
  C   C23       1.0  0.7711600000000001  0.36225999999999997  0.84747  1.0000
  C   C24       1.0  0.74541  0.3366899999999999  0.9031800000000001  1.0000
  C   C25       1.0  0.022010000000000057  0.7446599999999998  0.82108  1.0000
  C   C26       1.0  0.019080000000000184  0.7711399999999998  0.84747  1.0000
  C   C27       1.0  0.014679999999999985  0.74539  0.90319  1.0000
  C   C28       1.0  0.8211299999999999  0.4121799999999999  0.02202  1.0000
  C   C29       1.0  0.8474899999999995  0.36226  0.01908  1.0000
  C   C30       1.0  0.90322  0.33668  0.014689999999999998  1.0000
  C   C31       1.0  0.74463  0.02200999999999999  0.41219  1.0000
  C   C32       1.0  0.77112  0.019070000000000004  0.36227  1.0000
  C   C33       1.0  0.74539  0.014660000000000005  0.3367  1.0000
  C   C34       1.0  0.41213999999999995  0.8211799999999998  0.74463  1.0000
  C   C35       1.0  0.36222000000000015  0.8475499999999998  0.77111  1.0000
  C   C36       1.0  0.33664000000000016  0.90329  0.74541  1.0000
  C   C37       1.0  0.5879200000000001  0.17860999999999994  0.9779600000000002  1.0000
  C   C38       1.0  0.6378599999999999  0.15234000000000006  0.9808699999999999  1.0000
  C   C39       1.0  0.66349  0.09659999999999995  0.98532  1.0000
  C   C40       1.0  0.25537000000000004  0.97798  0.17884  1.0000
  C   C41       1.0  0.22889000000000012  0.9809199999999998  0.15247  1.0000
  C   C42       1.0  0.2546500000000001  0.9852999999999997  0.09676  1.0000
  C   C43       1.0  0.17881999999999998  0.58786  0.25538  1.0000
  C   C44       1.0  0.15246  0.6377599999999999  0.22891  1.0000
  C   C45       1.0  0.09672000000000008  0.6633499999999999  0.25464  1.0000
  C   C46       1.0  0.97798  0.25538  0.58787  1.0000
  C   C47       1.0  0.9808999999999999  0.22890999999999997  0.63779  1.0000
  C   C48       1.0  0.9853499999999998  0.25463  0.66338  1.0000
  C   C49       1.0  0.5879099999999998  0.9779999999999999  0.25547  1.0000
  C   C50       1.0  0.6378500000000001  0.9809299999999997  0.22889  1.0000
  C   C51       1.0  0.66347  0.98534  0.25457  1.0000
  C   C52       1.0  0.25533  0.17882999999999996  0.58789  1.0000
  C   C53       1.0  0.22885000000000003  0.15247999999999995  0.63781  1.0000
  C   C54       1.0  0.25458  0.09674999999999996  0.6634  1.0000
  C   C55       1.0  0.1790699999999998  0.25519  0.978  1.0000
  C   C56       1.0  0.15260999999999997  0.2287999999999999  0.98092  1.0000
  C   C57       1.0  0.09687000000000003  0.25462  0.98531  1.0000
  C   C58       1.0  0.97798  0.5878399999999998  0.1789  1.0000
  C   C59       1.0  0.9808999999999997  0.6377599999999999  0.15254  1.0000
  C   C60       1.0  0.9852999999999998  0.6633399999999999  0.09682  1.0000
  C   C61       1.0  0.58784  0.2553  0.17888  1.0000
  C   C62       1.0  0.6377499999999999  0.22883  0.1525  1.0000
  C   C63       1.0  0.6633199999999998  0.25456  0.09679  1.0000
  C   C64       1.0  0.25533000000000017  0.58788  0.978  1.0000
  C   C65       1.0  0.22886000000000006  0.6377699999999998  0.9809500000000001  1.0000
  C   C66       1.0  0.25461000000000006  0.66332  0.9853500000000001  1.0000
  C   C67       1.0  0.17909000000000014  0.9779999999999998  0.58782  1.0000
  C   C68       1.0  0.1526400000000002  0.9809099999999996  0.63774  1.0000
  C   C69       1.0  0.09688000000000008  0.9853199999999996  0.66329  1.0000
  C   C70       1.0  0.97799  0.1789  0.25537  1.0000
  C   C71       1.0  0.98092  0.15250999999999995  0.22889  1.0000
  C   C72       1.0  0.98533  0.09679  0.25463  1.0000
  C   C73       1.0  0.2555199999999999  0.1786799999999999  0.9779900000000001  1.0000
  C   C74       1.0  0.22895  0.15238999999999997  0.98091  1.0000
  C   C75       1.0  0.25464000000000003  0.09668  0.98531  1.0000
  C   C76       1.0  0.5878399999999996  0.97797  0.17902  1.0000
  C   C77       1.0  0.6377799999999997  0.9808799999999999  0.15257  1.0000
  C   C78       1.0  0.6633600000000002  0.9852799999999998  0.09679  1.0000
  C   C79       1.0  0.97798  0.58786  0.2554  1.0000
  C   C80       1.0  0.9808999999999998  0.6377699999999998  0.22893  1.0000
  C   C81       1.0  0.98534  0.6633599999999998  0.25465  1.0000
  C   C82       1.0  0.17885  0.25529  0.58791  1.0000
  C   C83       1.0  0.15248  0.22882  0.63783  1.0000
  C   C84       1.0  0.09673  0.25455  0.66341  1.0000
  C   C85       1.0  0.17884999999999993  0.9779899999999999  0.25534  1.0000
  C   C86       1.0  0.15248000000000014  0.9809299999999997  0.22886000000000004  1.0000
  C   C87       1.0  0.09677000000000004  0.98533  0.25463  1.0000
  C   C88       1.0  0.97798  0.17888999999999994  0.58785  1.0000
  C   C89       1.0  0.9809099999999995  0.15252999999999997  0.6377700000000001  1.0000
  C   C90       1.0  0.9853399999999999  0.0968  0.66333  1.0000
  C   C91       1.0  0.5878200000000001  0.25513  0.97801  1.0000
  C   C92       1.0  0.6377299999999999  0.22875999999999994  0.98093  1.0000
  C   C93       1.0  0.6632699999999999  0.25455  0.98534  1.0000
  C   C94       1.0  0.2552999999999998  0.58784  0.17889  1.0000
  C   C95       1.0  0.22884  0.63774  0.15253  1.0000
  C   C96       1.0  0.25457  0.6633  0.09682  1.0000
  C   C97       1.0  0.9779800000000001  0.2553699999999999  0.1789  1.0000
  C   C98       1.0  0.9809199999999999  0.22889000000000004  0.15251  1.0000
  C   C99       1.0  0.9853299999999997  0.25464  0.09679  1.0000
  C   C100      1.0  0.1788200000000001  0.58789  0.97798  1.0000
  C   C101      1.0  0.15247000000000008  0.6377899999999996  0.98092  1.0000
  C   C102      1.0  0.0967600000000001  0.6633599999999998  0.98531  1.0000
  C   C103      1.0  0.2555700000000001  0.97798  0.58791  1.0000
  C   C104      1.0  0.2289800000000001  0.9808999999999997  0.6378499999999999  1.0000
  C   C105      1.0  0.25465  0.98534  0.66348  1.0000
  C   C106      1.0  0.5878299999999995  0.17887  0.25534  1.0000
  C   C107      1.0  0.6377499999999998  0.15249  0.22885  1.0000
  C   C108      1.0  0.6633299999999999  0.0968  0.25459  1.0000
  C   C109      1.0  0.41218  0.82111  0.02203  1.0000
  C   C110      1.0  0.3622600000000001  0.84746  0.0191  1.0000
  C   C111      1.0  0.3366899999999998  0.90317  0.014679999999999999  1.0000
  C   C112      1.0  0.7445899999999996  0.022039999999999962  0.82116  1.0000
  C   C113      1.0  0.7710699999999999  0.01910999999999993  0.8475400000000001  1.0000
  C   C114      1.0  0.74535  0.014640000000000009  0.9033  1.0000
  C   C115      1.0  0.82118  0.41214000000000006  0.74463  1.0000
  C   C116      1.0  0.8475299999999997  0.3622399999999998  0.7711000000000001  1.0000
  C   C117      1.0  0.9032799999999999  0.3366499999999998  0.74537  1.0000
  C   C118      1.0  0.022020000000000005  0.74462  0.41213  1.0000
  C   C119      1.0  0.019099999999999912  0.77109  0.36222  1.0000
  C   C120      1.0  0.014660000000000032  0.74537  0.33663  1.0000
  C   C121      1.0  0.41215  0.02204000000000003  0.7445999999999999  1.0000
  C   C122      1.0  0.36222000000000004  0.019109999999999995  0.77109  1.0000
  C   C123      1.0  0.33663000000000004  0.01467000000000001  0.74538  1.0000
  C   C124      1.0  0.7446999999999999  0.82113  0.41215  1.0000
  C   C125      1.0  0.7711799999999998  0.84749  0.36224  1.0000
  C   C126      1.0  0.7454699999999993  0.90319  0.33668  1.0000
  C   C127      1.0  0.8210899999999999  0.7446799999999998  0.02202  1.0000
  C   C128      1.0  0.8474699999999997  0.7711499999999998  0.0191  1.0000
  C   C129      1.0  0.9032000000000001  0.7453999999999998  0.014689999999999998  1.0000
  C   C130      1.0  0.022020000000000088  0.4121599999999999  0.8211  1.0000
  C   C131      1.0  0.019100000000000082  0.36223999999999995  0.8474599999999999  1.0000
  C   C132      1.0  0.014720000000000084  0.33665999999999974  0.9031800000000001  1.0000
  C   C133      1.0  0.4121299999999998  0.74474  0.8210900000000001  1.0000
  C   C134      1.0  0.3622099999999999  0.77121  0.84747  1.0000
  C   C135      1.0  0.33663999999999994  0.7454699999999999  0.9031800000000001  1.0000
  C   C136      1.0  0.7446299999999999  0.4121799999999999  0.021999999999999995  1.0000
  C   C137      1.0  0.7711  0.36227  0.01905  1.0000
  C   C138      1.0  0.74535  0.3366999999999999  0.014639999999999999  1.0000
  C   C139      1.0  0.8211299999999999  0.022019999999999998  0.41217  1.0000
  C   C140      1.0  0.8475099999999997  0.01909  0.36225  1.0000
  C   C141      1.0  0.90323  0.014690000000000005  0.33667  1.0000
  C   C142      1.0  0.022010000000000057  0.82112  0.74461  1.0000
  C   C143      1.0  0.019080000000000073  0.84751  0.77109  1.0000
  C   C144      1.0  0.014700000000000104  0.9032199999999999  0.74533  1.0000
  C   C145      1.0  0.7424199999999999  0.74248  0.02515  1.0000
  C   C146      1.0  0.7695  0.76958  0.02369  1.0000
  C   C147      1.0  0.8224699999999999  0.82252  0.0178  1.0000
  C   C148      1.0  0.48989999999999995  0.02516999999999995  0.7424400000000001  1.0000
  C   C149      1.0  0.43718000000000007  0.023699999999999985  0.76951  1.0000
  C   C150      1.0  0.3371299999999999  0.017789999999999973  0.82247  1.0000
  C   C151      1.0  0.025150000000000065  0.48989999999999984  0.74245  1.0000
  C   C152      1.0  0.023680000000000014  0.43719  0.76951  1.0000
  C   C153      1.0  0.017789999999999924  0.33716  0.8224500000000001  1.0000
  C   C154      1.0  0.7424899999999998  0.7424599999999999  0.48988  1.0000
  C   C155      1.0  0.7695699999999998  0.7695500000000001  0.43717  1.0000
  C   C156      1.0  0.82256  0.8225  0.33714  1.0000
  C   C157      1.0  0.7424300000000001  0.025150000000000002  0.74249  1.0000
  C   C158      1.0  0.7695099999999999  0.023689999999999996  0.76957  1.0000
  C   C159      1.0  0.8224799999999999  0.017799999999999996  0.82252  1.0000
  C   C160      1.0  0.025159999999999953  0.7424600000000001  0.48988999999999994  1.0000
  C   C161      1.0  0.02368000000000018  0.7695199999999998  0.43717999999999996  1.0000
  C   C162      1.0  0.017790000000000146  0.8224599999999997  0.33715  1.0000
  C   C163      1.0  0.4899199999999998  0.74245  0.02516  1.0000
  C   C164      1.0  0.4372099999999999  0.7695199999999998  0.02368  1.0000
  C   C165      1.0  0.33719000000000016  0.8224599999999997  0.01777  1.0000
  C   C166      1.0  0.7424900000000001  0.48988999999999977  0.74245  1.0000
  C   C167      1.0  0.7695799999999997  0.43718999999999997  0.76953  1.0000
  C   C168      1.0  0.8225399999999998  0.33718000000000004  0.8224799999999999  1.0000
  C   C169      1.0  0.025140000000000003  0.74245  0.74242  1.0000
  C   C170      1.0  0.02367000000000001  0.76955  0.7695  1.0000
  C   C171      1.0  0.017770000000000084  0.8225200000000001  0.8224799999999999  1.0000
  C   C172      1.0  0.7424699999999997  0.48992  0.02516  1.0000
  C   C173      1.0  0.7695299999999998  0.4372099999999999  0.02367  1.0000
  C   C174      1.0  0.82248  0.33719  0.01775  1.0000
  C   C175      1.0  0.7424699999999997  0.02515999999999999  0.4899299999999999  1.0000
  C   C176      1.0  0.7695299999999998  0.023679999999999958  0.43722000000000005  1.0000
  C   C177      1.0  0.8225099999999997  0.017760000000000005  0.33718  1.0000
  C   C178      1.0  0.4898899999999997  0.7424999999999999  0.74242  1.0000
  C   C179      1.0  0.4371700000000001  0.7696099999999999  0.7695  1.0000
  C   C180      1.0  0.3371299999999998  0.8225699999999998  0.8225  1.0000
  C   C181      1.0  0.5100899999999995  0.25744  0.97481  1.0000
  C   C182      1.0  0.5628100000000003  0.23017999999999988  0.97633  1.0000
  C   C183      1.0  0.6628800000000001  0.1773899999999999  0.98221  1.0000
  C   C184      1.0  0.2575  0.97481  0.25752  1.0000
  C   C185      1.0  0.23043999999999987  0.97631  0.23042000000000004  1.0000
  C   C186      1.0  0.17747999999999992  0.98223  0.17747  1.0000
  C   C187      1.0  0.25749999999999984  0.51011  0.25756  1.0000
  C   C188      1.0  0.23040999999999998  0.56281  0.23048  1.0000
  C   C189      1.0  0.17746  0.66282  0.17753  1.0000
  C   C190      1.0  0.9748399999999999  0.25754  0.51011  1.0000
  C   C191      1.0  0.9763099999999999  0.23048  0.56282  1.0000
  C   C192      1.0  0.9822100000000001  0.17753999999999992  0.66285  1.0000
  C   C193      1.0  0.5100899999999999  0.97482  0.2576  1.0000
  C   C194      1.0  0.56282  0.97634  0.23064000000000004  1.0000
  C   C195      1.0  0.6629099999999996  0.98221  0.17752  1.0000
  C   C196      1.0  0.2575299999999999  0.2575  0.51014  1.0000
  C   C197      1.0  0.23045  0.23041  0.56286  1.0000
  C   C198      1.0  0.1774600000000001  0.17746000000000003  0.6629  1.0000
  C   C199      1.0  0.25764000000000004  0.25749  0.97483  1.0000
  C   C200      1.0  0.23068000000000002  0.23024000000000003  0.9763399999999999  1.0000
  C   C201      1.0  0.17755999999999994  0.1774199999999999  0.98222  1.0000
  C   C202      1.0  0.9748399999999999  0.5101099999999997  0.25755  1.0000
  C   C203      1.0  0.9763199999999999  0.56281  0.23049  1.0000
  C   C204      1.0  0.98221  0.66284  0.17756  1.0000
  C   C205      1.0  0.5100799999999999  0.2575399999999999  0.25755  1.0000
  C   C206      1.0  0.56279  0.23044  0.23047  1.0000
  C   C207      1.0  0.66284  0.17747  0.17747  1.0000
  C   C208      1.0  0.25749000000000005  0.51022  0.9747899999999999  1.0000
  C   C209      1.0  0.23040999999999992  0.5628699999999999  0.9763100000000001  1.0000
  C   C210      1.0  0.17748000000000014  0.6628599999999998  0.98225  1.0000
  C   C211      1.0  0.25763999999999987  0.97482  0.5101  1.0000
  C   C212      1.0  0.23071999999999993  0.97633  0.56282  1.0000
  C   C213      1.0  0.17759000000000003  0.98222  0.66288  1.0000
  C   C214      1.0  0.9748499999999996  0.25757  0.25756  1.0000
  C   C215      1.0  0.9763199999999996  0.23046999999999998  0.23048  1.0000
  C   C216      1.0  0.9822300000000002  0.17750999999999995  0.1775  1.0000
  N   N1        1.0  0.6932  0.76394  0.025259999999999998  1.0000
  N   N2        1.0  0.6844099999999997  0.72727  0.025380000000000003  1.0000
  N   N3        1.0  0.5174999999999998  0.025279999999999997  0.76397  1.0000
  N   N4        1.0  0.5628699999999998  0.02539000000000001  0.72734  1.0000
  N   N5        1.0  0.025269999999999997  0.51754  0.69323  1.0000
  N   N6        1.0  0.02538999999999993  0.56288  0.68445  1.0000
  N   N7        1.0  0.7639800000000001  0.69325  0.51749  1.0000
  N   N8        1.0  0.7273300000000001  0.6844299999999999  0.56286  1.0000
  N   N9        1.0  0.7639299999999998  0.025259999999999984  0.6932500000000001  1.0000
  N   N10       1.0  0.72727  0.02537999999999999  0.68444  1.0000
  N   N11       1.0  0.025270000000000053  0.76396  0.51752  1.0000
  N   N12       1.0  0.025380000000000038  0.7273299999999999  0.56286  1.0000
  N   N13       1.0  0.51756  0.6932299999999998  0.025280000000000004  1.0000
  N   N14       1.0  0.5629100000000001  0.6844499999999998  0.025390000000000003  1.0000
  N   N15       1.0  0.6932499999999999  0.51752  0.76395  1.0000
  N   N16       1.0  0.68445  0.5628599999999998  0.72731  1.0000
  N   N17       1.0  0.02526000000000005  0.6932299999999998  0.7639000000000001  1.0000
  N   N18       1.0  0.025379999999999927  0.6844  0.72725  1.0000
  N   N19       1.0  0.7639900000000001  0.5175299999999999  0.025269999999999997  1.0000
  N   N20       1.0  0.7273599999999999  0.5628799999999999  0.025390000000000003  1.0000
  N   N21       1.0  0.6932299999999998  0.025279999999999997  0.51759  1.0000
  N   N22       1.0  0.68446  0.02538999999999998  0.56293  1.0000
  N   N23       1.0  0.5175700000000003  0.76394  0.6932  1.0000
  N   N24       1.0  0.5629100000000001  0.72728  0.68442  1.0000
  N   N25       1.0  0.48200999999999994  0.23645000000000002  0.97468  1.0000
  N   N26       1.0  0.43688999999999995  0.27357000000000004  0.97444  1.0000
  N   N27       1.0  0.30671999999999994  0.97469  0.23603999999999997  1.0000
  N   N28       1.0  0.3155700000000001  0.9745399999999997  0.27269  1.0000
  N   N29       1.0  0.23600999999999986  0.48247999999999996  0.30679  1.0000
  N   N30       1.0  0.27265999999999985  0.43714999999999987  0.31559  1.0000
  N   N31       1.0  0.9747299999999997  0.30676000000000003  0.48248  1.0000
  N   N32       1.0  0.9746200000000002  0.31554  0.43713  1.0000
  N   N33       1.0  0.4820300000000001  0.97468  0.3068  1.0000
  N   N34       1.0  0.43689  0.97444  0.31503  1.0000
  N   N35       1.0  0.3067599999999998  0.23605000000000004  0.48247  1.0000
  N   N36       1.0  0.31554  0.2727099999999999  0.43713  1.0000
  N   N37       1.0  0.23575000000000002  0.30681  0.9746  1.0000
  N   N38       1.0  0.2720399999999999  0.31622999999999996  0.97436  1.0000
  N   N39       1.0  0.9747299999999998  0.4824899999999998  0.23603999999999997  1.0000
  N   N40       1.0  0.9746200000000005  0.43713999999999986  0.27266  1.0000
  N   N41       1.0  0.48246999999999984  0.30676  0.23607  1.0000
  N   N42       1.0  0.4371  0.31558  0.27271  1.0000
  N   N43       1.0  0.30671  0.48264  0.9746600000000001  1.0000
  N   N44       1.0  0.31557999999999997  0.4372799999999998  0.97453  1.0000
  N   N45       1.0  0.23568  0.97459  0.48294  1.0000
  N   N46       1.0  0.2719200000000001  0.9743699999999997  0.43745999999999996  1.0000
  N   N47       1.0  0.9747299999999991  0.23611  0.30679  1.0000
  N   N48       1.0  0.9746200000000002  0.27276  0.31559  1.0000
  N   N49       1.0  0.30682999999999977  0.23648000000000002  0.97467  1.0000
  N   N50       1.0  0.31512  0.27359  0.97441  1.0000
  N   N51       1.0  0.48290000000000005  0.9745999999999999  0.23567  1.0000
  N   N52       1.0  0.43742000000000003  0.9743799999999998  0.27192  1.0000
  N   N53       1.0  0.9747299999999995  0.48245999999999994  0.30678  1.0000
  N   N54       1.0  0.97462  0.43711999999999995  0.31555  1.0000
  N   N55       1.0  0.23602999999999996  0.3067199999999999  0.48254  1.0000
  N   N56       1.0  0.27267  0.31555  0.43717  1.0000
  N   N57       1.0  0.23600999999999994  0.97467  0.30675  1.0000
  N   N58       1.0  0.2726599999999997  0.9745299999999998  0.31559  1.0000
  N   N59       1.0  0.9747299999999995  0.23603999999999997  0.48248  1.0000
  N   N60       1.0  0.97462  0.27267  0.43714000000000003  1.0000
  N   N61       1.0  0.48292000000000007  0.30676  0.9746  1.0000
  N   N62       1.0  0.43744  0.3161999999999999  0.97438  1.0000
  N   N63       1.0  0.30674000000000007  0.4824799999999999  0.23607  1.0000
  N   N64       1.0  0.31553000000000003  0.43714999999999987  0.27271  1.0000
  N   N65       1.0  0.97474  0.3067799999999999  0.23608  1.0000
  N   N66       1.0  0.9746299999999999  0.3156  0.27274  1.0000
  N   N67       1.0  0.23602999999999988  0.48258  0.9746600000000001  1.0000
  N   N68       1.0  0.2726800000000001  0.4372499999999999  0.97453  1.0000
  N   N69       1.0  0.30683999999999995  0.97469  0.48201000000000005  1.0000
  N   N70       1.0  0.3150500000000001  0.9744400000000001  0.43689999999999996  1.0000
  N   N71       1.0  0.48242000000000007  0.23607999999999998  0.30678  1.0000
  N   N72       1.0  0.43707000000000007  0.27274  0.31558  1.0000
  N   N73       1.0  0.51756  0.76396  0.025269999999999997  1.0000
  N   N74       1.0  0.5629  0.72732  0.025390000000000003  1.0000
  N   N75       1.0  0.69319  0.025270000000000008  0.7639599999999999  1.0000
  N   N76       1.0  0.6843899999999997  0.025379999999999958  0.7273000000000001  1.0000
  N   N77       1.0  0.7639700000000001  0.51752  0.69323  1.0000
  N   N78       1.0  0.7273200000000002  0.5628599999999999  0.6844299999999999  1.0000
  N   N79       1.0  0.025280000000000056  0.6932299999999998  0.51752  1.0000
  N   N80       1.0  0.02539000000000021  0.6844499999999998  0.56287  1.0000
  N   N81       1.0  0.51757  0.025269999999999973  0.69321  1.0000
  N   N82       1.0  0.56292  0.02538000000000002  0.68445  1.0000
  N   N83       1.0  0.6932499999999997  0.76392  0.51754  1.0000
  N   N84       1.0  0.6844600000000001  0.7272700000000001  0.56288  1.0000
  N   N85       1.0  0.76392  0.69326  0.025269999999999997  1.0000
  N   N86       1.0  0.7272699999999996  0.6844199999999999  0.025390000000000003  1.0000
  N   N87       1.0  0.025270000000000053  0.51752  0.76397  1.0000
  N   N88       1.0  0.025389999999999985  0.56286  0.72734  1.0000
  N   N89       1.0  0.5174999999999998  0.69329  0.7639300000000001  1.0000
  N   N90       1.0  0.5628699999999996  0.68445  0.72729  1.0000
  N   N91       1.0  0.6932399999999999  0.51756  0.025269999999999997  1.0000
  N   N92       1.0  0.6844700000000001  0.5628999999999998  0.025390000000000003  1.0000
  N   N93       1.0  0.7639900000000001  0.025279999999999997  0.51754  1.0000
  N   N94       1.0  0.72735  0.02538999999999998  0.5629  1.0000
  N   N95       1.0  0.02525999999999999  0.76391  0.6932  1.0000
  N   N96       1.0  0.02539000000000004  0.7272499999999998  0.68439  1.0000
  O   O1        1.0  0.7715899999999999  0.92502  0.01241  1.0000
  O   O2        1.0  0.6995600000000001  0.92491  0.012589999999999999  1.0000
  O   O3        1.0  0.29088999999999976  0.012430000000000005  0.92502  1.0000
  O   O4        1.0  0.36287  0.012470000000000028  0.92495  1.0000
  O   O5        1.0  0.012400000000000105  0.29093999999999987  0.77157  1.0000
  O   O6        1.0  0.01252000000000001  0.36285999999999996  0.69959  1.0000
  O   O7        1.0  0.9250399999999999  0.77161  0.2909  1.0000
  O   O8        1.0  0.9249399999999997  0.69967  0.36285  1.0000
  O   O9        1.0  0.9250599999999999  0.012409999999999994  0.77154  1.0000
  O   O10       1.0  0.9249599999999997  0.01256999999999999  0.69956  1.0000
  O   O11       1.0  0.012479999999999939  0.92498  0.29091  1.0000
  O   O12       1.0  0.012510000000000063  0.9249499999999998  0.36286  1.0000
  O   O13       1.0  0.2909500000000001  0.7715299999999998  0.01243  1.0000
  O   O14       1.0  0.36286999999999997  0.69959  0.012520000000000002  1.0000
  O   O15       1.0  0.7715599999999996  0.29095999999999994  0.92497  1.0000
  O   O16       1.0  0.6996099999999998  0.3628499999999999  0.92494  1.0000
  O   O17       1.0  0.012409999999999914  0.7715500000000001  0.92503  1.0000
  O   O18       1.0  0.012560000000000137  0.6995999999999999  0.9249  1.0000
  O   O19       1.0  0.9250200000000001  0.2909299999999999  0.012500000000000002  1.0000
  O   O20       1.0  0.9249800000000001  0.36288  0.012520000000000002  1.0000
  O   O21       1.0  0.77157  0.012430000000000005  0.29095  1.0000
  O   O22       1.0  0.6995999999999998  0.012530000000000015  0.36288999999999993  1.0000
  O   O23       1.0  0.2909299999999999  0.92504  0.77164  1.0000
  O   O24       1.0  0.3628899999999997  0.9249599999999998  0.6996500000000001  1.0000
  O   O25       1.0  0.7092099999999997  0.07489999999999997  0.98754  1.0000
  O   O26       1.0  0.63721  0.07489999999999997  0.98753  1.0000
  O   O27       1.0  0.22849000000000008  0.9875499999999998  0.07493  1.0000
  O   O28       1.0  0.3004599999999999  0.9874099999999998  0.07503  1.0000
  O   O29       1.0  0.07499000000000007  0.7090399999999998  0.22842000000000004  1.0000
  O   O30       1.0  0.07503000000000003  0.6371199999999999  0.3004  1.0000
  O   O31       1.0  0.9875999999999997  0.22841999999999993  0.70908  1.0000
  O   O32       1.0  0.9874999999999996  0.30038  0.63714  1.0000
  O   O33       1.0  0.7092100000000001  0.9875699999999997  0.22839  1.0000
  O   O34       1.0  0.6372599999999997  0.98747  0.30037  1.0000
  O   O35       1.0  0.2283499999999998  0.07500999999999998  0.70912  1.0000
  O   O36       1.0  0.30035000000000006  0.07507000000000001  0.6371599999999998  1.0000
  O   O37       1.0  0.07501000000000001  0.22846999999999995  0.9875600000000001  1.0000
  O   O38       1.0  0.07517999999999997  0.30041000000000007  0.98741  1.0000
  O   O39       1.0  0.9874899999999999  0.70909  0.07503  1.0000
  O   O40       1.0  0.9874599999999999  0.6371499999999998  0.07506  1.0000
  O   O41       1.0  0.70907  0.22843  0.07495  1.0000
  O   O42       1.0  0.6371200000000001  0.3003199999999999  0.07507  1.0000
  O   O43       1.0  0.22845999999999997  0.70906  0.98758  1.0000
  O   O44       1.0  0.30039999999999994  0.63715  0.98747  1.0000
  O   O45       1.0  0.07505000000000014  0.9875299999999998  0.70905  1.0000
  O   O46       1.0  0.07514999999999991  0.9874900000000001  0.63706  1.0000
  O   O47       1.0  0.9875999999999999  0.07496  0.22846  1.0000
  O   O48       1.0  0.9874399999999998  0.07509  0.30043  1.0000
  O   O49       1.0  0.22844  0.07487999999999997  0.98757  1.0000
  O   O50       1.0  0.30044  0.07496999999999998  0.98742  1.0000
  O   O51       1.0  0.7091  0.9875  0.07503  1.0000
  O   O52       1.0  0.6370799999999995  0.98747  0.07512  1.0000
  O   O53       1.0  0.9876099999999997  0.70906  0.22843  1.0000
  O   O54       1.0  0.98748  0.6371299999999999  0.30041  1.0000
  O   O55       1.0  0.07496999999999995  0.22836000000000004  0.70913  1.0000
  O   O56       1.0  0.07508  0.30029  0.63717  1.0000
  O   O57       1.0  0.07493000000000027  0.9875799999999996  0.22847  1.0000
  O   O58       1.0  0.07505000000000003  0.9874299999999998  0.30044  1.0000
  O   O59       1.0  0.98754  0.07500999999999998  0.70908  1.0000
  O   O60       1.0  0.98753  0.07503999999999998  0.6371300000000001  1.0000
  O   O61       1.0  0.7090099999999996  0.22840999999999995  0.98758  1.0000
  O   O62       1.0  0.6370899999999998  0.30033000000000004  0.98747  1.0000
  O   O63       1.0  0.2284100000000001  0.7090299999999998  0.07503  1.0000
  O   O64       1.0  0.3003600000000001  0.6371399999999998  0.07506  1.0000
  O   O65       1.0  0.9875899999999995  0.22847999999999993  0.07494  1.0000
  O   O66       1.0  0.9874599999999999  0.30042  0.07508  1.0000
  O   O67       1.0  0.07495  0.70912  0.98749  1.0000
  O   O68       1.0  0.07500000000000008  0.6371499999999998  0.9874800000000001  1.0000
  O   O69       1.0  0.22838999999999993  0.9875900000000001  0.70919  1.0000
  O   O70       1.0  0.30041999999999996  0.98749  0.63722  1.0000
  O   O71       1.0  0.70908  0.07499  0.22845  1.0000
  O   O72       1.0  0.63713  0.07506999999999998  0.30038  1.0000
  O   O73       1.0  0.2909300000000001  0.9249599999999998  0.01248  1.0000
  O   O74       1.0  0.36290000000000006  0.9249299999999998  0.012500000000000002  1.0000
  O   O75       1.0  0.7716  0.01232999999999998  0.92506  1.0000
  O   O76       1.0  0.6995599999999998  0.012509999999999986  0.92498  1.0000
  O   O77       1.0  0.9250100000000001  0.29096  0.7715800000000002  1.0000
  O   O78       1.0  0.9249699999999998  0.36288  0.69961  1.0000
  O   O79       1.0  0.012400000000000078  0.77158  0.29092  1.0000
  O   O80       1.0  0.01250000000000006  0.6996099999999998  0.36286  1.0000
  O   O81       1.0  0.29091  0.012409999999999994  0.77162  1.0000
  O   O82       1.0  0.36287  0.01253  0.6996  1.0000
  O   O83       1.0  0.7716399999999999  0.92499  0.29095  1.0000
  O   O84       1.0  0.6996700000000002  0.9249299999999997  0.36287  1.0000
  O   O85       1.0  0.92503  0.77157  0.01243  1.0000
  O   O86       1.0  0.9249100000000001  0.6996099999999998  0.01258  1.0000
  O   O87       1.0  0.012530000000000015  0.29091  0.92497  1.0000
  O   O88       1.0  0.012550000000000078  0.3628499999999999  0.92494  1.0000
  O   O89       1.0  0.2909  0.7716099999999999  0.92501  1.0000
  O   O90       1.0  0.36284000000000005  0.69972  0.92489  1.0000
  O   O91       1.0  0.7715099999999998  0.29097  0.0124  1.0000
  O   O92       1.0  0.6995699999999998  0.36287  0.012520000000000002  1.0000
  O   O93       1.0  0.9250300000000001  0.012499999999999997  0.2909  1.0000
  O   O94       1.0  0.92498  0.01250999999999997  0.36288  1.0000
  O   O95       1.0  0.012450000000000152  0.9250599999999998  0.77149  1.0000
  O   O96       1.0  0.012600000000000153  0.9249299999999998  0.69953  1.0000
  O   O97       1.0  0.6611299999999999  0.66109  0.01677  1.0000
  O   O98       1.0  0.6611100000000002  0.016789999999999975  0.66111  1.0000
  O   O99       1.0  0.016770000000000156  0.6610999999999998  0.66111  1.0000
  O   O100      1.0  0.66109  0.6610499999999999  0.66108  1.0000
  O   O101      1.0  0.33842999999999995  0.33917  0.98403  1.0000
  O   O102      1.0  0.33832999999999996  0.98409  0.33834  1.0000
  O   O103      1.0  0.33888999999999997  0.33895000000000003  0.33893  1.0000
  O   O104      1.0  0.9831899999999996  0.33892  0.3389  1.0000
