data_image0
_chemical_formula_structural       Co8H176C224N32O40
_chemical_formula_sum              "Co8 H176 C224 N32 O40"
_cell_length_a       13.50016
_cell_length_b       17.28711
_cell_length_c       23.61416
_cell_angle_alpha    90.0
_cell_angle_beta     90.0
_cell_angle_gamma    90.0

_symmetry_space_group_name_H-M    'P 1'
_symmetry_Int_Tables_number       1

loop_
  _symmetry_equiv_pos_as_xyz
  'x,y,z'

loop_
  _atom_site_type_symbol
  _atom_site_label
  _atom_site_symmetry_multiplicity
  _atom_site_fract_x
  _atom_site_fract_y
  _atom_site_fract_z
  _atom_site_occupancy
  Co  Co1       1.0  0.51954  0.34977  0.57629  1.0000
  Co  Co2       1.0  0.51954  0.15023  0.92371  1.0000
  Co  Co3       1.0  0.98045  0.65023  0.07629  1.0000
  Co  Co4       1.0  0.98045  0.84977  0.4237099999999999  1.0000
  Co  Co5       1.0  0.4804500000000001  0.65023  0.4237099999999999  1.0000
  Co  Co6       1.0  0.4804500000000001  0.84977  0.07629  1.0000
  Co  Co7       1.0  0.01954  0.34977  0.92371  1.0000
  Co  Co8       1.0  0.01955  0.15023  0.57629  1.0000
  H   H1        1.0  0.19451  0.26399  0.49483  1.0000
  H   H2        1.0  0.08372  0.26591  0.40967999999999993  1.0000
  H   H3        1.0  0.29733000000000004  0.40477  0.32045  1.0000
  H   H4        1.0  0.40723  0.40387  0.40617  1.0000
  H   H5        1.0  0.1049  0.29681  0.20922  1.0000
  H   H6        1.0  0.06825  0.39276  0.13210999999999998  1.0000
  H   H7        1.0  0.08157  0.57758  0.25319  1.0000
  H   H8        1.0  0.12532  0.48186  0.32998  1.0000
  H   H9        1.0  0.60066  0.45322  0.47859999999999997  1.0000
  H   H10       1.0  0.8798700000000003  0.47085  0.55938  1.0000
  H   H11       1.0  0.7523300000000003  0.38274  0.6267499999999999  1.0000
  H   H12       1.0  0.85192  0.55207  0.47211999999999993  1.0000
  H   H13       1.0  0.7303000000000002  0.56175  0.44648  1.0000
  H   H14       1.0  0.84661  0.48603999999999997  0.26438  1.0000
  H   H15       1.0  0.88317  0.34582  0.27456  1.0000
  H   H16       1.0  0.87209  0.28398  0.3700999999999999  1.0000
  H   H17       1.0  0.82755  0.36234  0.45361  1.0000
  H   H18       1.0  0.7891800000000002  0.60077  0.29887  1.0000
  H   H19       1.0  0.72519  0.60661  0.36437  1.0000
  H   H20       1.0  0.78935  0.734  0.3987  1.0000
  H   H21       1.0  0.09703000000000002  0.69305  0.4029  1.0000
  H   H22       1.0  0.00088  0.56526  0.3534199999999999  1.0000
  H   H23       1.0  0.19451  0.23601  0.005169999999999999  1.0000
  H   H24       1.0  0.08372  0.23409  0.09032  1.0000
  H   H25       1.0  0.29733000000000004  0.09523  0.17954999999999996  1.0000
  H   H26       1.0  0.40723  0.09613  0.09383  1.0000
  H   H27       1.0  0.1049  0.20319  0.2907799999999999  1.0000
  H   H28       1.0  0.06825  0.10724  0.36789  1.0000
  H   H29       1.0  0.08157  0.92242  0.24681  1.0000
  H   H30       1.0  0.12532  0.01814  0.17001999999999995  1.0000
  H   H31       1.0  0.60066  0.04678  0.0214  1.0000
  H   H32       1.0  0.8798700000000003  0.02915  0.94062  1.0000
  H   H33       1.0  0.7523300000000003  0.11726  0.87325  1.0000
  H   H34       1.0  0.85192  0.9479300000000002  0.027879999999999995  1.0000
  H   H35       1.0  0.7303000000000002  0.9382499999999999  0.05352  1.0000
  H   H36       1.0  0.84661  0.01396  0.23561999999999994  1.0000
  H   H37       1.0  0.88317  0.15418  0.22543999999999995  1.0000
  H   H38       1.0  0.87209  0.21602  0.1299  1.0000
  H   H39       1.0  0.82755  0.13766  0.046389999999999994  1.0000
  H   H40       1.0  0.7891800000000002  0.89923  0.20113  1.0000
  H   H41       1.0  0.72519  0.89339  0.13563  1.0000
  H   H42       1.0  0.78935  0.766  0.1013  1.0000
  H   H43       1.0  0.09703000000000002  0.8069499999999998  0.0971  1.0000
  H   H44       1.0  0.00088  0.93474  0.14658  1.0000
  H   H45       1.0  0.30548000000000003  0.73601  0.9948299999999999  1.0000
  H   H46       1.0  0.41628  0.7341  0.90968  1.0000
  H   H47       1.0  0.20267  0.59523  0.8204499999999998  1.0000
  H   H48       1.0  0.09277  0.59613  0.9061699999999998  1.0000
  H   H49       1.0  0.39509  0.70319  0.70922  1.0000
  H   H50       1.0  0.43174  0.60724  0.6321099999999998  1.0000
  H   H51       1.0  0.41842  0.42242  0.7531899999999998  1.0000
  H   H52       1.0  0.37467  0.51814  0.82998  1.0000
  H   H53       1.0  0.89934  0.54678  0.9786  1.0000
  H   H54       1.0  0.6201300000000002  0.52915  0.059379999999999995  1.0000
  H   H55       1.0  0.74766  0.61726  0.12675  1.0000
  H   H56       1.0  0.6480700000000003  0.44793  0.9721099999999998  1.0000
  H   H57       1.0  0.76969  0.43825  0.94648  1.0000
  H   H58       1.0  0.6533900000000001  0.51396  0.7643799999999998  1.0000
  H   H59       1.0  0.6168200000000001  0.65418  0.7745599999999999  1.0000
  H   H60       1.0  0.6279000000000002  0.71602  0.8701  1.0000
  H   H61       1.0  0.67245  0.63766  0.9536099999999997  1.0000
  H   H62       1.0  0.7108200000000002  0.39923  0.79887  1.0000
  H   H63       1.0  0.77481  0.39339  0.8643699999999999  1.0000
  H   H64       1.0  0.71065  0.266  0.8987  1.0000
  H   H65       1.0  0.40296  0.30695  0.9029  1.0000
  H   H66       1.0  0.49912  0.43473999999999996  0.85342  1.0000
  H   H67       1.0  0.30548000000000003  0.76399  0.50516  1.0000
  H   H68       1.0  0.41628  0.76591  0.59032  1.0000
  H   H69       1.0  0.20267  0.90477  0.67955  1.0000
  H   H70       1.0  0.09277  0.90387  0.59383  1.0000
  H   H71       1.0  0.39509  0.79681  0.79078  1.0000
  H   H72       1.0  0.43174  0.89276  0.86788  1.0000
  H   H73       1.0  0.41842  0.07758  0.74681  1.0000
  H   H74       1.0  0.37467  0.9818600000000001  0.6700199999999998  1.0000
  H   H75       1.0  0.89934  0.95322  0.5214  1.0000
  H   H76       1.0  0.6201300000000002  0.9708499999999999  0.44061999999999996  1.0000
  H   H77       1.0  0.74766  0.88274  0.37324999999999997  1.0000
  H   H78       1.0  0.6480700000000003  0.05207  0.52788  1.0000
  H   H79       1.0  0.76969  0.06174999999999999  0.55352  1.0000
  H   H80       1.0  0.6533900000000001  0.9860399999999999  0.73562  1.0000
  H   H81       1.0  0.6168200000000001  0.84582  0.72544  1.0000
  H   H82       1.0  0.6279000000000002  0.78398  0.6299  1.0000
  H   H83       1.0  0.67245  0.86234  0.54639  1.0000
  H   H84       1.0  0.7108200000000002  0.10077  0.7011299999999998  1.0000
  H   H85       1.0  0.77481  0.10661  0.63563  1.0000
  H   H86       1.0  0.71065  0.234  0.6013  1.0000
  H   H87       1.0  0.40296  0.19305  0.5970999999999999  1.0000
  H   H88       1.0  0.49912  0.06526  0.64658  1.0000
  H   H89       1.0  0.80548  0.73601  0.50517  1.0000
  H   H90       1.0  0.9162800000000001  0.7341  0.59032  1.0000
  H   H91       1.0  0.7026700000000002  0.59523  0.67955  1.0000
  H   H92       1.0  0.59277  0.59613  0.59383  1.0000
  H   H93       1.0  0.89509  0.70319  0.79078  1.0000
  H   H94       1.0  0.9317400000000001  0.60724  0.86788  1.0000
  H   H95       1.0  0.9184200000000001  0.42242  0.74681  1.0000
  H   H96       1.0  0.8746700000000002  0.51814  0.6700199999999998  1.0000
  H   H97       1.0  0.39934  0.54678  0.5214  1.0000
  H   H98       1.0  0.12013  0.52915  0.44061999999999996  1.0000
  H   H99       1.0  0.24766000000000002  0.61726  0.37324999999999997  1.0000
  H   H100      1.0  0.14808  0.44793  0.52788  1.0000
  H   H101      1.0  0.26969  0.43825  0.55352  1.0000
  H   H102      1.0  0.15339000000000005  0.51396  0.73562  1.0000
  H   H103      1.0  0.11683  0.65418  0.72544  1.0000
  H   H104      1.0  0.1279  0.71602  0.6299  1.0000
  H   H105      1.0  0.17245  0.63766  0.54639  1.0000
  H   H106      1.0  0.21082  0.39923  0.7011299999999998  1.0000
  H   H107      1.0  0.27481  0.39339  0.63563  1.0000
  H   H108      1.0  0.21065  0.266  0.6013  1.0000
  H   H109      1.0  0.9029600000000001  0.30695  0.5970999999999999  1.0000
  H   H110      1.0  0.99911  0.43473999999999996  0.64658  1.0000
  H   H111      1.0  0.80548  0.76399  0.9948299999999999  1.0000
  H   H112      1.0  0.9162800000000001  0.76591  0.90968  1.0000
  H   H113      1.0  0.7026700000000002  0.90477  0.8204499999999998  1.0000
  H   H114      1.0  0.59277  0.90387  0.9061699999999998  1.0000
  H   H115      1.0  0.89509  0.79681  0.70922  1.0000
  H   H116      1.0  0.9317400000000001  0.89276  0.6321099999999998  1.0000
  H   H117      1.0  0.9184200000000001  0.07758  0.7531899999999998  1.0000
  H   H118      1.0  0.8746700000000002  0.9818600000000001  0.82998  1.0000
  H   H119      1.0  0.39934  0.95322  0.9786  1.0000
  H   H120      1.0  0.12013  0.9708499999999999  0.059379999999999995  1.0000
  H   H121      1.0  0.24766000000000002  0.88274  0.12675  1.0000
  H   H122      1.0  0.14808  0.05207  0.9721099999999998  1.0000
  H   H123      1.0  0.26969  0.06174999999999999  0.94648  1.0000
  H   H124      1.0  0.15339000000000005  0.9860399999999999  0.7643799999999998  1.0000
  H   H125      1.0  0.11683  0.84582  0.7745599999999999  1.0000
  H   H126      1.0  0.1279  0.78398  0.8701  1.0000
  H   H127      1.0  0.17245  0.86234  0.9536099999999997  1.0000
  H   H128      1.0  0.21082  0.10077  0.79887  1.0000
  H   H129      1.0  0.27481  0.10661  0.8643699999999999  1.0000
  H   H130      1.0  0.21065  0.234  0.8987  1.0000
  H   H131      1.0  0.9029600000000001  0.19305  0.9029  1.0000
  H   H132      1.0  0.99911  0.06526  0.85342  1.0000
  H   H133      1.0  0.69451  0.26399  0.00516  1.0000
  H   H134      1.0  0.58372  0.26591  0.09032  1.0000
  H   H135      1.0  0.79732  0.40477  0.17954999999999996  1.0000
  H   H136      1.0  0.90723  0.40387  0.09383  1.0000
  H   H137      1.0  0.6049000000000001  0.29681  0.2907799999999999  1.0000
  H   H138      1.0  0.56825  0.39276  0.36788  1.0000
  H   H139      1.0  0.58157  0.57758  0.24681  1.0000
  H   H140      1.0  0.62532  0.48186  0.17001999999999995  1.0000
  H   H141      1.0  0.10066  0.45322  0.0214  1.0000
  H   H142      1.0  0.3798700000000001  0.47085  0.94062  1.0000
  H   H143      1.0  0.25233  0.38274  0.87325  1.0000
  H   H144      1.0  0.35192000000000007  0.55207  0.027879999999999995  1.0000
  H   H145      1.0  0.23030000000000006  0.56175  0.05352  1.0000
  H   H146      1.0  0.3466100000000001  0.48603999999999997  0.23561999999999994  1.0000
  H   H147      1.0  0.38317  0.34582  0.22543999999999995  1.0000
  H   H148      1.0  0.3720900000000001  0.28398  0.1299  1.0000
  H   H149      1.0  0.32755  0.36234  0.046389999999999994  1.0000
  H   H150      1.0  0.28918  0.60077  0.20113  1.0000
  H   H151      1.0  0.22519  0.60661  0.13563  1.0000
  H   H152      1.0  0.28935  0.734  0.1013  1.0000
  H   H153      1.0  0.5970300000000001  0.69305  0.0971  1.0000
  H   H154      1.0  0.50088  0.56526  0.14658  1.0000
  H   H155      1.0  0.69451  0.23601  0.49483  1.0000
  H   H156      1.0  0.58372  0.23409  0.40967999999999993  1.0000
  H   H157      1.0  0.7973300000000002  0.09523  0.32045  1.0000
  H   H158      1.0  0.90723  0.09613  0.40617  1.0000
  H   H159      1.0  0.6049000000000001  0.20319  0.20922  1.0000
  H   H160      1.0  0.56825  0.10724  0.13210999999999998  1.0000
  H   H161      1.0  0.58157  0.92242  0.25319  1.0000
  H   H162      1.0  0.62532  0.01814  0.32998  1.0000
  H   H163      1.0  0.10066  0.04678  0.47859999999999997  1.0000
  H   H164      1.0  0.3798700000000001  0.02915  0.55938  1.0000
  H   H165      1.0  0.25233  0.11726  0.6267499999999999  1.0000
  H   H166      1.0  0.35192000000000007  0.9479300000000002  0.4721099999999999  1.0000
  H   H167      1.0  0.23030000000000006  0.9382499999999999  0.44648  1.0000
  H   H168      1.0  0.3466100000000001  0.01396  0.26438  1.0000
  H   H169      1.0  0.38317  0.15418  0.27456  1.0000
  H   H170      1.0  0.3720900000000001  0.21602  0.3700999999999999  1.0000
  H   H171      1.0  0.32755  0.13766  0.45361  1.0000
  H   H172      1.0  0.28918  0.89923  0.29887  1.0000
  H   H173      1.0  0.22519  0.89339  0.36437  1.0000
  H   H174      1.0  0.28935  0.766  0.3987  1.0000
  H   H175      1.0  0.5970300000000001  0.8069499999999998  0.4029  1.0000
  H   H176      1.0  0.50088  0.93474  0.3534199999999999  1.0000
  C   C1        1.0  0.30828  0.3327  0.45518999999999993  1.0000
  C   C2        1.0  0.21649000000000004  0.29470999999999997  0.4566299999999999  1.0000
  C   C3        1.0  0.15454  0.29582  0.4095399999999999  1.0000
  C   C4        1.0  0.18495000000000006  0.33523  0.36079  1.0000
  C   C5        1.0  0.27538  0.37463  0.35881999999999986  1.0000
  C   C6        1.0  0.33677  0.3732  0.40623  1.0000
  C   C7        1.0  0.37547  0.33101  0.50504  1.0000
  C   C8        1.0  0.11479000000000002  0.38452  0.27342  1.0000
  C   C9        1.0  0.10009  0.35833  0.21809999999999996  1.0000
  C   C10       1.0  0.0792  0.41151  0.17566999999999997  1.0000
  C   C11       1.0  0.07152  0.4905999999999999  0.18826  1.0000
  C   C12       1.0  0.08824  0.51609  0.24394  1.0000
  C   C13       1.0  0.11141  0.46333  0.28669999999999995  1.0000
  C   C14       1.0  0.04492  0.54533  0.14212  1.0000
  C   C15       1.0  0.6578500000000003  0.44422999999999996  0.51027  1.0000
  C   C16       1.0  0.8035700000000002  0.45341  0.55361  1.0000
  C   C17       1.0  0.74016  0.40933  0.58584  1.0000
  C   C18       1.0  0.78703  0.51905  0.45774  1.0000
  C   C19       1.0  0.81203  0.46908  0.40690999999999994  1.0000
  C   C20       1.0  0.8159200000000002  0.50342  0.35273999999999994  1.0000
  C   C21       1.0  0.84208  0.4584599999999999  0.30577  1.0000
  C   C22       1.0  0.8627000000000001  0.37975  0.31153999999999993  1.0000
  C   C23       1.0  0.85736  0.34546  0.36495  1.0000
  C   C24       1.0  0.83225  0.39  0.41227999999999987  1.0000
  C   C25       1.0  0.7947800000000002  0.58826  0.34431999999999996  1.0000
  C   C26       1.0  0.86149  0.7085999999999999  0.3913999999999999  1.0000
  C   C27       1.0  0.01988  0.68266  0.3933799999999999  1.0000
  C   C28       1.0  0.9738400000000003  0.61974  0.3696499999999999  1.0000
  C   C29       1.0  0.30828  0.1673  0.044809999999999996  1.0000
  C   C30       1.0  0.21649000000000004  0.20529  0.043369999999999985  1.0000
  C   C31       1.0  0.15454  0.20417999999999997  0.09045999999999998  1.0000
  C   C32       1.0  0.18495000000000006  0.16477  0.13921  1.0000
  C   C33       1.0  0.27538  0.12537  0.14118  1.0000
  C   C34       1.0  0.33677  0.1268  0.09377  1.0000
  C   C35       1.0  0.37547  0.16899  0.9949499999999999  1.0000
  C   C36       1.0  0.11479000000000002  0.11548  0.22657999999999998  1.0000
  C   C37       1.0  0.10009  0.14167  0.2819  1.0000
  C   C38       1.0  0.0792  0.08849  0.32433  1.0000
  C   C39       1.0  0.07152  0.0094  0.31174  1.0000
  C   C40       1.0  0.08824  0.98391  0.25606  1.0000
  C   C41       1.0  0.11141  0.03667  0.2133  1.0000
  C   C42       1.0  0.04492  0.95468  0.35788  1.0000
  C   C43       1.0  0.6578500000000003  0.05577  0.98973  1.0000
  C   C44       1.0  0.8035700000000002  0.04659  0.94639  1.0000
  C   C45       1.0  0.74016  0.09068  0.91416  1.0000
  C   C46       1.0  0.78703  0.9809499999999999  0.04226  1.0000
  C   C47       1.0  0.81203  0.030920000000000003  0.09308999999999998  1.0000
  C   C48       1.0  0.8159200000000002  0.99659  0.14726  1.0000
  C   C49       1.0  0.84208  0.04154  0.19423  1.0000
  C   C50       1.0  0.86271  0.12025  0.18846  1.0000
  C   C51       1.0  0.85736  0.15454  0.13505  1.0000
  C   C52       1.0  0.83225  0.11  0.08772  1.0000
  C   C53       1.0  0.7947800000000002  0.91174  0.15568  1.0000
  C   C54       1.0  0.86149  0.7914  0.1086  1.0000
  C   C55       1.0  0.01988  0.81734  0.10661999999999998  1.0000
  C   C56       1.0  0.9738400000000003  0.88026  0.13035  1.0000
  C   C57       1.0  0.19172  0.6673  0.9551899999999998  1.0000
  C   C58       1.0  0.28351  0.70529  0.9566299999999998  1.0000
  C   C59       1.0  0.34546  0.70418  0.90954  1.0000
  C   C60       1.0  0.31505  0.66477  0.86079  1.0000
  C   C61       1.0  0.22461  0.62537  0.8588199999999999  1.0000
  C   C62       1.0  0.16323  0.6268  0.9062299999999999  1.0000
  C   C63       1.0  0.12453  0.66899  0.00505  1.0000
  C   C64       1.0  0.3852  0.61548  0.77342  1.0000
  C   C65       1.0  0.3999  0.64167  0.7180999999999998  1.0000
  C   C66       1.0  0.42079  0.58849  0.67567  1.0000
  C   C67       1.0  0.42848  0.5094  0.68826  1.0000
  C   C68       1.0  0.41176  0.48391000000000006  0.74394  1.0000
  C   C69       1.0  0.3885800000000001  0.53667  0.7866999999999997  1.0000
  C   C70       1.0  0.45508  0.45468  0.6421199999999999  1.0000
  C   C71       1.0  0.84214  0.55577  0.01027  1.0000
  C   C72       1.0  0.6964300000000002  0.54659  0.05361  1.0000
  C   C73       1.0  0.75983  0.59068  0.08584  1.0000
  C   C74       1.0  0.71297  0.48095000000000004  0.95774  1.0000
  C   C75       1.0  0.6879700000000001  0.53092  0.90691  1.0000
  C   C76       1.0  0.68407  0.49659  0.85274  1.0000
  C   C77       1.0  0.6579200000000001  0.54154  0.80577  1.0000
  C   C78       1.0  0.63729  0.62025  0.81154  1.0000
  C   C79       1.0  0.64263  0.65454  0.86495  1.0000
  C   C80       1.0  0.66774  0.61  0.91228  1.0000
  C   C81       1.0  0.70521  0.41174  0.8443199999999998  1.0000
  C   C82       1.0  0.63851  0.2914  0.8914  1.0000
  C   C83       1.0  0.48011  0.31734  0.8933799999999997  1.0000
  C   C84       1.0  0.52615  0.38026  0.8696499999999998  1.0000
  C   C85       1.0  0.19172  0.8327  0.54481  1.0000
  C   C86       1.0  0.28351  0.79471  0.54337  1.0000
  C   C87       1.0  0.34546  0.79582  0.59046  1.0000
  C   C88       1.0  0.31505  0.83523  0.6392099999999998  1.0000
  C   C89       1.0  0.22461  0.87463  0.64117  1.0000
  C   C90       1.0  0.16323  0.8732  0.5937699999999999  1.0000
  C   C91       1.0  0.12453  0.83101  0.49495  1.0000
  C   C92       1.0  0.3852  0.88452  0.7265799999999999  1.0000
  C   C93       1.0  0.39991000000000004  0.85833  0.7819  1.0000
  C   C94       1.0  0.42079  0.91151  0.82433  1.0000
  C   C95       1.0  0.42848  0.9905999999999999  0.81174  1.0000
  C   C96       1.0  0.41176  0.01609  0.7560599999999998  1.0000
  C   C97       1.0  0.3885800000000001  0.9633300000000001  0.7133  1.0000
  C   C98       1.0  0.45508  0.04533  0.85788  1.0000
  C   C99       1.0  0.84214  0.9442300000000001  0.48972999999999994  1.0000
  C   C100      1.0  0.6964300000000002  0.9534099999999999  0.44639  1.0000
  C   C101      1.0  0.75983  0.90932  0.41416  1.0000
  C   C102      1.0  0.71297  0.01905  0.5422599999999999  1.0000
  C   C103      1.0  0.6879700000000001  0.96908  0.59309  1.0000
  C   C104      1.0  0.68407  0.00342  0.64726  1.0000
  C   C105      1.0  0.65791  0.9584599999999999  0.6942299999999999  1.0000
  C   C106      1.0  0.63729  0.87975  0.6884599999999998  1.0000
  C   C107      1.0  0.64263  0.84546  0.6350499999999999  1.0000
  C   C108      1.0  0.66774  0.89  0.58772  1.0000
  C   C109      1.0  0.70521  0.08826  0.6556799999999999  1.0000
  C   C110      1.0  0.63851  0.2086  0.6086  1.0000
  C   C111      1.0  0.48011  0.18266  0.60662  1.0000
  C   C112      1.0  0.52616  0.11973999999999999  0.63035  1.0000
  C   C113      1.0  0.6917200000000002  0.6673  0.54481  1.0000
  C   C114      1.0  0.78351  0.70529  0.54337  1.0000
  C   C115      1.0  0.8454600000000002  0.70418  0.59046  1.0000
  C   C116      1.0  0.81505  0.66477  0.6392099999999998  1.0000
  C   C117      1.0  0.72461  0.62537  0.64117  1.0000
  C   C118      1.0  0.66323  0.6268  0.5937699999999999  1.0000
  C   C119      1.0  0.62452  0.66899  0.49495  1.0000
  C   C120      1.0  0.8852  0.61548  0.7265799999999999  1.0000
  C   C121      1.0  0.8999  0.64167  0.7819  1.0000
  C   C122      1.0  0.9207900000000002  0.58849  0.82433  1.0000
  C   C123      1.0  0.9284800000000002  0.5094  0.81174  1.0000
  C   C124      1.0  0.91176  0.48391000000000006  0.7560599999999998  1.0000
  C   C125      1.0  0.8885800000000003  0.53667  0.7133  1.0000
  C   C126      1.0  0.95508  0.45468  0.85788  1.0000
  C   C127      1.0  0.34214000000000006  0.55577  0.48972999999999994  1.0000
  C   C128      1.0  0.19643  0.54659  0.44639  1.0000
  C   C129      1.0  0.25983  0.59068  0.41416  1.0000
  C   C130      1.0  0.21297000000000005  0.48095000000000004  0.5422599999999999  1.0000
  C   C131      1.0  0.18797  0.53092  0.59309  1.0000
  C   C132      1.0  0.18407  0.49659  0.64726  1.0000
  C   C133      1.0  0.15792  0.54154  0.6942299999999999  1.0000
  C   C134      1.0  0.13729  0.62025  0.6884599999999998  1.0000
  C   C135      1.0  0.14264  0.65454  0.6350499999999999  1.0000
  C   C136      1.0  0.16775  0.61  0.58772  1.0000
  C   C137      1.0  0.20521  0.41174  0.6556799999999999  1.0000
  C   C138      1.0  0.13851  0.2914  0.6086  1.0000
  C   C139      1.0  0.98011  0.31734  0.60662  1.0000
  C   C140      1.0  0.02616  0.38026  0.63035  1.0000
  C   C141      1.0  0.6917200000000002  0.8327  0.9551899999999998  1.0000
  C   C142      1.0  0.78351  0.79471  0.9566299999999998  1.0000
  C   C143      1.0  0.8454600000000002  0.79582  0.90954  1.0000
  C   C144      1.0  0.81505  0.83523  0.86079  1.0000
  C   C145      1.0  0.72461  0.87463  0.8588199999999999  1.0000
  C   C146      1.0  0.66323  0.8732  0.9062299999999999  1.0000
  C   C147      1.0  0.62453  0.83101  0.00504  1.0000
  C   C148      1.0  0.8852  0.88452  0.77342  1.0000
  C   C149      1.0  0.8999  0.85833  0.7180999999999998  1.0000
  C   C150      1.0  0.9207900000000002  0.91151  0.67567  1.0000
  C   C151      1.0  0.9284800000000002  0.9905999999999999  0.68826  1.0000
  C   C152      1.0  0.91176  0.01609  0.74394  1.0000
  C   C153      1.0  0.8885800000000003  0.9633300000000001  0.7866999999999997  1.0000
  C   C154      1.0  0.95508  0.04533  0.6421199999999999  1.0000
  C   C155      1.0  0.34214000000000006  0.9442300000000001  0.01027  1.0000
  C   C156      1.0  0.19643  0.9534099999999999  0.05361  1.0000
  C   C157      1.0  0.25983  0.90932  0.08584  1.0000
  C   C158      1.0  0.21297000000000005  0.01905  0.95774  1.0000
  C   C159      1.0  0.18797  0.96908  0.90691  1.0000
  C   C160      1.0  0.18407  0.00342  0.85274  1.0000
  C   C161      1.0  0.15792  0.9584599999999999  0.80577  1.0000
  C   C162      1.0  0.13729  0.87975  0.81154  1.0000
  C   C163      1.0  0.14264  0.84546  0.86495  1.0000
  C   C164      1.0  0.16775  0.89  0.91228  1.0000
  C   C165      1.0  0.20521  0.08826  0.8443199999999998  1.0000
  C   C166      1.0  0.13851  0.2086  0.8914  1.0000
  C   C167      1.0  0.98011  0.18266  0.8933799999999997  1.0000
  C   C168      1.0  0.02616  0.11973999999999999  0.8696499999999998  1.0000
  C   C169      1.0  0.80827  0.3327  0.044809999999999996  1.0000
  C   C170      1.0  0.71649  0.29470999999999997  0.043369999999999985  1.0000
  C   C171      1.0  0.65454  0.29582  0.09045999999999998  1.0000
  C   C172      1.0  0.68495  0.33523  0.13921  1.0000
  C   C173      1.0  0.77538  0.37463  0.14116999999999996  1.0000
  C   C174      1.0  0.83677  0.3732  0.09377  1.0000
  C   C175      1.0  0.87547  0.33101  0.9949499999999999  1.0000
  C   C176      1.0  0.61479  0.38452  0.22657999999999998  1.0000
  C   C177      1.0  0.6000900000000002  0.35833  0.2819  1.0000
  C   C178      1.0  0.5792  0.41151  0.32433  1.0000
  C   C179      1.0  0.57151  0.4905999999999999  0.31174  1.0000
  C   C180      1.0  0.58824  0.51609  0.25606  1.0000
  C   C181      1.0  0.61141  0.46333  0.2133  1.0000
  C   C182      1.0  0.54492  0.54533  0.35787  1.0000
  C   C183      1.0  0.15786000000000006  0.44422999999999996  0.98973  1.0000
  C   C184      1.0  0.30357000000000006  0.45341  0.94639  1.0000
  C   C185      1.0  0.24016  0.40933  0.91416  1.0000
  C   C186      1.0  0.28703  0.51905  0.04226  1.0000
  C   C187      1.0  0.31203  0.46908  0.09308999999999998  1.0000
  C   C188      1.0  0.31592000000000003  0.50342  0.14726  1.0000
  C   C189      1.0  0.34208  0.4584599999999999  0.19423  1.0000
  C   C190      1.0  0.36271  0.37975  0.18846  1.0000
  C   C191      1.0  0.35736  0.34546  0.13505  1.0000
  C   C192      1.0  0.33225  0.39  0.08772  1.0000
  C   C193      1.0  0.29479  0.58826  0.15568  1.0000
  C   C194      1.0  0.36149  0.7085999999999999  0.1086  1.0000
  C   C195      1.0  0.51988  0.68266  0.10661999999999998  1.0000
  C   C196      1.0  0.47384000000000004  0.61974  0.13035  1.0000
  C   C197      1.0  0.80827  0.1673  0.45518999999999993  1.0000
  C   C198      1.0  0.71649  0.20529  0.4566299999999999  1.0000
  C   C199      1.0  0.65454  0.20417999999999997  0.4095399999999999  1.0000
  C   C200      1.0  0.68495  0.16477  0.36079  1.0000
  C   C201      1.0  0.77538  0.12537  0.35881999999999986  1.0000
  C   C202      1.0  0.83677  0.1268  0.40623  1.0000
  C   C203      1.0  0.87547  0.16899  0.50504  1.0000
  C   C204      1.0  0.61479  0.11548  0.27342  1.0000
  C   C205      1.0  0.6000900000000002  0.14167  0.21809999999999996  1.0000
  C   C206      1.0  0.5792  0.08849  0.17566999999999997  1.0000
  C   C207      1.0  0.57151  0.0094  0.18826  1.0000
  C   C208      1.0  0.58824  0.98391  0.24394  1.0000
  C   C209      1.0  0.61141  0.03667  0.28669999999999995  1.0000
  C   C210      1.0  0.54492  0.95468  0.14212  1.0000
  C   C211      1.0  0.15786000000000006  0.05577  0.51027  1.0000
  C   C212      1.0  0.30357000000000006  0.04659  0.55361  1.0000
  C   C213      1.0  0.24016  0.09068  0.58584  1.0000
  C   C214      1.0  0.28703  0.9809499999999999  0.45774  1.0000
  C   C215      1.0  0.31203  0.030920000000000003  0.40690999999999994  1.0000
  C   C216      1.0  0.31592000000000003  0.99659  0.35273999999999994  1.0000
  C   C217      1.0  0.34208  0.04154  0.30577  1.0000
  C   C218      1.0  0.36271  0.12025  0.31153999999999993  1.0000
  C   C219      1.0  0.35736  0.15454  0.36495  1.0000
  C   C220      1.0  0.33225  0.11  0.41227999999999987  1.0000
  C   C221      1.0  0.29479  0.91174  0.34431999999999996  1.0000
  C   C222      1.0  0.36149  0.7914  0.3913999999999999  1.0000
  C   C223      1.0  0.51988  0.81734  0.3933799999999999  1.0000
  C   C224      1.0  0.47384000000000004  0.88026  0.3696499999999999  1.0000
  N   N1        1.0  0.64984  0.40354  0.55822  1.0000
  N   N2        1.0  0.7502  0.47525  0.5062  1.0000
  N   N3        1.0  0.8735700000000001  0.637  0.36868  1.0000
  N   N4        1.0  0.94919  0.73802  0.40657  1.0000
  N   N5        1.0  0.64984  0.09646  0.94178  1.0000
  N   N6        1.0  0.7502  0.02475  0.9938  1.0000
  N   N7        1.0  0.8735700000000001  0.863  0.13132  1.0000
  N   N8        1.0  0.94919  0.76198  0.09342999999999997  1.0000
  N   N9        1.0  0.85016  0.59646  0.05821999999999999  1.0000
  N   N10       1.0  0.7498  0.52475  0.006199999999999998  1.0000
  N   N11       1.0  0.6264200000000002  0.36299999999999993  0.8686799999999999  1.0000
  N   N12       1.0  0.5508  0.26198  0.90657  1.0000
  N   N13       1.0  0.85016  0.90354  0.4417799999999999  1.0000
  N   N14       1.0  0.7498  0.97525  0.4937999999999999  1.0000
  N   N15       1.0  0.6264200000000002  0.137  0.63132  1.0000
  N   N16       1.0  0.5508  0.23801999999999998  0.59343  1.0000
  N   N17       1.0  0.35016  0.59646  0.4417799999999999  1.0000
  N   N18       1.0  0.24980000000000002  0.52475  0.4937999999999999  1.0000
  N   N19       1.0  0.12642  0.36299999999999993  0.63132  1.0000
  N   N20       1.0  0.05081  0.26198  0.59343  1.0000
  N   N21       1.0  0.35016  0.90354  0.05821999999999999  1.0000
  N   N22       1.0  0.24980000000000002  0.97525  0.006199999999999998  1.0000
  N   N23       1.0  0.12642  0.137  0.8686799999999999  1.0000
  N   N24       1.0  0.05081  0.23801999999999998  0.90657  1.0000
  N   N25       1.0  0.14984  0.40354  0.94178  1.0000
  N   N26       1.0  0.2502  0.47525  0.9938  1.0000
  N   N27       1.0  0.37357  0.637  0.13132  1.0000
  N   N28       1.0  0.4491900000000001  0.73802  0.09342999999999997  1.0000
  N   N29       1.0  0.14984  0.09646  0.55822  1.0000
  N   N30       1.0  0.2502  0.02475  0.5062  1.0000
  N   N31       1.0  0.37357  0.863  0.36868  1.0000
  N   N32       1.0  0.4491900000000001  0.76198  0.40657  1.0000
  O   O1        1.0  0.46495  0.3552  0.4973099999999999  1.0000
  O   O2        1.0  0.34549000000000013  0.30837  0.55325  1.0000
  O   O3        1.0  0.04509  0.52315  0.09101  1.0000
  O   O4        1.0  0.02057  0.61561  0.15482  1.0000
  O   O5        1.0  0.12391000000000002  0.32717  0.31409  1.0000
  O   O6        1.0  0.46495  0.1448  0.0026899999999999997  1.0000
  O   O7        1.0  0.34549000000000013  0.19163  0.9467499999999998  1.0000
  O   O8        1.0  0.04509  0.97685  0.40898999999999996  1.0000
  O   O9        1.0  0.020580000000000005  0.88439  0.34518  1.0000
  O   O10       1.0  0.12391000000000002  0.17283  0.18591  1.0000
  O   O11       1.0  0.03505  0.6448  0.9973099999999998  1.0000
  O   O12       1.0  0.1545  0.69163  0.05325  1.0000
  O   O13       1.0  0.45491  0.47684999999999994  0.5910099999999999  1.0000
  O   O14       1.0  0.4794200000000001  0.38439  0.65482  1.0000
  O   O15       1.0  0.37608  0.67283  0.81409  1.0000
  O   O16       1.0  0.03505  0.8552  0.50269  1.0000
  O   O17       1.0  0.1545  0.80837  0.4467499999999999  1.0000
  O   O18       1.0  0.45491  0.02315  0.9089899999999999  1.0000
  O   O19       1.0  0.4794200000000001  0.11561  0.84518  1.0000
  O   O20       1.0  0.37609  0.82718  0.6859099999999999  1.0000
  O   O21       1.0  0.53505  0.6448  0.50269  1.0000
  O   O22       1.0  0.6545  0.69163  0.4467499999999999  1.0000
  O   O23       1.0  0.95491  0.47684999999999994  0.9089899999999999  1.0000
  O   O24       1.0  0.97942  0.38439  0.84518  1.0000
  O   O25       1.0  0.87608  0.67283  0.6859099999999999  1.0000
  O   O26       1.0  0.53505  0.8552  0.9973099999999998  1.0000
  O   O27       1.0  0.6545  0.80837  0.05325  1.0000
  O   O28       1.0  0.95491  0.02315  0.5910099999999999  1.0000
  O   O29       1.0  0.97942  0.11561  0.65482  1.0000
  O   O30       1.0  0.87608  0.82718  0.81409  1.0000
  O   O31       1.0  0.9649500000000002  0.3552  0.0026899999999999997  1.0000
  O   O32       1.0  0.84549  0.30837  0.9467499999999998  1.0000
  O   O33       1.0  0.54509  0.52315  0.40898999999999996  1.0000
  O   O34       1.0  0.52057  0.61561  0.34518  1.0000
  O   O35       1.0  0.62391  0.32717  0.18591  1.0000
  O   O36       1.0  0.9649500000000002  0.1448  0.4973099999999999  1.0000
  O   O37       1.0  0.84549  0.19163  0.55325  1.0000
  O   O38       1.0  0.54509  0.97685  0.09101  1.0000
  O   O39       1.0  0.52057  0.88439  0.15482  1.0000
  O   O40       1.0  0.62391  0.17283  0.31409  1.0000
