data_image0
_chemical_formula_structural       Zn16B8H152C184N80O32
_chemical_formula_sum              "Zn16 B8 H152 C184 N80 O32"
_cell_length_a       13.12532
_cell_length_b       13.12532
_cell_length_c       54.04424000000001
_cell_angle_alpha    90.00045
_cell_angle_beta     89.99955
_cell_angle_gamma    90.0

_symmetry_space_group_name_H-M    'P 1'
_symmetry_Int_Tables_number       1

loop_
  _symmetry_equiv_pos_as_xyz
  'x,y,z'

loop_
  _atom_site_type_symbol
  _atom_site_label
  _atom_site_symmetry_multiplicity
  _atom_site_fract_x
  _atom_site_fract_y
  _atom_site_fract_z
  _atom_site_occupancy
  Zn  Zn1       1.0  0.15847000000000006  0.12444  0.8843400000000002  1.0000
  Zn  Zn2       1.0  0.32574  0.059470000000000016  0.6847  1.0000
  Zn  Zn3       1.0  0.8415600000000001  0.87555  0.38431  1.0000
  Zn  Zn4       1.0  0.67425  0.9406000000000002  0.18471000000000004  1.0000
  Zn  Zn5       1.0  0.3755600000000001  0.65847  0.13433  1.0000
  Zn  Zn6       1.0  0.4405600000000001  0.82577  0.9347000000000001  1.0000
  Zn  Zn7       1.0  0.62444  0.34154  0.6343200000000001  1.0000
  Zn  Zn8       1.0  0.55944  0.17426000000000003  0.43471  1.0000
  Zn  Zn9       1.0  0.34154  0.62445  0.3656800000000001  1.0000
  Zn  Zn10      1.0  0.17426000000000003  0.55944  0.56529  1.0000
  Zn  Zn11      1.0  0.6584600000000003  0.3755700000000001  0.86567  1.0000
  Zn  Zn12      1.0  0.8257600000000003  0.4405600000000001  0.06529000000000001  1.0000
  Zn  Zn13      1.0  0.12443  0.15848000000000007  0.11566000000000003  1.0000
  Zn  Zn14      1.0  0.059470000000000016  0.32575  0.31529  1.0000
  Zn  Zn15      1.0  0.8755400000000001  0.8415600000000001  0.61569  1.0000
  Zn  Zn16      1.0  0.9405900000000003  0.67425  0.8152900000000002  1.0000
  B   B1        1.0  0.26322000000000007  0.52951  0.8719800000000002  1.0000
  B   B2        1.0  0.7367700000000003  0.47049  0.37198  1.0000
  B   B3        1.0  0.9704900000000002  0.7632300000000002  0.12198000000000003  1.0000
  B   B4        1.0  0.029500000000000005  0.23678  0.62197  1.0000
  B   B5        1.0  0.23677  0.02951  0.37802  1.0000
  B   B6        1.0  0.7632300000000002  0.9705000000000001  0.8780200000000002  1.0000
  B   B7        1.0  0.52951  0.2632300000000001  0.12802  1.0000
  B   B8        1.0  0.47049  0.7367800000000002  0.62802  1.0000
  H   H1        1.0  0.054560000000000004  0.5302700000000001  0.8531700000000001  1.0000
  H   H2        1.0  0.32535  0.6970000000000002  0.83999  1.0000
  H   H3        1.0  0.16731  0.77549  0.81102  1.0000
  H   H4        1.0  0.28975000000000006  0.30987000000000003  0.86828  1.0000
  H   H5        1.0  0.0016600000000000002  0.31225000000000014  0.9030100000000002  1.0000
  H   H6        1.0  0.06503  0.5112000000000001  0.8967600000000002  1.0000
  H   H7        1.0  0.4677900000000001  0.48226000000000013  0.89007  1.0000
  H   H8        1.0  0.30748  0.46297  0.8220900000000002  1.0000
  H   H9        1.0  0.4999900000000001  0.37713  0.81689  1.0000
  H   H10       1.0  0.33709  0.9570600000000001  0.88617  1.0000
  H   H11       1.0  0.33346  0.9931600000000003  0.96363  1.0000
  H   H12       1.0  0.20324  0.13581  0.94199  1.0000
  H   H13       1.0  0.35384  0.7307300000000002  0.88125  1.0000
  H   H14       1.0  0.36183  0.6153500000000002  0.9539100000000003  1.0000
  H   H15       1.0  0.2615  0.47600000000000003  0.9236  1.0000
  H   H16       1.0  0.36143  0.19556  0.8051800000000002  1.0000
  H   H17       1.0  0.37065000000000003  0.16315000000000004  0.75931  1.0000
  H   H18       1.0  0.12719  0.9458300000000002  0.76604  1.0000
  H   H19       1.0  0.11492000000000002  0.9824600000000001  0.81086  1.0000
  H   H20       1.0  0.94543  0.46974  0.35317  1.0000
  H   H21       1.0  0.6746400000000002  0.30300000000000005  0.33998000000000006  1.0000
  H   H22       1.0  0.8327100000000002  0.22452000000000005  0.31102  1.0000
  H   H23       1.0  0.7102500000000003  0.6901400000000002  0.36829000000000006  1.0000
  H   H24       1.0  0.9983500000000001  0.6877300000000001  0.40301  1.0000
  H   H25       1.0  0.9349500000000001  0.48879  0.39676000000000006  1.0000
  H   H26       1.0  0.5322  0.51776  0.39007  1.0000
  H   H27       1.0  0.6925100000000002  0.53704  0.32209000000000004  1.0000
  H   H28       1.0  0.5  0.6228900000000003  0.3168900000000001  1.0000
  H   H29       1.0  0.6629400000000002  0.0429  0.3861800000000001  1.0000
  H   H30       1.0  0.6665200000000001  0.006870000000000002  0.4636400000000001  1.0000
  H   H31       1.0  0.79673  0.8642300000000003  0.4420000000000001  1.0000
  H   H32       1.0  0.64614  0.26928  0.38124  1.0000
  H   H33       1.0  0.63816  0.38466000000000006  0.4539100000000001  1.0000
  H   H34       1.0  0.7384900000000002  0.5240100000000001  0.4236  1.0000
  H   H35       1.0  0.63851  0.8044  0.3051800000000001  1.0000
  H   H36       1.0  0.62942  0.8369500000000002  0.25932000000000005  1.0000
  H   H37       1.0  0.8727600000000002  0.05413000000000001  0.26605  1.0000
  H   H38       1.0  0.88515  0.017620000000000004  0.3108700000000001  1.0000
  H   H39       1.0  0.9697400000000002  0.5545800000000001  0.10317000000000003  1.0000
  H   H40       1.0  0.8030100000000002  0.8253600000000001  0.08999  1.0000
  H   H41       1.0  0.72453  0.6673100000000001  0.061030000000000015  1.0000
  H   H42       1.0  0.19014000000000006  0.78977  0.11829  1.0000
  H   H43       1.0  0.18775  0.50167  0.15301000000000003  1.0000
  H   H44       1.0  0.9888  0.5650500000000002  0.14676  1.0000
  H   H45       1.0  0.01775  0.9678000000000002  0.14008000000000004  1.0000
  H   H46       1.0  0.03704  0.8075000000000001  0.07209000000000002  1.0000
  H   H47       1.0  0.12288000000000003  1.0000000000000003e-05  0.06689000000000002  1.0000
  H   H48       1.0  0.5429500000000002  0.8370900000000002  0.13618  1.0000
  H   H49       1.0  0.50685  0.8334800000000002  0.21364  1.0000
  H   H50       1.0  0.3642100000000001  0.70325  0.19200000000000003  1.0000
  H   H51       1.0  0.7692800000000001  0.85386  0.13125  1.0000
  H   H52       1.0  0.8846700000000002  0.8618400000000002  0.20392000000000005  1.0000
  H   H53       1.0  0.024010000000000007  0.7615200000000002  0.17361000000000004  1.0000
  H   H54       1.0  0.30443  0.8614500000000003  0.055180000000000014  1.0000
  H   H55       1.0  0.3369200000000001  0.87061  0.00932  1.0000
  H   H56       1.0  0.55415  0.6272300000000002  0.01604  1.0000
  H   H57       1.0  0.5175900000000001  0.61487  0.06086  1.0000
  H   H58       1.0  0.03026  0.44543  0.60317  1.0000
  H   H59       1.0  0.19699000000000003  0.17465000000000006  0.58998  1.0000
  H   H60       1.0  0.27548  0.3327000000000001  0.56102  1.0000
  H   H61       1.0  0.8098700000000002  0.21026  0.6182800000000003  1.0000
  H   H62       1.0  0.8122600000000002  0.4983500000000001  0.65301  1.0000
  H   H63       1.0  0.011210000000000001  0.4349600000000001  0.6467600000000001  1.0000
  H   H64       1.0  0.9822300000000003  0.0322  0.64007  1.0000
  H   H65       1.0  0.9629700000000001  0.19253000000000003  0.57209  1.0000
  H   H66       1.0  0.8771100000000002  2.0000000000000005e-05  0.56689  1.0000
  H   H67       1.0  0.4570900000000001  0.16293  0.6361700000000002  1.0000
  H   H68       1.0  0.4931300000000001  0.16653000000000007  0.71363  1.0000
  H   H69       1.0  0.6357900000000002  0.29674  0.6920000000000002  1.0000
  H   H70       1.0  0.23071000000000005  0.14616000000000004  0.63124  1.0000
  H   H71       1.0  0.11535000000000002  0.13817  0.7039100000000001  1.0000
  H   H72       1.0  0.97599  0.2385  0.6736000000000002  1.0000
  H   H73       1.0  0.69558  0.13853000000000001  0.55518  1.0000
  H   H74       1.0  0.6631100000000001  0.12938  0.50931  1.0000
  H   H75       1.0  0.44584  0.3728  0.51604  1.0000
  H   H76       1.0  0.48241  0.38511  0.56087  1.0000
  H   H77       1.0  0.44543  0.030270000000000005  0.39683  1.0000
  H   H78       1.0  0.17464000000000005  0.197  0.4100100000000001  1.0000
  H   H79       1.0  0.3327000000000001  0.27549  0.43898  1.0000
  H   H80       1.0  0.21025  0.8098700000000002  0.38172  1.0000
  H   H81       1.0  0.4983500000000001  0.8122700000000003  0.34699  1.0000
  H   H82       1.0  0.4349600000000001  0.011210000000000001  0.3532400000000001  1.0000
  H   H83       1.0  0.0322  0.9822400000000002  0.3599300000000001  1.0000
  H   H84       1.0  0.19252000000000002  0.9629700000000001  0.4279100000000001  1.0000
  H   H85       1.0  1.0000000000000003e-05  0.8771200000000001  0.4331100000000001  1.0000
  H   H86       1.0  0.16293  0.4571000000000001  0.36383  1.0000
  H   H87       1.0  0.16652  0.49314000000000013  0.28637  1.0000
  H   H88       1.0  0.29674  0.6358000000000001  0.3080000000000001  1.0000
  H   H89       1.0  0.14615000000000003  0.23072000000000006  0.36876  1.0000
  H   H90       1.0  0.13816  0.11536000000000003  0.29609000000000013  1.0000
  H   H91       1.0  0.23849  0.976  0.32639  1.0000
  H   H92       1.0  0.13852000000000003  0.69559  0.44482000000000005  1.0000
  H   H93       1.0  0.12938  0.66312  0.49069  1.0000
  H   H94       1.0  0.37279  0.44585  0.4839600000000001  1.0000
  H   H95       1.0  0.3851  0.48242  0.43913000000000013  1.0000
  H   H96       1.0  0.5545700000000001  0.9697400000000002  0.89683  1.0000
  H   H97       1.0  0.8253600000000001  0.8030200000000002  0.91001  1.0000
  H   H98       1.0  0.6673000000000001  0.72453  0.9389700000000002  1.0000
  H   H99       1.0  0.78976  0.19014000000000006  0.8817100000000002  1.0000
  H   H100      1.0  0.50166  0.18775  0.84699  1.0000
  H   H101      1.0  0.56504  0.98881  0.85323  1.0000
  H   H102      1.0  0.9677900000000003  0.01775  0.8599200000000001  1.0000
  H   H103      1.0  0.8074900000000002  0.03705000000000001  0.9279  1.0000
  H   H104      1.0  0.0  0.12289000000000003  0.93311  1.0000
  H   H105      1.0  0.8370800000000003  0.5429500000000002  0.8638200000000003  1.0000
  H   H106      1.0  0.8334700000000003  0.50685  0.78636  1.0000
  H   H107      1.0  0.70325  0.36422000000000004  0.8080000000000003  1.0000
  H   H108      1.0  0.85386  0.76929  0.86875  1.0000
  H   H109      1.0  0.8618400000000002  0.8846800000000002  0.79608  1.0000
  H   H110      1.0  0.7615100000000001  0.024010000000000007  0.82639  1.0000
  H   H111      1.0  0.8614500000000003  0.30443  0.94481  1.0000
  H   H112      1.0  0.8706  0.3369300000000001  0.9906800000000001  1.0000
  H   H113      1.0  0.6272300000000002  0.5541600000000001  0.9839500000000002  1.0000
  H   H114      1.0  0.61487  0.5176000000000001  0.9391300000000002  1.0000
  H   H115      1.0  0.5302700000000001  0.05457  0.14683  1.0000
  H   H116      1.0  0.6969900000000001  0.32536  0.16001  1.0000
  H   H117      1.0  0.77548  0.16731  0.18898  1.0000
  H   H118      1.0  0.3098600000000001  0.2897600000000001  0.13172000000000003  1.0000
  H   H119      1.0  0.31224000000000013  0.0016700000000000003  0.09699000000000002  1.0000
  H   H120      1.0  0.5111900000000001  0.06504  0.10324000000000003  1.0000
  H   H121      1.0  0.4822500000000001  0.4677900000000001  0.10993  1.0000
  H   H122      1.0  0.46297  0.30748  0.17791000000000007  1.0000
  H   H123      1.0  0.37712  0.4999900000000001  0.18311  1.0000
  H   H124      1.0  0.9570600000000001  0.3371  0.11383000000000001  1.0000
  H   H125      1.0  0.9931500000000002  0.33347  0.036370000000000006  1.0000
  H   H126      1.0  0.1358  0.20325  0.058010000000000006  1.0000
  H   H127      1.0  0.7307200000000003  0.35385  0.11875000000000002  1.0000
  H   H128      1.0  0.6153400000000002  0.36184  0.04609  1.0000
  H   H129      1.0  0.47599  0.2615100000000001  0.07639  1.0000
  H   H130      1.0  0.19555  0.36144  0.19482  1.0000
  H   H131      1.0  0.16314000000000006  0.37065000000000003  0.24069000000000004  1.0000
  H   H132      1.0  0.9458300000000002  0.1272  0.23396000000000003  1.0000
  H   H133      1.0  0.9824500000000002  0.11492000000000002  0.18914000000000006  1.0000
  H   H134      1.0  0.46973  0.94543  0.6468300000000002  1.0000
  H   H135      1.0  0.30300000000000005  0.67465  0.6600200000000002  1.0000
  H   H136      1.0  0.22452000000000005  0.8327100000000002  0.6889700000000002  1.0000
  H   H137      1.0  0.6901300000000002  0.7102500000000003  0.6317100000000002  1.0000
  H   H138      1.0  0.6877200000000001  0.9983600000000001  0.59698  1.0000
  H   H139      1.0  0.48878  0.9349600000000001  0.6032400000000002  1.0000
  H   H140      1.0  0.51776  0.53221  0.60992  1.0000
  H   H141      1.0  0.53704  0.6925200000000002  0.6779100000000002  1.0000
  H   H142      1.0  0.6228800000000002  0.50001  0.68311  1.0000
  H   H143      1.0  0.0429  0.6629500000000002  0.6138200000000003  1.0000
  H   H144      1.0  0.006870000000000002  0.6665200000000001  0.53636  1.0000
  H   H145      1.0  0.8642200000000002  0.79674  0.558  1.0000
  H   H146      1.0  0.26927  0.64615  0.61875  1.0000
  H   H147      1.0  0.38465000000000005  0.6381700000000002  0.54608  1.0000
  H   H148      1.0  0.524  0.7384900000000002  0.5763900000000001  1.0000
  H   H149      1.0  0.80439  0.6385200000000001  0.6948100000000003  1.0000
  H   H150      1.0  0.8369500000000002  0.62943  0.74068  1.0000
  H   H151      1.0  0.05413000000000001  0.8727700000000002  0.7339500000000001  1.0000
  H   H152      1.0  0.01761  0.88516  0.6891300000000001  1.0000
  C   C1        1.0  0.10589000000000003  0.5881100000000001  0.84618  1.0000
  C   C2        1.0  0.24552  0.67692  0.8391000000000002  1.0000
  C   C3        1.0  0.1682  0.7147200000000002  0.8246200000000001  1.0000
  C   C4        1.0  0.22144  0.33844  0.8771400000000003  1.0000
  C   C5        1.0  0.07234000000000002  0.3411700000000001  0.8953000000000002  1.0000
  C   C6        1.0  0.10184  0.44047  0.8917600000000002  1.0000
  C   C7        1.0  0.45056  0.46595  0.8708700000000003  1.0000
  C   C8        1.0  0.3692100000000001  0.4544  0.83516  1.0000
  C   C9        1.0  0.4643500000000001  0.4120300000000001  0.8328300000000002  1.0000
  C   C10       1.0  0.3191200000000001  0.98594  0.9044400000000002  1.0000
  C   C11       1.0  0.31511  0.00802  0.9444500000000002  1.0000
  C   C12       1.0  0.25050000000000006  0.07758000000000001  0.9336800000000002  1.0000
  C   C13       1.0  0.3424500000000001  0.681  0.8969700000000003  1.0000
  C   C14       1.0  0.3442700000000001  0.61814  0.93436  1.0000
  C   C15       1.0  0.29545  0.5490000000000002  0.9195  1.0000
  C   C16       1.0  0.23521000000000003  0.11117  0.83819  1.0000
  C   C17       1.0  0.2387  0.09052000000000002  0.81092  1.0000
  C   C18       1.0  0.31071000000000004  0.14146  0.7962300000000001  1.0000
  C   C19       1.0  0.3157600000000001  0.12351000000000002  0.77088  1.0000
  C   C20       1.0  0.25002  0.05268000000000001  0.7597000000000003  1.0000
  C   C21       1.0  0.17786000000000005  0.00176  0.7743300000000001  1.0000
  C   C22       1.0  0.17178  0.02116000000000001  0.79965  1.0000
  C   C23       1.0  0.25544  0.03228  0.73237  1.0000
  C   C24       1.0  0.8941100000000002  0.41191  0.34618  1.0000
  C   C25       1.0  0.7544800000000003  0.32308000000000003  0.3391000000000001  1.0000
  C   C26       1.0  0.8318100000000003  0.28529  0.32462  1.0000
  C   C27       1.0  0.7785500000000002  0.66157  0.37715  1.0000
  C   C28       1.0  0.9276600000000003  0.6588200000000001  0.3953100000000001  1.0000
  C   C29       1.0  0.8981500000000002  0.55952  0.3917600000000001  1.0000
  C   C30       1.0  0.5494300000000001  0.5340700000000002  0.37087000000000003  1.0000
  C   C31       1.0  0.6307800000000001  0.5456200000000001  0.33516  1.0000
  C   C32       1.0  0.53564  0.5879900000000001  0.33283  1.0000
  C   C33       1.0  0.6808900000000001  0.01404  0.40445  1.0000
  C   C34       1.0  0.6848800000000003  0.992  0.44446000000000013  1.0000
  C   C35       1.0  0.7494800000000003  0.92244  0.43369000000000013  1.0000
  C   C36       1.0  0.65754  0.31901  0.3969700000000001  1.0000
  C   C37       1.0  0.65573  0.38187  0.4343600000000001  1.0000
  C   C38       1.0  0.7045400000000002  0.45101  0.4195000000000001  1.0000
  C   C39       1.0  0.7647800000000002  0.8888400000000002  0.33818  1.0000
  C   C40       1.0  0.76128  0.9095000000000001  0.31092  1.0000
  C   C41       1.0  0.6892700000000002  0.8585100000000001  0.29624  1.0000
  C   C42       1.0  0.6842900000000001  0.87655  0.27088  1.0000
  C   C43       1.0  0.74999  0.9474200000000003  0.25971  1.0000
  C   C44       1.0  0.82214  0.9982400000000001  0.27435  1.0000
  C   C45       1.0  0.82827  0.9788600000000002  0.29967  1.0000
  C   C46       1.0  0.7445300000000001  0.9679200000000002  0.23237000000000005  1.0000
  C   C47       1.0  0.9119100000000002  0.6059000000000001  0.09618  1.0000
  C   C48       1.0  0.82309  0.7455200000000001  0.0891  1.0000
  C   C49       1.0  0.7852900000000002  0.6682000000000001  0.07462  1.0000
  C   C50       1.0  0.16157  0.7214600000000002  0.12714  1.0000
  C   C51       1.0  0.15883  0.5723500000000001  0.14531000000000002  1.0000
  C   C52       1.0  0.05953000000000001  0.60185  0.14176  1.0000
  C   C53       1.0  0.03406  0.95058  0.12087000000000003  1.0000
  C   C54       1.0  0.04561  0.8692300000000002  0.08516  1.0000
  C   C55       1.0  0.08798000000000002  0.9643700000000002  0.08283  1.0000
  C   C56       1.0  0.51407  0.8191200000000002  0.15445  1.0000
  C   C57       1.0  0.4920000000000001  0.8151200000000001  0.19446  1.0000
  C   C58       1.0  0.42244000000000004  0.7505100000000001  0.18369  1.0000
  C   C59       1.0  0.8190100000000002  0.84247  0.14698  1.0000
  C   C60       1.0  0.8818700000000003  0.84428  0.18436  1.0000
  C   C61       1.0  0.9510100000000001  0.7954600000000002  0.1695  1.0000
  C   C62       1.0  0.3888400000000001  0.7352100000000001  0.08818  1.0000
  C   C63       1.0  0.4095  0.7386900000000001  0.060920000000000016  1.0000
  C   C64       1.0  0.3585300000000001  0.8107100000000003  0.04624000000000002  1.0000
  C   C65       1.0  0.3765200000000001  0.8157400000000002  0.020890000000000002  1.0000
  C   C66       1.0  0.4473700000000001  0.75003  0.00971  1.0000
  C   C67       1.0  0.4982400000000001  0.67787  0.02434  1.0000
  C   C68       1.0  0.4788600000000001  0.67175  0.04966  1.0000
  C   C69       1.0  0.4678200000000001  0.7554800000000003  0.98237  1.0000
  C   C70       1.0  0.08809000000000002  0.39411  0.59618  1.0000
  C   C71       1.0  0.17692  0.25449  0.5891  1.0000
  C   C72       1.0  0.21472  0.3318100000000001  0.5746200000000001  1.0000
  C   C73       1.0  0.83843  0.27856000000000003  0.6271400000000001  1.0000
  C   C74       1.0  0.8411800000000003  0.42767  0.64531  1.0000
  C   C75       1.0  0.9404800000000002  0.3981600000000001  0.6417600000000001  1.0000
  C   C76       1.0  0.96593  0.04944000000000001  0.62087  1.0000
  C   C77       1.0  0.9543900000000002  0.1308  0.5851600000000001  1.0000
  C   C78       1.0  0.91202  0.03566  0.58283  1.0000
  C   C79       1.0  0.4859600000000001  0.18089  0.6544400000000001  1.0000
  C   C80       1.0  0.50801  0.18488000000000002  0.69445  1.0000
  C   C81       1.0  0.57757  0.24949  0.6836800000000002  1.0000
  C   C82       1.0  0.18098000000000006  0.15755  0.6469700000000002  1.0000
  C   C83       1.0  0.11813000000000003  0.15573000000000006  0.68436  1.0000
  C   C84       1.0  0.04899  0.20455000000000007  0.66949  1.0000
  C   C85       1.0  0.6111700000000001  0.26476000000000005  0.58819  1.0000
  C   C86       1.0  0.5905200000000002  0.26127  0.5609300000000002  1.0000
  C   C87       1.0  0.6414800000000003  0.18927000000000005  0.54623  1.0000
  C   C88       1.0  0.62348  0.18426  0.52088  1.0000
  C   C89       1.0  0.55262  0.24999000000000005  0.50971  1.0000
  C   C90       1.0  0.50176  0.3221500000000001  0.5243400000000001  1.0000
  C   C91       1.0  0.52115  0.32824  0.54967  1.0000
  C   C92       1.0  0.53219  0.24454000000000004  0.48237  1.0000
  C   C93       1.0  0.3941  0.0881  0.40382  1.0000
  C   C94       1.0  0.25448  0.17692  0.4109000000000001  1.0000
  C   C95       1.0  0.3318  0.21472  0.42538  1.0000
  C   C96       1.0  0.27856000000000003  0.83844  0.37286000000000014  1.0000
  C   C97       1.0  0.42767  0.8411800000000003  0.3546900000000001  1.0000
  C   C98       1.0  0.3981500000000001  0.9404800000000002  0.3582400000000001  1.0000
  C   C99       1.0  0.04944000000000001  0.9659400000000002  0.37913000000000013  1.0000
  C   C100      1.0  0.13079000000000002  0.9544000000000001  0.41484  1.0000
  C   C101      1.0  0.03565  0.9120300000000001  0.4171700000000001  1.0000
  C   C102      1.0  0.18088  0.4859700000000001  0.3455600000000001  1.0000
  C   C103      1.0  0.18488000000000002  0.50801  0.3055400000000001  1.0000
  C   C104      1.0  0.24948  0.57758  0.3163200000000001  1.0000
  C   C105      1.0  0.15754  0.18099000000000007  0.3530300000000001  1.0000
  C   C106      1.0  0.15573000000000006  0.11814000000000001  0.31564  1.0000
  C   C107      1.0  0.20454000000000006  0.04899  0.3305000000000001  1.0000
  C   C108      1.0  0.26476000000000005  0.6111800000000002  0.41181  1.0000
  C   C109      1.0  0.26126  0.5905200000000002  0.43907  1.0000
  C   C110      1.0  0.18926000000000007  0.6414800000000003  0.45377  1.0000
  C   C111      1.0  0.18426  0.62349  0.4791200000000001  1.0000
  C   C112      1.0  0.24998000000000006  0.55263  0.49029000000000006  1.0000
  C   C113      1.0  0.3221400000000001  0.50176  0.47565000000000013  1.0000
  C   C114      1.0  0.32823  0.52116  0.45033  1.0000
  C   C115      1.0  0.24454000000000004  0.53219  0.51763  1.0000
  C   C116      1.0  0.6058900000000002  0.9119100000000002  0.90382  1.0000
  C   C117      1.0  0.7455200000000001  0.82309  0.9109000000000003  1.0000
  C   C118      1.0  0.6682000000000001  0.7852900000000002  0.92538  1.0000
  C   C119      1.0  0.7214500000000003  0.16157  0.87285  1.0000
  C   C120      1.0  0.57234  0.15884  0.85469  1.0000
  C   C121      1.0  0.60184  0.05953000000000001  0.8582400000000002  1.0000
  C   C122      1.0  0.95057  0.03407000000000001  0.87913  1.0000
  C   C123      1.0  0.8692200000000002  0.045620000000000015  0.9148300000000003  1.0000
  C   C124      1.0  0.9643600000000002  0.08799000000000001  0.91716  1.0000
  C   C125      1.0  0.8191200000000002  0.51408  0.84555  1.0000
  C   C126      1.0  0.8151100000000001  0.4920000000000001  0.80554  1.0000
  C   C127      1.0  0.7505100000000001  0.42244000000000004  0.81631  1.0000
  C   C128      1.0  0.84246  0.8190100000000002  0.85302  1.0000
  C   C129      1.0  0.84427  0.8818800000000002  0.8156300000000002  1.0000
  C   C130      1.0  0.7954600000000002  0.9510200000000002  0.8305  1.0000
  C   C131      1.0  0.7352000000000002  0.3888500000000001  0.91182  1.0000
  C   C132      1.0  0.7386900000000001  0.40951  0.93907  1.0000
  C   C133      1.0  0.8107000000000002  0.35854000000000014  0.95376  1.0000
  C   C134      1.0  0.8157300000000002  0.3765300000000001  0.9791100000000003  1.0000
  C   C135      1.0  0.75003  0.4473700000000001  0.99029  1.0000
  C   C136      1.0  0.67787  0.4982400000000001  0.9756600000000002  1.0000
  C   C137      1.0  0.67174  0.4788600000000001  0.95034  1.0000
  C   C138      1.0  0.7554700000000002  0.4678200000000001  0.01763  1.0000
  C   C139      1.0  0.5881000000000001  0.10590000000000002  0.15382000000000007  1.0000
  C   C140      1.0  0.67692  0.24552  0.1609  1.0000
  C   C141      1.0  0.7147200000000002  0.16821  0.17538  1.0000
  C   C142      1.0  0.33843  0.22145  0.12286000000000002  1.0000
  C   C143      1.0  0.34116000000000013  0.07234000000000002  0.10469  1.0000
  C   C144      1.0  0.44047  0.10185000000000002  0.10824000000000003  1.0000
  C   C145      1.0  0.46594000000000013  0.45057  0.12913  1.0000
  C   C146      1.0  0.45439  0.3692200000000001  0.16484000000000001  1.0000
  C   C147      1.0  0.4120300000000001  0.4643600000000001  0.16717000000000007  1.0000
  C   C148      1.0  0.9859300000000001  0.31913000000000014  0.09556000000000003  1.0000
  C   C149      1.0  0.00801  0.31512  0.05555  1.0000
  C   C150      1.0  0.07757000000000001  0.25051000000000007  0.06632000000000002  1.0000
  C   C151      1.0  0.6809900000000001  0.3424600000000001  0.10302000000000003  1.0000
  C   C152      1.0  0.6181300000000001  0.3442700000000001  0.06564  1.0000
  C   C153      1.0  0.5489900000000001  0.29545  0.0805  1.0000
  C   C154      1.0  0.11117  0.23522000000000004  0.16181  1.0000
  C   C155      1.0  0.09051000000000002  0.23871000000000006  0.18907000000000002  1.0000
  C   C156      1.0  0.14146  0.31072000000000005  0.20377  1.0000
  C   C157      1.0  0.12351000000000002  0.3157700000000001  0.22912000000000005  1.0000
  C   C158      1.0  0.05267  0.25003  0.24030000000000004  1.0000
  C   C159      1.0  0.00175  0.17787000000000003  0.22567000000000006  1.0000
  C   C160      1.0  0.02115  0.17178  0.20034000000000005  1.0000
  C   C161      1.0  0.03227000000000001  0.25545  0.26763  1.0000
  C   C162      1.0  0.4119  0.8941100000000002  0.65382  1.0000
  C   C163      1.0  0.32308000000000003  0.7544900000000002  0.6609000000000002  1.0000
  C   C164      1.0  0.28528  0.8318200000000002  0.6753800000000002  1.0000
  C   C165      1.0  0.66156  0.7785600000000001  0.62285  1.0000
  C   C166      1.0  0.6588100000000001  0.92767  0.60469  1.0000
  C   C167      1.0  0.55952  0.8981600000000002  0.6082400000000001  1.0000
  C   C168      1.0  0.53406  0.54944  0.6291300000000002  1.0000
  C   C169      1.0  0.5456100000000002  0.6307900000000001  0.66484  1.0000
  C   C170      1.0  0.58798  0.53565  0.6671700000000003  1.0000
  C   C171      1.0  0.014030000000000004  0.6809000000000001  0.59555  1.0000
  C   C172      1.0  0.992  0.6848900000000002  0.55554  1.0000
  C   C173      1.0  0.92243  0.7494800000000003  0.56631  1.0000
  C   C174      1.0  0.319  0.65755  0.6030300000000002  1.0000
  C   C175      1.0  0.38186  0.65573  0.56564  1.0000
  C   C176      1.0  0.45101  0.7045500000000002  0.5805  1.0000
  C   C177      1.0  0.8888300000000002  0.7647800000000002  0.66182  1.0000
  C   C178      1.0  0.90949  0.76128  0.6890700000000002  1.0000
  C   C179      1.0  0.8585100000000001  0.6892800000000002  0.70376  1.0000
  C   C180      1.0  0.87655  0.6843000000000001  0.7291100000000001  1.0000
  C   C181      1.0  0.9474200000000003  0.74999  0.74029  1.0000
  C   C182      1.0  0.99823  0.82215  0.72564  1.0000
  C   C183      1.0  0.9788500000000002  0.82828  0.7003200000000002  1.0000
  C   C184      1.0  0.9679100000000003  0.7445300000000001  0.76763  1.0000
  N   N1        1.0  0.20538000000000006  0.59672  0.85297  1.0000
  N   N2        1.0  0.08125000000000003  0.65813  0.82928  1.0000
  N   N3        1.0  0.19639  0.4384000000000001  0.87994  1.0000
  N   N4        1.0  0.14847  0.27816  0.8862  1.0000
  N   N5        1.0  0.3610800000000001  0.48933  0.8593900000000001  1.0000
  N   N6        1.0  0.5145300000000002  0.41986000000000007  0.8552900000000002  1.0000
  N   N7        1.0  0.35859000000000013  0.9500200000000002  0.9258  1.0000
  N   N8        1.0  0.25345000000000006  0.06338  0.90831  1.0000
  N   N9        1.0  0.29389  0.5894  0.89566  1.0000
  N   N10       1.0  0.37341000000000013  0.70054  0.92003  1.0000
  N   N11       1.0  0.7946200000000002  0.4032900000000001  0.35296  1.0000
  N   N12       1.0  0.9187600000000001  0.34189  0.3292800000000001  1.0000
  N   N13       1.0  0.80361  0.5616100000000002  0.37994  1.0000
  N   N14       1.0  0.8515300000000002  0.72183  0.3862  1.0000
  N   N15       1.0  0.6389200000000003  0.51068  0.35939  1.0000
  N   N16       1.0  0.48547  0.58016  0.3552900000000001  1.0000
  N   N17       1.0  0.64141  0.04999000000000001  0.42580000000000007  1.0000
  N   N18       1.0  0.74656  0.9366000000000001  0.4083200000000001  1.0000
  N   N19       1.0  0.7061  0.41061000000000003  0.39566  1.0000
  N   N20       1.0  0.6265900000000001  0.29947  0.4200300000000001  1.0000
  N   N21       1.0  0.9032900000000003  0.7053800000000002  0.10297000000000003  1.0000
  N   N22       1.0  0.8418900000000002  0.5812500000000002  0.07928  1.0000
  N   N23       1.0  0.06161000000000001  0.6964  0.12995  1.0000
  N   N24       1.0  0.22184000000000004  0.6484900000000002  0.1362  1.0000
  N   N25       1.0  0.01068  0.86109  0.10939000000000003  1.0000
  N   N26       1.0  0.08015  0.014540000000000003  0.10530000000000003  1.0000
  N   N27       1.0  0.55  0.85859  0.17581000000000005  1.0000
  N   N28       1.0  0.43663  0.75346  0.15832000000000004  1.0000
  N   N29       1.0  0.91061  0.7939100000000001  0.14566  1.0000
  N   N30       1.0  0.7994700000000002  0.8734200000000002  0.17003000000000001  1.0000
  N   N31       1.0  0.09671  0.29462  0.60296  1.0000
  N   N32       1.0  0.15811000000000003  0.41876  0.57928  1.0000
  N   N33       1.0  0.9383900000000001  0.30362000000000006  0.62994  1.0000
  N   N34       1.0  0.77816  0.35154  0.6362000000000002  1.0000
  N   N35       1.0  0.9893200000000001  0.13893  0.6093800000000003  1.0000
  N   N36       1.0  0.91985  0.9854800000000002  0.6052900000000001  1.0000
  N   N37       1.0  0.4500200000000001  0.14142000000000002  0.6758  1.0000
  N   N38       1.0  0.5634000000000001  0.24656  0.6583200000000001  1.0000
  N   N39       1.0  0.08938  0.20611000000000004  0.64565  1.0000
  N   N40       1.0  0.20052000000000006  0.12659  0.6700200000000001  1.0000
  N   N41       1.0  0.29462  0.09672  0.39703  1.0000
  N   N42       1.0  0.41875  0.15812000000000004  0.4207200000000001  1.0000
  N   N43       1.0  0.30361000000000005  0.9384  0.37005  1.0000
  N   N44       1.0  0.35153  0.77817  0.3638  1.0000
  N   N45       1.0  0.13893  0.98933  0.39061  1.0000
  N   N46       1.0  0.9854800000000002  0.91985  0.3947100000000001  1.0000
  N   N47       1.0  0.14141  0.45003000000000004  0.3242000000000001  1.0000
  N   N48       1.0  0.24655  0.5634000000000001  0.3416800000000001  1.0000
  N   N49       1.0  0.20610000000000003  0.08939  0.35434  1.0000
  N   N50       1.0  0.12659  0.20053000000000007  0.3299700000000001  1.0000
  N   N51       1.0  0.7053800000000002  0.9032900000000003  0.8970300000000001  1.0000
  N   N52       1.0  0.5812400000000001  0.8418900000000002  0.92072  1.0000
  N   N53       1.0  0.69639  0.06161000000000001  0.8700500000000001  1.0000
  N   N54       1.0  0.6484800000000002  0.22185000000000002  0.8638000000000002  1.0000
  N   N55       1.0  0.8610800000000001  0.01068  0.89061  1.0000
  N   N56       1.0  0.014530000000000001  0.08016  0.8947  1.0000
  N   N57       1.0  0.85858  0.55  0.8241900000000002  1.0000
  N   N58       1.0  0.75345  0.43664  0.8416800000000002  1.0000
  N   N59       1.0  0.7939  0.91062  0.8543400000000001  1.0000
  N   N60       1.0  0.8734100000000002  0.79948  0.8299600000000003  1.0000
  N   N61       1.0  0.59672  0.20538000000000006  0.14703  1.0000
  N   N62       1.0  0.65812  0.08125000000000003  0.17072000000000007  1.0000
  N   N63       1.0  0.4383900000000001  0.19639  0.12005000000000003  1.0000
  N   N64       1.0  0.27815  0.14848  0.11380000000000003  1.0000
  N   N65       1.0  0.48932  0.3610800000000001  0.14061  1.0000
  N   N66       1.0  0.41985000000000006  0.5145300000000002  0.14471  1.0000
  N   N67       1.0  0.9500100000000002  0.35859000000000013  0.0742  1.0000
  N   N68       1.0  0.06337000000000001  0.2534600000000001  0.09168000000000003  1.0000
  N   N69       1.0  0.5893900000000001  0.29389  0.10434000000000002  1.0000
  N   N70       1.0  0.70053  0.37341000000000013  0.07997000000000003  1.0000
  N   N71       1.0  0.4032800000000001  0.7946300000000002  0.64703  1.0000
  N   N72       1.0  0.34188  0.9187700000000001  0.67072  1.0000
  N   N73       1.0  0.5616  0.80362  0.62005  1.0000
  N   N74       1.0  0.72183  0.8515400000000002  0.6138  1.0000
  N   N75       1.0  0.51068  0.6389200000000003  0.6406100000000002  1.0000
  N   N76       1.0  0.58015  0.48547  0.6447  1.0000
  N   N77       1.0  0.04998000000000001  0.64142  0.57419  1.0000
  N   N78       1.0  0.9366000000000001  0.74657  0.59168  1.0000
  N   N79       1.0  0.41061000000000003  0.7061100000000002  0.60434  1.0000
  N   N80       1.0  0.29947  0.6265900000000001  0.57997  1.0000
  O   O1        1.0  0.3239  0.08532000000000002  0.72037  1.0000
  O   O2        1.0  0.19691000000000006  0.9696400000000002  0.72229  1.0000
  O   O3        1.0  0.15646  0.07465  0.8499800000000002  1.0000
  O   O4        1.0  0.30463000000000007  0.16131  0.84861  1.0000
  O   O5        1.0  0.67586  0.9151300000000002  0.22039000000000003  1.0000
  O   O6        1.0  0.8032100000000001  0.030400000000000007  0.22228  1.0000
  O   O7        1.0  0.84354  0.9253900000000003  0.3499600000000001  1.0000
  O   O8        1.0  0.6953800000000001  0.8386900000000003  0.3486  1.0000
  O   O9        1.0  0.41488  0.8240300000000003  0.97038  1.0000
  O   O10       1.0  0.5303800000000001  0.6968600000000003  0.97229  1.0000
  O   O11       1.0  0.4253800000000001  0.65647  0.09997000000000003  1.0000
  O   O12       1.0  0.3386900000000001  0.8046300000000002  0.0986  1.0000
  O   O13       1.0  0.58513  0.17599  0.47038  1.0000
  O   O14       1.0  0.46962000000000004  0.30315  0.4722800000000001  1.0000
  O   O15       1.0  0.57463  0.34354  0.59996  1.0000
  O   O16       1.0  0.6613100000000002  0.19537  0.59862  1.0000
  O   O17       1.0  0.17599  0.5851400000000001  0.5296200000000001  1.0000
  O   O18       1.0  0.3031400000000001  0.46963000000000005  0.52772  1.0000
  O   O19       1.0  0.34353  0.57463  0.40003000000000005  1.0000
  O   O20       1.0  0.19536  0.6613100000000002  0.4013800000000001  1.0000
  O   O21       1.0  0.82402  0.41489  0.02962  1.0000
  O   O22       1.0  0.6968600000000003  0.5303800000000001  0.027710000000000002  1.0000
  O   O23       1.0  0.65646  0.4253800000000001  0.90002  1.0000
  O   O24       1.0  0.8046200000000002  0.3387000000000001  0.9014  1.0000
  O   O25       1.0  0.08532000000000002  0.32391000000000003  0.27963  1.0000
  O   O26       1.0  0.9696400000000002  0.19691000000000006  0.2777  1.0000
  O   O27       1.0  0.07464  0.15647  0.15002000000000004  1.0000
  O   O28       1.0  0.16130000000000003  0.3046400000000001  0.15139  1.0000
  O   O29       1.0  0.9151200000000003  0.67586  0.7796100000000002  1.0000
  O   O30       1.0  0.03039  0.8032200000000002  0.77772  1.0000
  O   O31       1.0  0.9253900000000003  0.84355  0.65004  1.0000
  O   O32       1.0  0.8386800000000002  0.6953900000000001  0.6514  1.0000
