data_image0
_chemical_formula_structural       Cu46H128C210N82
_chemical_formula_sum              "Cu46 H128 C210 N82"
_cell_length_a       17.21342
_cell_length_b       19.80743
_cell_length_c       21.20784
_cell_angle_alpha    90.0
_cell_angle_beta     100.62068
_cell_angle_gamma    90.0

_space_group_name_H-M_alt    "P 1"
_space_group_IT_number       1

loop_
  _space_group_symop_operation_xyz
  'x, y, z'

loop_
  _atom_site_type_symbol
  _atom_site_label
  _atom_site_symmetry_multiplicity
  _atom_site_fract_x
  _atom_site_fract_y
  _atom_site_fract_z
  _atom_site_occupancy
  Cu  Cu1       1.0  0.0035200000000000144  0.00186  0.65722  1.0000
  Cu  Cu2       1.0  0.9999399999999999  0.75308  0.65825  1.0000
  Cu  Cu3       1.0  0.24957  0.62597  0.6609  1.0000
  Cu  Cu4       1.0  0.75378  0.62401  0.66017  1.0000
  Cu  Cu5       1.0  0.00879000000000002  0.24855000000000002  0.67439  1.0000
  Cu  Cu6       1.0  0.88699  0.99814  0.55597  1.0000
  Cu  Cu7       1.0  0.37669  0.6421  0.57152  1.0000
  Cu  Cu8       1.0  0.49648  0.00186  0.34278  1.0000
  Cu  Cu9       1.0  0.50006  0.75308  0.34175  1.0000
  Cu  Cu10      1.0  0.25043  0.62597  0.3391  1.0000
  Cu  Cu11      1.0  0.74622  0.62401  0.33984  1.0000
  Cu  Cu12      1.0  0.49121999999999993  0.24855000000000002  0.32561  1.0000
  Cu  Cu13      1.0  0.61302  0.99814  0.44403  1.0000
  Cu  Cu14      1.0  0.12331  0.6421  0.42848  1.0000
  Cu  Cu15      1.0  0.9964799999999999  0.99814  0.34278  1.0000
  Cu  Cu16      1.0  5.9999999999996e-05  0.24692  0.34175  1.0000
  Cu  Cu17      1.0  0.75043  0.37403  0.3391  1.0000
  Cu  Cu18      1.0  0.24622000000000002  0.37599  0.33984  1.0000
  Cu  Cu19      1.0  0.9912200000000001  0.75146  0.32561  1.0000
  Cu  Cu20      1.0  0.11301999999999998  0.00186  0.44403  1.0000
  Cu  Cu21      1.0  0.6233100000000001  0.3579  0.42848  1.0000
  Cu  Cu22      1.0  0.50352  0.99814  0.65723  1.0000
  Cu  Cu23      1.0  0.49994000000000005  0.24692  0.65825  1.0000
  Cu  Cu24      1.0  0.74957  0.37403  0.6609  1.0000
  Cu  Cu25      1.0  0.25378  0.37599  0.66017  1.0000
  Cu  Cu26      1.0  0.50878  0.75146  0.67439  1.0000
  Cu  Cu27      1.0  0.38699  0.00186  0.55597  1.0000
  Cu  Cu28      1.0  0.87669  0.3579  0.57152  1.0000
  Cu  Cu29      1.0  0.9936699999999999  0.74998  0.99735  1.0000
  Cu  Cu30      1.0  0.89313  0.9927700000000002  0.89023  1.0000
  Cu  Cu31      1.0  0.11187  0.00925  0.774  1.0000
  Cu  Cu32      1.0  0.50633  0.74998  0.00265  1.0000
  Cu  Cu33      1.0  0.60687  0.9927700000000002  0.10977000000000002  1.0000
  Cu  Cu34      1.0  0.38813  0.00925  0.226  1.0000
  Cu  Cu35      1.0  0.00633  0.25002  0.00265  1.0000
  Cu  Cu36      1.0  0.10687  0.00724  0.10977000000000002  1.0000
  Cu  Cu37      1.0  0.88813  0.99076  0.226  1.0000
  Cu  Cu38      1.0  0.49367  0.25002  0.99735  1.0000
  Cu  Cu39      1.0  0.39313  0.00724  0.89023  1.0000
  Cu  Cu40      1.0  0.61187  0.99076  0.774  1.0000
  Cu  Cu41      1.0  0.75  0.61653  0.0  1.0000
  Cu  Cu42      1.0  0.75  0.3662  0.0  1.0000
  Cu  Cu43      1.0  0.25  0.38347000000000003  0.0  1.0000
  Cu  Cu44      1.0  0.25  0.63381  0.0  1.0000
  Cu  Cu45      1.0  0.0  0.0  0.0  1.0000
  Cu  Cu46      1.0  0.5  0.0  0.0  1.0000
  H   H1        1.0  0.8684  0.84563  0.58108  1.0000
  H   H2        1.0  0.75744  0.77199  0.60163  1.0000
  H   H3        1.0  0.62777  0.8266200000000001  0.60966  1.0000
  H   H4        1.0  0.61456  0.9511  0.59721  1.0000
  H   H5        1.0  0.61573  0.05679  0.59385  1.0000
  H   H6        1.0  0.63339  0.18141  0.60145  1.0000
  H   H7        1.0  0.76423  0.23135  0.59078  1.0000
  H   H8        1.0  0.87342  0.15284  0.57394  1.0000
  H   H9        1.0  0.41742  0.77905  0.51113  1.0000
  H   H10       1.0  0.5381  0.8267500000000001  0.4791  1.0000
  H   H11       1.0  0.65531  0.74875  0.48018999999999995  1.0000
  H   H12       1.0  0.64652  0.63062  0.51581  1.0000
  H   H13       1.0  0.63174  0.53413  0.54546  1.0000
  H   H14       1.0  0.61035  0.4222  0.59179  1.0000
  H   H15       1.0  0.48544  0.40129  0.63378  1.0000
  H   H16       1.0  0.38626  0.49472000000000005  0.62699  1.0000
  H   H17       1.0  0.63161  0.84563  0.41893  1.0000
  H   H18       1.0  0.74256  0.77199  0.39836999999999995  1.0000
  H   H19       1.0  0.87223  0.8266200000000001  0.39034  1.0000
  H   H20       1.0  0.88545  0.9511  0.40279  1.0000
  H   H21       1.0  0.88428  0.05679  0.40615000000000007  1.0000
  H   H22       1.0  0.8666100000000001  0.18141  0.39855  1.0000
  H   H23       1.0  0.73577  0.23135  0.4092199999999999  1.0000
  H   H24       1.0  0.62659  0.15284  0.42606  1.0000
  H   H25       1.0  0.08258  0.77905  0.48887  1.0000
  H   H26       1.0  0.9619000000000001  0.8267500000000001  0.5209  1.0000
  H   H27       1.0  0.84469  0.74875  0.51981  1.0000
  H   H28       1.0  0.85348  0.63062  0.48418999999999995  1.0000
  H   H29       1.0  0.86826  0.53413  0.45454000000000006  1.0000
  H   H30       1.0  0.88965  0.4222  0.40821  1.0000
  H   H31       1.0  0.01456  0.40129  0.36622  1.0000
  H   H32       1.0  0.11374999999999999  0.49472000000000005  0.37301  1.0000
  H   H33       1.0  0.13161  0.15438  0.41893  1.0000
  H   H34       1.0  0.24255999999999997  0.22802  0.39836999999999995  1.0000
  H   H35       1.0  0.37223  0.17338  0.39034  1.0000
  H   H36       1.0  0.38545  0.0489  0.40279  1.0000
  H   H37       1.0  0.38428000000000007  0.94322  0.40615000000000007  1.0000
  H   H38       1.0  0.36661  0.81859  0.39855  1.0000
  H   H39       1.0  0.23578  0.76865  0.4092199999999999  1.0000
  H   H40       1.0  0.12659  0.8471600000000001  0.42606  1.0000
  H   H41       1.0  0.58258  0.22096  0.48887  1.0000
  H   H42       1.0  0.4619  0.17325  0.5209  1.0000
  H   H43       1.0  0.34469  0.25125  0.51982  1.0000
  H   H44       1.0  0.35348  0.36939  0.48418999999999995  1.0000
  H   H45       1.0  0.36826  0.46588  0.45454000000000006  1.0000
  H   H46       1.0  0.38965  0.57781  0.40821  1.0000
  H   H47       1.0  0.51456  0.59871  0.36622  1.0000
  H   H48       1.0  0.61374  0.50528  0.37301  1.0000
  H   H49       1.0  0.3684  0.15438  0.58108  1.0000
  H   H50       1.0  0.25744  0.22802  0.60163  1.0000
  H   H51       1.0  0.12777  0.17338  0.60966  1.0000
  H   H52       1.0  0.11456000000000002  0.0489  0.59721  1.0000
  H   H53       1.0  0.11572999999999997  0.94322  0.59385  1.0000
  H   H54       1.0  0.13339  0.81859  0.60145  1.0000
  H   H55       1.0  0.26423  0.76865  0.59078  1.0000
  H   H56       1.0  0.37342  0.8471600000000001  0.57394  1.0000
  H   H57       1.0  0.91742  0.22096  0.51113  1.0000
  H   H58       1.0  0.03810000000000001  0.17325  0.4791  1.0000
  H   H59       1.0  0.15531  0.25125  0.48018  1.0000
  H   H60       1.0  0.14653  0.36939  0.51581  1.0000
  H   H61       1.0  0.13174  0.46588  0.54546  1.0000
  H   H62       1.0  0.11035  0.57781  0.59179  1.0000
  H   H63       1.0  0.9854400000000001  0.59871  0.63378  1.0000
  H   H64       1.0  0.8862600000000002  0.50528  0.62699  1.0000
  H   H65       1.0  0.87299  0.14877  0.90148  1.0000
  H   H66       1.0  0.76224  0.22527  0.91677  1.0000
  H   H67       1.0  0.63417  0.17313  0.93335  1.0000
  H   H68       1.0  0.62189  0.048150000000000005  0.9324900000000002  1.0000
  H   H69       1.0  0.62076  0.94384  0.93277  1.0000
  H   H70       1.0  0.62965  0.81875  0.9349699999999999  1.0000
  H   H71       1.0  0.75676  0.76355  0.9200500000000001  1.0000
  H   H72       1.0  0.8691499999999999  0.83716  0.90341  1.0000
  H   H73       1.0  0.13274  0.8538  0.76437  1.0000
  H   H74       1.0  0.24444  0.77774  0.75069  1.0000
  H   H75       1.0  0.3719  0.8307  0.73264  1.0000
  H   H76       1.0  0.38249  0.9553399999999999  0.73111  1.0000
  H   H77       1.0  0.38483  0.059640000000000006  0.73488  1.0000
  H   H78       1.0  0.37845  0.18461  0.73986  1.0000
  H   H79       1.0  0.25198  0.23948  0.75754  1.0000
  H   H80       1.0  0.13764  0.16566  0.76827  1.0000
  H   H81       1.0  0.62702  0.14877  0.09852  1.0000
  H   H82       1.0  0.73777  0.22527  0.08323  1.0000
  H   H83       1.0  0.86583  0.17313  0.06665  1.0000
  H   H84       1.0  0.87811  0.048150000000000005  0.06751  1.0000
  H   H85       1.0  0.87925  0.94384  0.06723  1.0000
  H   H86       1.0  0.87035  0.81875  0.06503  1.0000
  H   H87       1.0  0.74325  0.76355  0.07995  1.0000
  H   H88       1.0  0.63085  0.83716  0.09659  1.0000
  H   H89       1.0  0.36726  0.8538  0.23563  1.0000
  H   H90       1.0  0.25557  0.77774  0.24931  1.0000
  H   H91       1.0  0.1281  0.8307  0.26736  1.0000
  H   H92       1.0  0.11751000000000002  0.9553399999999999  0.26889  1.0000
  H   H93       1.0  0.11517  0.059640000000000006  0.26512  1.0000
  H   H94       1.0  0.12155999999999999  0.18461  0.26014  1.0000
  H   H95       1.0  0.24802  0.23948  0.24246  1.0000
  H   H96       1.0  0.36236  0.16566  0.23173  1.0000
  H   H97       1.0  0.12702  0.85123  0.09852  1.0000
  H   H98       1.0  0.23777  0.77473  0.08323  1.0000
  H   H99       1.0  0.36583  0.82688  0.06665  1.0000
  H   H100      1.0  0.37811  0.95185  0.06751  1.0000
  H   H101      1.0  0.37925  0.056170000000000005  0.06723  1.0000
  H   H102      1.0  0.37035  0.18126  0.06503  1.0000
  H   H103      1.0  0.24325  0.23645  0.07995  1.0000
  H   H104      1.0  0.13085  0.16284  0.09659  1.0000
  H   H105      1.0  0.86726  0.14621  0.23563  1.0000
  H   H106      1.0  0.75557  0.22227  0.24931  1.0000
  H   H107      1.0  0.6281  0.1693  0.26736  1.0000
  H   H108      1.0  0.61751  0.04467  0.26889  1.0000
  H   H109      1.0  0.61517  0.94037  0.26512  1.0000
  H   H110      1.0  0.6215599999999999  0.8154000000000001  0.26014  1.0000
  H   H111      1.0  0.74802  0.76052  0.24246  1.0000
  H   H112      1.0  0.86236  0.8343400000000001  0.23173  1.0000
  H   H113      1.0  0.37299  0.85123  0.90148  1.0000
  H   H114      1.0  0.26224  0.77473  0.91677  1.0000
  H   H115      1.0  0.13417  0.82688  0.93335  1.0000
  H   H116      1.0  0.12189000000000003  0.95185  0.9324900000000002  1.0000
  H   H117      1.0  0.12076  0.056170000000000005  0.93277  1.0000
  H   H118      1.0  0.12964999999999996  0.18126  0.9349699999999999  1.0000
  H   H119      1.0  0.25676  0.23645  0.9200500000000001  1.0000
  H   H120      1.0  0.36915  0.16284  0.90341  1.0000
  H   H121      1.0  0.63274  0.14621  0.76437  1.0000
  H   H122      1.0  0.74443  0.22227  0.75069  1.0000
  H   H123      1.0  0.8719  0.1693  0.73264  1.0000
  H   H124      1.0  0.88249  0.04467  0.73111  1.0000
  H   H125      1.0  0.88483  0.94037  0.73488  1.0000
  H   H126      1.0  0.8784499999999998  0.8154000000000001  0.73986  1.0000
  H   H127      1.0  0.75198  0.76052  0.75754  1.0000
  H   H128      1.0  0.63764  0.8343400000000001  0.76827  1.0000
  C   C1        1.0  0.0053199999999999975  0.15337  0.67069  1.0000
  C   C2        1.0  0.006109999999999975  0.90951  0.66268  1.0000
  C   C3        1.0  0.90575  0.70582  0.65734  1.0000
  C   C4        1.0  0.1601  0.6819  0.65741  1.0000
  C   C5        1.0  0.25578  0.53084  0.65658  1.0000
  C   C6        1.0  0.10506  0.29655  0.6761  1.0000
  C   C7        1.0  0.91233  0.29695  0.6706  1.0000
  C   C8        1.0  0.9728800000000001  0.99917  0.51641  1.0000
  C   C9        1.0  0.81067  0.86661  0.58335  1.0000
  C   C10       1.0  0.74859  0.82606  0.59457  1.0000
  C   C11       1.0  0.67705  0.8566700000000002  0.59966  1.0000
  C   C12       1.0  0.67013  0.9265200000000001  0.59387  1.0000
  C   C13       1.0  0.73539  0.9644500000000001  0.58402  1.0000
  C   C14       1.0  0.73655  0.03892  0.58247  1.0000
  C   C15       1.0  0.67224  0.07934  0.58997  1.0000
  C   C16       1.0  0.6815000000000001  0.14917  0.59271  1.0000
  C   C17       1.0  0.7541500000000001  0.1772  0.58667  1.0000
  C   C18       1.0  0.81506  0.13412  0.57765  1.0000
  C   C19       1.0  0.46981000000000006  0.74811  0.51235  1.0000
  C   C20       1.0  0.53699  0.77402  0.49342  1.0000
  C   C21       1.0  0.6014599999999999  0.73089  0.4945  1.0000
  C   C22       1.0  0.59665  0.66451  0.51457  1.0000
  C   C23       1.0  0.5279  0.64219  0.53457  1.0000
  C   C24       1.0  0.51966  0.57402  0.56075  1.0000
  C   C25       1.0  0.57755  0.52423  0.56313  1.0000
  C   C26       1.0  0.5656  0.46138000000000007  0.58906  1.0000
  C   C27       1.0  0.4965300000000001  0.44963999999999993  0.61273  1.0000
  C   C28       1.0  0.44104  0.50142  0.60905  1.0000
  C   C29       1.0  0.49468  0.15337  0.32932  1.0000
  C   C30       1.0  0.49389000000000005  0.90951  0.33732  1.0000
  C   C31       1.0  0.59426  0.70582  0.34266  1.0000
  C   C32       1.0  0.3399  0.6819  0.34259  1.0000
  C   C33       1.0  0.24422000000000002  0.53084  0.34342  1.0000
  C   C34       1.0  0.39494  0.29655  0.3239  1.0000
  C   C35       1.0  0.58768  0.29695  0.3294  1.0000
  C   C36       1.0  0.52712  0.99917  0.48359  1.0000
  C   C37       1.0  0.6893300000000001  0.86661  0.41665  1.0000
  C   C38       1.0  0.75141  0.82606  0.40543  1.0000
  C   C39       1.0  0.8229600000000001  0.8566700000000002  0.40034000000000003  1.0000
  C   C40       1.0  0.82987  0.9265200000000001  0.40613  1.0000
  C   C41       1.0  0.76461  0.9644500000000001  0.41598  1.0000
  C   C42       1.0  0.76345  0.03892  0.41753000000000007  1.0000
  C   C43       1.0  0.8277599999999999  0.07934  0.41002999999999995  1.0000
  C   C44       1.0  0.8185  0.14917  0.40729  1.0000
  C   C45       1.0  0.74585  0.1772  0.4133299999999999  1.0000
  C   C46       1.0  0.68494  0.13412  0.42235  1.0000
  C   C47       1.0  0.030199999999999994  0.74811  0.4876499999999999  1.0000
  C   C48       1.0  0.96302  0.77402  0.50658  1.0000
  C   C49       1.0  0.89854  0.73089  0.5055  1.0000
  C   C50       1.0  0.90335  0.66451  0.4854299999999999  1.0000
  C   C51       1.0  0.9721  0.64219  0.46543  1.0000
  C   C52       1.0  0.98034  0.57402  0.43925  1.0000
  C   C53       1.0  0.92245  0.52423  0.43687  1.0000
  C   C54       1.0  0.9343999999999999  0.46138000000000007  0.41094  1.0000
  C   C55       1.0  0.0034699999999999965  0.44963999999999993  0.38727  1.0000
  C   C56       1.0  0.05897000000000001  0.50142  0.39095  1.0000
  C   C57       1.0  0.99468  0.84663  0.32932  1.0000
  C   C58       1.0  0.9938900000000002  0.09049  0.33732  1.0000
  C   C59       1.0  0.09426  0.29418  0.34266  1.0000
  C   C60       1.0  0.8399  0.3181  0.34259  1.0000
  C   C61       1.0  0.74422  0.4691600000000001  0.34342  1.0000
  C   C62       1.0  0.89494  0.70345  0.3239  1.0000
  C   C63       1.0  0.08768  0.70306  0.3294  1.0000
  C   C64       1.0  0.027119999999999995  0.00083  0.48359  1.0000
  C   C65       1.0  0.18933  0.13339  0.41665  1.0000
  C   C66       1.0  0.25141  0.17394  0.40543  1.0000
  C   C67       1.0  0.3229600000000001  0.14333  0.40034000000000003  1.0000
  C   C68       1.0  0.32986999999999994  0.07348  0.40613  1.0000
  C   C69       1.0  0.26461  0.03556  0.41598  1.0000
  C   C70       1.0  0.26345  0.96108  0.41753000000000007  1.0000
  C   C71       1.0  0.32776  0.92066  0.41002999999999995  1.0000
  C   C72       1.0  0.3185  0.85083  0.40729  1.0000
  C   C73       1.0  0.24585  0.82281  0.4133299999999999  1.0000
  C   C74       1.0  0.18494  0.86588  0.42235  1.0000
  C   C75       1.0  0.53019  0.25189  0.4876499999999999  1.0000
  C   C76       1.0  0.46301  0.22598000000000001  0.50658  1.0000
  C   C77       1.0  0.39854  0.26911  0.5055  1.0000
  C   C78       1.0  0.40335  0.33549  0.4854299999999999  1.0000
  C   C79       1.0  0.4721  0.35781  0.46543  1.0000
  C   C80       1.0  0.48034000000000004  0.42599  0.43925  1.0000
  C   C81       1.0  0.42245  0.4757700000000001  0.43687  1.0000
  C   C82       1.0  0.4344  0.53862  0.41094  1.0000
  C   C83       1.0  0.50347  0.55036  0.38727  1.0000
  C   C84       1.0  0.55896  0.49858  0.39095  1.0000
  C   C85       1.0  0.50532  0.84663  0.67068  1.0000
  C   C86       1.0  0.50611  0.09049  0.66268  1.0000
  C   C87       1.0  0.40575  0.29418  0.65734  1.0000
  C   C88       1.0  0.6601  0.3181  0.65742  1.0000
  C   C89       1.0  0.75578  0.4691600000000001  0.65658  1.0000
  C   C90       1.0  0.60506  0.70345  0.6761  1.0000
  C   C91       1.0  0.4123299999999999  0.70306  0.6706  1.0000
  C   C92       1.0  0.4728800000000001  0.00083  0.51641  1.0000
  C   C93       1.0  0.31067  0.13339  0.58335  1.0000
  C   C94       1.0  0.24859000000000003  0.17394  0.59457  1.0000
  C   C95       1.0  0.17705  0.14333  0.59966  1.0000
  C   C96       1.0  0.17013  0.07348  0.59387  1.0000
  C   C97       1.0  0.23539  0.03556  0.58402  1.0000
  C   C98       1.0  0.23654999999999998  0.96108  0.58247  1.0000
  C   C99       1.0  0.17224000000000003  0.92066  0.58997  1.0000
  C   C100      1.0  0.1815  0.85083  0.59271  1.0000
  C   C101      1.0  0.25415  0.82281  0.58667  1.0000
  C   C102      1.0  0.31506  0.86588  0.57765  1.0000
  C   C103      1.0  0.9698100000000001  0.25189  0.51235  1.0000
  C   C104      1.0  0.036989999999999995  0.22598000000000001  0.49342  1.0000
  C   C105      1.0  0.10147  0.26911  0.4945  1.0000
  C   C106      1.0  0.09665  0.33549  0.51457  1.0000
  C   C107      1.0  0.027899999999999994  0.35781  0.53457  1.0000
  C   C108      1.0  0.01967  0.42599  0.56075  1.0000
  C   C109      1.0  0.07755  0.4757700000000001  0.56313  1.0000
  C   C110      1.0  0.06561  0.53862  0.58906  1.0000
  C   C111      1.0  0.99654  0.55036  0.61273  1.0000
  C   C112      1.0  0.9410400000000001  0.49858  0.60905  1.0000
  C   C113      1.0  0.89885  0.70452  0.9995199999999999  1.0000
  C   C114      1.0  0.9986299999999999  0.90688  0.99878  1.0000
  C   C115      1.0  0.15484  0.68343  0.9956699999999999  1.0000
  C   C116      1.0  0.9769499999999999  0.99857  0.84771  1.0000
  C   C117      1.0  0.81627  0.12856  0.90803  1.0000
  C   C118      1.0  0.75428  0.17079  0.91642  1.0000
  C   C119      1.0  0.68341  0.14164  0.92557  1.0000
  C   C120      1.0  0.67691  0.07151  0.9257400000000001  1.0000
  C   C121      1.0  0.7416  0.03196  0.9172399999999999  1.0000
  C   C122      1.0  0.74077  0.95721  0.9173900000000001  1.0000
  C   C123      1.0  0.67509  0.9191800000000001  0.92621  1.0000
  C   C124      1.0  0.67976  0.84896  0.92686  1.0000
  C   C125      1.0  0.74996  0.8181500000000002  0.9184599999999999  1.0000
  C   C126      1.0  0.81297  0.8589  0.90944  1.0000
  C   C127      1.0  0.18925  0.87426  0.75762  1.0000
  C   C128      1.0  0.25172  0.83227  0.74986  1.0000
  C   C129      1.0  0.32207  0.86175  0.73992  1.0000
  C   C130      1.0  0.32785  0.93191  0.73869  1.0000
  C   C131      1.0  0.2643  0.04596  0.74902  1.0000
  C   C132      1.0  0.26311  0.97122  0.74753  1.0000
  C   C133      1.0  0.33081  0.08411  0.7425  1.0000
  C   C134      1.0  0.32746  0.15433  0.74578  1.0000
  C   C135      1.0  0.25768  0.18488  0.75552  1.0000
  C   C136      1.0  0.19354  0.14394  0.76145  1.0000
  C   C137      1.0  0.60116  0.70452  0.00047999999999999996  1.0000
  C   C138      1.0  0.50137  0.90688  0.00122  1.0000
  C   C139      1.0  0.34516  0.68343  0.00433  1.0000
  C   C140      1.0  0.52305  0.99857  0.15229  1.0000
  C   C141      1.0  0.68373  0.12856  0.09198  1.0000
  C   C142      1.0  0.74572  0.17079  0.08358  1.0000
  C   C143      1.0  0.81659  0.14164  0.07443  1.0000
  C   C144      1.0  0.82309  0.07151  0.07426  1.0000
  C   C145      1.0  0.7584  0.03196  0.08276  1.0000
  C   C146      1.0  0.75923  0.95721  0.08261  1.0000
  C   C147      1.0  0.82491  0.9191800000000001  0.07379  1.0000
  C   C148      1.0  0.82024  0.84896  0.07314  1.0000
  C   C149      1.0  0.75004  0.8181500000000002  0.08154  1.0000
  C   C150      1.0  0.68703  0.8589  0.09056  1.0000
  C   C151      1.0  0.31075  0.87426  0.24238  1.0000
  C   C152      1.0  0.24828  0.83227  0.25015  1.0000
  C   C153      1.0  0.17793  0.86175  0.26008  1.0000
  C   C154      1.0  0.17215  0.93191  0.26131  1.0000
  C   C155      1.0  0.23570000000000002  0.04596  0.25098  1.0000
  C   C156      1.0  0.23689000000000002  0.97122  0.25247  1.0000
  C   C157      1.0  0.16919  0.08411  0.2575  1.0000
  C   C158      1.0  0.17255  0.15433  0.25422  1.0000
  C   C159      1.0  0.24232  0.18488  0.24447999999999998  1.0000
  C   C160      1.0  0.30646  0.14394  0.23855  1.0000
  C   C161      1.0  0.10116  0.29548  0.00047999999999999996  1.0000
  C   C162      1.0  0.00137  0.09312  0.00122  1.0000
  C   C163      1.0  0.84516  0.31658  0.00433  1.0000
  C   C164      1.0  0.02305  0.00144  0.15229  1.0000
  C   C165      1.0  0.18373  0.8714400000000001  0.09198  1.0000
  C   C166      1.0  0.24572  0.82921  0.08358  1.0000
  C   C167      1.0  0.31659  0.85837  0.07443  1.0000
  C   C168      1.0  0.32309  0.92849  0.07426  1.0000
  C   C169      1.0  0.2584  0.9680400000000001  0.08276  1.0000
  C   C170      1.0  0.25923  0.04279  0.08261  1.0000
  C   C171      1.0  0.32491  0.08082  0.07379  1.0000
  C   C172      1.0  0.32024  0.15105  0.07314  1.0000
  C   C173      1.0  0.25004  0.18186  0.08154  1.0000
  C   C174      1.0  0.18703  0.1411  0.09056  1.0000
  C   C175      1.0  0.81075  0.12574  0.24238  1.0000
  C   C176      1.0  0.74828  0.16773  0.25015  1.0000
  C   C177      1.0  0.67793  0.13825  0.26008  1.0000
  C   C178      1.0  0.67215  0.06809  0.26131  1.0000
  C   C179      1.0  0.7357  0.9540499999999998  0.25098  1.0000
  C   C180      1.0  0.73689  0.02878  0.25247  1.0000
  C   C181      1.0  0.66919  0.91589  0.2575  1.0000
  C   C182      1.0  0.67255  0.8456799999999999  0.25422  1.0000
  C   C183      1.0  0.74232  0.81512  0.24447999999999998  1.0000
  C   C184      1.0  0.80646  0.8560599999999999  0.23855  1.0000
  C   C185      1.0  0.39884  0.29548  0.9995199999999999  1.0000
  C   C186      1.0  0.49863  0.09312  0.99878  1.0000
  C   C187      1.0  0.65484  0.31658  0.9956699999999999  1.0000
  C   C188      1.0  0.47695  0.00144  0.84771  1.0000
  C   C189      1.0  0.31627  0.8714400000000001  0.90803  1.0000
  C   C190      1.0  0.25428  0.82922  0.91642  1.0000
  C   C191      1.0  0.18341  0.85837  0.92557  1.0000
  C   C192      1.0  0.17691000000000004  0.92849  0.9257400000000001  1.0000
  C   C193      1.0  0.24159999999999995  0.9680400000000001  0.9172399999999999  1.0000
  C   C194      1.0  0.24077000000000004  0.04279  0.9173900000000001  1.0000
  C   C195      1.0  0.17509  0.08082  0.92621  1.0000
  C   C196      1.0  0.17976  0.15105  0.92686  1.0000
  C   C197      1.0  0.24996  0.18186  0.9184599999999999  1.0000
  C   C198      1.0  0.31297  0.1411  0.90944  1.0000
  C   C199      1.0  0.68925  0.12574  0.75762  1.0000
  C   C200      1.0  0.75172  0.16773  0.74986  1.0000
  C   C201      1.0  0.82207  0.13825  0.73992  1.0000
  C   C202      1.0  0.82785  0.06809  0.73869  1.0000
  C   C203      1.0  0.7643  0.9540499999999998  0.74902  1.0000
  C   C204      1.0  0.76311  0.02878  0.74753  1.0000
  C   C205      1.0  0.83081  0.91589  0.7425  1.0000
  C   C206      1.0  0.82746  0.8456799999999999  0.74578  1.0000
  C   C207      1.0  0.75768  0.81512  0.75552  1.0000
  C   C208      1.0  0.69354  0.8560599999999999  0.76145  1.0000
  C   C209      1.0  0.75  0.52177  0.0  1.0000
  C   C210      1.0  0.25  0.47823  0.0  1.0000
  N   N1        1.0  0.80668  0.06662  0.57555  1.0000
  N   N2        1.0  0.80446  0.93416  0.57794  1.0000
  N   N3        1.0  0.46513  0.6841  0.53272  1.0000
  N   N4        1.0  0.45192  0.56215  0.58336  1.0000
  N   N5        1.0  0.00412  0.09402  0.66615  1.0000
  N   N6        1.0  0.006680000000000001  0.8500600000000001  0.66353  1.0000
  N   N7        1.0  0.10113  0.71283  0.65534  1.0000
  N   N8        1.0  0.85149  0.32624  0.66733  1.0000
  N   N9        1.0  0.2563  0.47141  0.65326  1.0000
  N   N10       1.0  0.84628  0.67535  0.65447  1.0000
  N   N11       1.0  0.16332  0.32644  0.67277  1.0000
  N   N12       1.0  0.27705  0.6409  0.52023  1.0000
  N   N13       1.0  0.69332  0.06662  0.42445  1.0000
  N   N14       1.0  0.69554  0.93416  0.42207  1.0000
  N   N15       1.0  0.03487  0.6841  0.46728  1.0000
  N   N16       1.0  0.048079999999999984  0.56215  0.41663999999999995  1.0000
  N   N17       1.0  0.49589000000000005  0.09402  0.33386  1.0000
  N   N18       1.0  0.4933199999999999  0.8500600000000001  0.33647  1.0000
  N   N19       1.0  0.39887  0.71283  0.34466  1.0000
  N   N20       1.0  0.64852  0.32624  0.33268  1.0000
  N   N21       1.0  0.24369999999999997  0.47141  0.34674  1.0000
  N   N22       1.0  0.65372  0.67535  0.34553  1.0000
  N   N23       1.0  0.33668  0.32644  0.32723  1.0000
  N   N24       1.0  0.22295  0.6409  0.47977000000000003  1.0000
  N   N25       1.0  0.19332  0.9333800000000001  0.42445  1.0000
  N   N26       1.0  0.19554  0.06585  0.42207  1.0000
  N   N27       1.0  0.53487  0.3159  0.46728  1.0000
  N   N28       1.0  0.54808  0.43786  0.41663999999999995  1.0000
  N   N29       1.0  0.99589  0.90598  0.33386  1.0000
  N   N30       1.0  0.99332  0.14994  0.33647  1.0000
  N   N31       1.0  0.89887  0.28718  0.34466  1.0000
  N   N32       1.0  0.14852  0.67377  0.33267  1.0000
  N   N33       1.0  0.7437  0.52859  0.34674  1.0000
  N   N34       1.0  0.15372  0.32466  0.34553  1.0000
  N   N35       1.0  0.83668  0.67356  0.32723  1.0000
  N   N36       1.0  0.72296  0.35911  0.47977000000000003  1.0000
  N   N37       1.0  0.30668  0.9333800000000001  0.57555  1.0000
  N   N38       1.0  0.30446  0.06585  0.57794  1.0000
  N   N39       1.0  0.9651300000000002  0.3159  0.53272  1.0000
  N   N40       1.0  0.95193  0.43786  0.58336  1.0000
  N   N41       1.0  0.50412  0.90598  0.66615  1.0000
  N   N42       1.0  0.50668  0.14994  0.66353  1.0000
  N   N43       1.0  0.60113  0.28718  0.65534  1.0000
  N   N44       1.0  0.35148  0.67377  0.66733  1.0000
  N   N45       1.0  0.7563  0.52859  0.65326  1.0000
  N   N46       1.0  0.34628  0.32466  0.65447  1.0000
  N   N47       1.0  0.66333  0.67356  0.67277  1.0000
  N   N48       1.0  0.77704  0.35911  0.52023  1.0000
  N   N49       1.0  0.81044  0.06078000000000001  0.90841  1.0000
  N   N50       1.0  0.8089000000000001  0.92682  0.90867  1.0000
  N   N51       1.0  0.1945  0.94206  0.75655  1.0000
  N   N52       1.0  0.19632  0.07609  0.75858  1.0000
  N   N53       1.0  0.84031  0.67402  0.00052  1.0000
  N   N54       1.0  0.99834  0.84751  0.99833  1.0000
  N   N55       1.0  0.09655999999999999  0.71495  0.99462  1.0000
  N   N56       1.0  0.02839000000000002  0.00425  0.81801  1.0000
  N   N57       1.0  0.68956  0.06078000000000001  0.09159  1.0000
  N   N58       1.0  0.6911  0.92682  0.09133  1.0000
  N   N59       1.0  0.3055  0.94206  0.24345  1.0000
  N   N60       1.0  0.30368  0.07609  0.24143000000000003  1.0000
  N   N61       1.0  0.65969  0.67402  0.9994800000000001  1.0000
  N   N62       1.0  0.50166  0.84751  0.0016699999999999998  1.0000
  N   N63       1.0  0.40345  0.71495  0.00538  1.0000
  N   N64       1.0  0.47161  0.00425  0.18199  1.0000
  N   N65       1.0  0.18956  0.93922  0.09159  1.0000
  N   N66       1.0  0.1911  0.07318  0.09133  1.0000
  N   N67       1.0  0.8055  0.057949999999999995  0.24345  1.0000
  N   N68       1.0  0.80368  0.9239100000000001  0.24143000000000003  1.0000
  N   N69       1.0  0.15969000000000003  0.32598  0.9994800000000001  1.0000
  N   N70       1.0  0.00166  0.15249  0.0016699999999999998  1.0000
  N   N71       1.0  0.90345  0.28505  0.00539  1.0000
  N   N72       1.0  0.97161  0.9957600000000001  0.18199  1.0000
  N   N73       1.0  0.31044  0.93922  0.90841  1.0000
  N   N74       1.0  0.3089  0.07318  0.90867  1.0000
  N   N75       1.0  0.6945  0.057949999999999995  0.75655  1.0000
  N   N76       1.0  0.69632  0.9239100000000001  0.75858  1.0000
  N   N77       1.0  0.34031  0.32598  0.00052  1.0000
  N   N78       1.0  0.49833999999999995  0.15249  0.99833  1.0000
  N   N79       1.0  0.59656  0.28505  0.99462  1.0000
  N   N80       1.0  0.52839  0.9957600000000001  0.81801  1.0000
  N   N81       1.0  0.75  0.46226  0.0  1.0000
  N   N82       1.0  0.25  0.53774  0.0  1.0000
