data_image0
_chemical_formula_structural       Mn24H48C240S48O96
_chemical_formula_sum              "Mn24 H48 C240 S48 O96"
_cell_length_a       27.84848
_cell_length_b       27.848069999999996
_cell_length_c       27.8481
_cell_angle_alpha    60.01809999999999
_cell_angle_beta     60.01433
_cell_angle_gamma    60.014289999999995

_space_group_name_H-M_alt    "P 1"
_space_group_IT_number       1

loop_
  _space_group_symop_operation_xyz
  'x, y, z'

loop_
  _atom_site_type_symbol
  _atom_site_label
  _atom_site_symmetry_multiplicity
  _atom_site_fract_x
  _atom_site_fract_y
  _atom_site_fract_z
  _atom_site_occupancy
  Mn  Mn1       1.0  0.5757599999999998  0.04615999999999997  0.42424000000000006  1.0000
  Mn  Mn2       1.0  0.9538499999999995  0.42424999999999996  0.046150000000000004  1.0000
  Mn  Mn3       1.0  0.42424  0.9538399999999999  0.57576  1.0000
  Mn  Mn4       1.0  0.04614999999999982  0.5757499999999999  0.9538500000000002  1.0000
  Mn  Mn5       1.0  0.046160000000000076  0.4242399999999999  0.57576  1.0000
  Mn  Mn6       1.0  0.4242499999999998  0.04614999999999994  0.9538500000000002  1.0000
  Mn  Mn7       1.0  0.9538399999999998  0.5757600000000002  0.42425000000000007  1.0000
  Mn  Mn8       1.0  0.5757499999999999  0.95385  0.046150000000000004  1.0000
  Mn  Mn9       1.0  0.42423999999999995  0.57576  0.04616  1.0000
  Mn  Mn10      1.0  0.046149999999999955  0.95385  0.42425000000000007  1.0000
  Mn  Mn11      1.0  0.5757599999999996  0.42423999999999995  0.95384  1.0000
  Mn  Mn12      1.0  0.9538499999999995  0.04615000000000001  0.57575  1.0000
  Mn  Mn13      1.0  0.5461499999999998  0.4538499999999999  0.07575  1.0000
  Mn  Mn14      1.0  0.9242399999999996  0.07575999999999998  0.4538400000000001  1.0000
  Mn  Mn15      1.0  0.45384999999999975  0.5461499999999998  0.92425  1.0000
  Mn  Mn16      1.0  0.07574999999999993  0.92424  0.54616  1.0000
  Mn  Mn17      1.0  0.5461599999999999  0.07575000000000001  0.92425  1.0000
  Mn  Mn18      1.0  0.9242500000000002  0.4538499999999999  0.54615  1.0000
  Mn  Mn19      1.0  0.45383999999999985  0.92425  0.07576  1.0000
  Mn  Mn20      1.0  0.07574999999999996  0.54615  0.45385000000000003  1.0000
  Mn  Mn21      1.0  0.54615  0.9242499999999999  0.45385000000000003  1.0000
  Mn  Mn22      1.0  0.9242399999999998  0.54616  0.07576  1.0000
  Mn  Mn23      1.0  0.45384999999999986  0.07575000000000001  0.54615  1.0000
  Mn  Mn24      1.0  0.07576000000000008  0.4538399999999998  0.92425  1.0000
  H   H1        1.0  0.37762  0.20933000000000002  0.46674  1.0000
  H   H2        1.0  0.9463099999999997  0.4667399999999999  0.20933000000000004  1.0000
  H   H3        1.0  0.46674000000000004  0.94632  0.37762000000000007  1.0000
  H   H4        1.0  0.20931999999999995  0.37760999999999995  0.9463200000000002  1.0000
  H   H5        1.0  0.20933000000000004  0.46673999999999993  0.37762000000000007  1.0000
  H   H6        1.0  0.46673999999999993  0.2093299999999999  0.9463200000000002  1.0000
  H   H7        1.0  0.94631  0.37762  0.46674  1.0000
  H   H8        1.0  0.37761  0.94632  0.20932000000000006  1.0000
  H   H9        1.0  0.46674  0.37762  0.20933000000000004  1.0000
  H   H10       1.0  0.20933000000000002  0.94632  0.46675  1.0000
  H   H11       1.0  0.37761  0.4667399999999999  0.9463200000000002  1.0000
  H   H12       1.0  0.9463099999999999  0.20931999999999995  0.37761  1.0000
  H   H13       1.0  0.55369  0.29067  0.03326  1.0000
  H   H14       1.0  0.12238000000000002  0.03325999999999998  0.29067  1.0000
  H   H15       1.0  0.29067999999999994  0.55369  0.12239000000000001  1.0000
  H   H16       1.0  0.03326000000000002  0.12237999999999997  0.55369  1.0000
  H   H17       1.0  0.5536899999999998  0.03325999999999998  0.12238000000000003  1.0000
  H   H18       1.0  0.12239000000000005  0.2906799999999999  0.55369  1.0000
  H   H19       1.0  0.2906699999999999  0.12237999999999999  0.03326  1.0000
  H   H20       1.0  0.03325999999999998  0.55369  0.29067  1.0000
  H   H21       1.0  0.55368  0.12238999999999998  0.29068  1.0000
  H   H22       1.0  0.12238  0.55369  0.03326  1.0000
  H   H23       1.0  0.29066999999999993  0.033249999999999995  0.55369  1.0000
  H   H24       1.0  0.03325999999999998  0.29067  0.12238000000000003  1.0000
  H   H25       1.0  0.62238  0.7906699999999999  0.53327  1.0000
  H   H26       1.0  0.05368999999999994  0.53326  0.79067  1.0000
  H   H27       1.0  0.53326  0.05368000000000001  0.62239  1.0000
  H   H28       1.0  0.7906799999999999  0.62239  0.05369  1.0000
  H   H29       1.0  0.7906700000000001  0.53326  0.62238  1.0000
  H   H30       1.0  0.53325  0.79067  0.05369  1.0000
  H   H31       1.0  0.053680000000000005  0.62238  0.53326  1.0000
  H   H32       1.0  0.62239  0.053679999999999936  0.7906800000000002  1.0000
  H   H33       1.0  0.53326  0.6223799999999998  0.79067  1.0000
  H   H34       1.0  0.7906700000000002  0.05368000000000001  0.53326  1.0000
  H   H35       1.0  0.62238  0.53326  0.05369  1.0000
  H   H36       1.0  0.053680000000000005  0.79068  0.62239  1.0000
  H   H37       1.0  0.44631  0.7093299999999999  0.96674  1.0000
  H   H38       1.0  0.8776200000000002  0.9667399999999997  0.7093300000000001  1.0000
  H   H39       1.0  0.7093199999999995  0.44631  0.87761  1.0000
  H   H40       1.0  0.9667399999999995  0.87762  0.4463200000000001  1.0000
  H   H41       1.0  0.44631000000000004  0.96674  0.87762  1.0000
  H   H42       1.0  0.8776099999999997  0.7093199999999998  0.4463200000000001  1.0000
  H   H43       1.0  0.70933  0.87762  0.96674  1.0000
  H   H44       1.0  0.9667399999999997  0.4463099999999998  0.7093300000000001  1.0000
  H   H45       1.0  0.4463099999999998  0.8776099999999999  0.70932  1.0000
  H   H46       1.0  0.87761  0.44631  0.96675  1.0000
  H   H47       1.0  0.7093299999999998  0.9667499999999998  0.4463200000000001  1.0000
  H   H48       1.0  0.96674  0.7093299999999999  0.87762  1.0000
  C   C1        1.0  0.49624000000000007  0.15092999999999998  0.4045  1.0000
  C   C2        1.0  0.4558499999999999  0.21098000000000003  0.38927  1.0000
  C   C3        1.0  0.39885  0.23470999999999995  0.42252  1.0000
  C   C4        1.0  0.37224  0.2944300000000001  0.39204  1.0000
  C   C5        1.0  0.41042999999999985  0.31462999999999997  0.33419  1.0000
  C   C6        1.0  0.9483399999999995  0.4045  0.15093  1.0000
  C   C7        1.0  0.9439  0.3892599999999999  0.21098  1.0000
  C   C8        1.0  0.9439099999999999  0.4225299999999999  0.23471  1.0000
  C   C9        1.0  0.94129  0.39203999999999994  0.29444  1.0000
  C   C10       1.0  0.9407399999999999  0.3341899999999999  0.3146300000000001  1.0000
  C   C11       1.0  0.40449999999999986  0.94834  0.49624000000000007  1.0000
  C   C12       1.0  0.38926000000000005  0.9438999999999999  0.45585  1.0000
  C   C13       1.0  0.42253000000000007  0.9439099999999999  0.39886  1.0000
  C   C14       1.0  0.39203999999999994  0.9412899999999998  0.37224  1.0000
  C   C15       1.0  0.33419000000000004  0.9407399999999999  0.41044  1.0000
  C   C16       1.0  0.15092999999999976  0.49623999999999996  0.9483400000000001  1.0000
  C   C17       1.0  0.21098000000000003  0.4558499999999999  0.94391  1.0000
  C   C18       1.0  0.23469999999999994  0.39885  0.9439200000000001  1.0000
  C   C19       1.0  0.2944299999999999  0.3722400000000001  0.94129  1.0000
  C   C20       1.0  0.3146300000000001  0.41044  0.94074  1.0000
  C   C21       1.0  0.15092999999999995  0.40449999999999997  0.49624000000000007  1.0000
  C   C22       1.0  0.21097999999999997  0.38926999999999995  0.45585  1.0000
  C   C23       1.0  0.23470999999999997  0.42252  0.39886  1.0000
  C   C24       1.0  0.2944300000000001  0.39203999999999994  0.37224  1.0000
  C   C25       1.0  0.31462999999999997  0.33419000000000004  0.41043  1.0000
  C   C26       1.0  0.4044999999999998  0.15092999999999993  0.9483400000000001  1.0000
  C   C27       1.0  0.3892599999999999  0.21097999999999992  0.9439000000000002  1.0000
  C   C28       1.0  0.42253000000000007  0.23470999999999995  0.94391  1.0000
  C   C29       1.0  0.39204  0.2944300000000001  0.94129  1.0000
  C   C30       1.0  0.33419000000000004  0.31463  0.94074  1.0000
  C   C31       1.0  0.9483399999999995  0.49623999999999996  0.4045  1.0000
  C   C32       1.0  0.9439000000000001  0.45585  0.38927  1.0000
  C   C33       1.0  0.94391  0.3988599999999999  0.42253  1.0000
  C   C34       1.0  0.9412799999999999  0.37224  0.39204  1.0000
  C   C35       1.0  0.94074  0.41042999999999996  0.3342  1.0000
  C   C36       1.0  0.4962399999999998  0.94834  0.15093  1.0000
  C   C37       1.0  0.45585000000000003  0.9438999999999999  0.21098  1.0000
  C   C38       1.0  0.39884999999999987  0.9439099999999999  0.23471  1.0000
  C   C39       1.0  0.37224000000000007  0.9412899999999998  0.29443  1.0000
  C   C40       1.0  0.4104399999999997  0.9407399999999999  0.3146300000000001  1.0000
  C   C41       1.0  0.40449999999999986  0.49623999999999996  0.15093  1.0000
  C   C42       1.0  0.38926999999999995  0.45585  0.21098  1.0000
  C   C43       1.0  0.42252000000000006  0.3988599999999999  0.23471  1.0000
  C   C44       1.0  0.39203999999999994  0.37224  0.29443  1.0000
  C   C45       1.0  0.33418999999999977  0.41043  0.31464  1.0000
  C   C46       1.0  0.15093000000000004  0.94834  0.4045  1.0000
  C   C47       1.0  0.21098000000000003  0.9438999999999999  0.38926  1.0000
  C   C48       1.0  0.23471000000000006  0.9439099999999999  0.42253  1.0000
  C   C49       1.0  0.2944300000000001  0.9412899999999998  0.39204  1.0000
  C   C50       1.0  0.3146300000000001  0.9407399999999999  0.33419  1.0000
  C   C51       1.0  0.4962399999999995  0.40448999999999996  0.9483400000000001  1.0000
  C   C52       1.0  0.45585  0.38925999999999983  0.94391  1.0000
  C   C53       1.0  0.39885999999999994  0.42252999999999996  0.9439200000000001  1.0000
  C   C54       1.0  0.3722400000000001  0.39203999999999994  0.94129  1.0000
  C   C55       1.0  0.41042999999999996  0.33419  0.94074  1.0000
  C   C56       1.0  0.9483399999999995  0.15092999999999993  0.49624000000000007  1.0000
  C   C57       1.0  0.9438999999999999  0.21097999999999995  0.45585  1.0000
  C   C58       1.0  0.9439099999999997  0.23469999999999996  0.39885  1.0000
  C   C59       1.0  0.94129  0.2944299999999999  0.37224  1.0000
  C   C60       1.0  0.9407399999999996  0.31463  0.41044  1.0000
  C   C61       1.0  0.55166  0.34907  0.09550000000000002  1.0000
  C   C62       1.0  0.5561  0.28902  0.11074  1.0000
  C   C63       1.0  0.5560899999999999  0.26529  0.07747000000000001  1.0000
  C   C64       1.0  0.55871  0.20556  0.10796  1.0000
  C   C65       1.0  0.55926  0.18537  0.16581  1.0000
  C   C66       1.0  0.003759999999999996  0.0955  0.34907000000000005  1.0000
  C   C67       1.0  0.044149999999999995  0.11072999999999993  0.28902000000000005  1.0000
  C   C68       1.0  0.10114999999999998  0.07747999999999998  0.26529  1.0000
  C   C69       1.0  0.12776  0.10796  0.20557  1.0000
  C   C70       1.0  0.08957  0.16581000000000004  0.18537  1.0000
  C   C71       1.0  0.34907000000000005  0.55166  0.00376  1.0000
  C   C72       1.0  0.28901999999999994  0.5561  0.04415  1.0000
  C   C73       1.0  0.26528999999999997  0.55609  0.10115000000000002  1.0000
  C   C74       1.0  0.20557  0.55872  0.12776  1.0000
  C   C75       1.0  0.18537  0.55926  0.08956  1.0000
  C   C76       1.0  0.0955  0.003760000000000021  0.55166  1.0000
  C   C77       1.0  0.11073999999999998  0.04414999999999999  0.5561  1.0000
  C   C78       1.0  0.07747  0.10113999999999998  0.55609  1.0000
  C   C79       1.0  0.10795999999999996  0.12776  0.55872  1.0000
  C   C80       1.0  0.16580000000000003  0.08955999999999999  0.55926  1.0000
  C   C81       1.0  0.55166  0.0955  0.00376  1.0000
  C   C82       1.0  0.5561  0.11073  0.04415  1.0000
  C   C83       1.0  0.5560899999999998  0.07747000000000001  0.10114  1.0000
  C   C84       1.0  0.55871  0.10796  0.12776  1.0000
  C   C85       1.0  0.5592599999999998  0.16580000000000003  0.08957000000000001  1.0000
  C   C86       1.0  0.0037600000000000116  0.34907  0.55166  1.0000
  C   C87       1.0  0.04415000000000006  0.2890199999999999  0.5561  1.0000
  C   C88       1.0  0.10114999999999995  0.2652900000000001  0.55609  1.0000
  C   C89       1.0  0.12775999999999998  0.20557  0.55872  1.0000
  C   C90       1.0  0.08955999999999992  0.18537  0.55926  1.0000
  C   C91       1.0  0.34907  0.003759999999999998  0.09550000000000002  1.0000
  C   C92       1.0  0.28902  0.04414999999999999  0.11073000000000002  1.0000
  C   C93       1.0  0.26529  0.10113999999999998  0.07748  1.0000
  C   C94       1.0  0.20557000000000003  0.12776  0.10796  1.0000
  C   C95       1.0  0.18536999999999995  0.08956999999999998  0.16581  1.0000
  C   C96       1.0  0.09549999999999997  0.55166  0.34907000000000005  1.0000
  C   C97       1.0  0.11074000000000003  0.5560999999999999  0.28902000000000005  1.0000
  C   C98       1.0  0.07746999999999993  0.55609  0.26529  1.0000
  C   C99       1.0  0.10796000000000007  0.5587099999999999  0.20557  1.0000
  C   C100      1.0  0.16581  0.55926  0.18537  1.0000
  C   C101      1.0  0.55166  0.0037599999999999843  0.34907000000000005  1.0000
  C   C102      1.0  0.5561  0.04414999999999997  0.28902000000000005  1.0000
  C   C103      1.0  0.5560899999999999  0.10114999999999996  0.2653  1.0000
  C   C104      1.0  0.55871  0.12775999999999998  0.20557  1.0000
  C   C105      1.0  0.55926  0.08955999999999999  0.18537  1.0000
  C   C106      1.0  0.00375999999999998  0.55166  0.09550000000000002  1.0000
  C   C107      1.0  0.044149999999999995  0.5561  0.11074  1.0000
  C   C108      1.0  0.10113999999999998  0.55609  0.07747000000000001  1.0000
  C   C109      1.0  0.12776  0.55872  0.10796  1.0000
  C   C110      1.0  0.08955999999999996  0.55926  0.16581  1.0000
  C   C111      1.0  0.34907  0.09550000000000003  0.55166  1.0000
  C   C112      1.0  0.28902000000000005  0.11073999999999998  0.5561  1.0000
  C   C113      1.0  0.26529  0.07747000000000002  0.55609  1.0000
  C   C114      1.0  0.20555999999999988  0.10796  0.55872  1.0000
  C   C115      1.0  0.18536999999999995  0.16581000000000004  0.55926  1.0000
  C   C116      1.0  0.09549999999999995  0.34907  0.00376  1.0000
  C   C117      1.0  0.11073  0.28902  0.04415  1.0000
  C   C118      1.0  0.07747999999999995  0.26529  0.10114  1.0000
  C   C119      1.0  0.10796  0.20557  0.12776  1.0000
  C   C120      1.0  0.16580999999999987  0.18537  0.08957000000000001  1.0000
  C   C121      1.0  0.5037599999999999  0.8490699999999999  0.5955  1.0000
  C   C122      1.0  0.5441499999999999  0.78902  0.61074  1.0000
  C   C123      1.0  0.6011399999999997  0.7652899999999999  0.57748  1.0000
  C   C124      1.0  0.6277599999999997  0.7055699999999998  0.60796  1.0000
  C   C125      1.0  0.5895699999999997  0.68537  0.6658100000000001  1.0000
  C   C126      1.0  0.05165999999999999  0.5955  0.84907  1.0000
  C   C127      1.0  0.056099999999999976  0.61074  0.7890200000000002  1.0000
  C   C128      1.0  0.056089999999999945  0.5774700000000001  0.76529  1.0000
  C   C129      1.0  0.058709999999999984  0.6079600000000001  0.70557  1.0000
  C   C130      1.0  0.059260000000000056  0.6658099999999999  0.68537  1.0000
  C   C131      1.0  0.5954999999999998  0.05166  0.50376  1.0000
  C   C132      1.0  0.61073  0.05610000000000002  0.54415  1.0000
  C   C133      1.0  0.57747  0.05609000000000002  0.60114  1.0000
  C   C134      1.0  0.6079599999999997  0.05870999999999997  0.62776  1.0000
  C   C135      1.0  0.6657999999999998  0.05926  0.58957  1.0000
  C   C136      1.0  0.8490699999999999  0.5037600000000001  0.05166  1.0000
  C   C137      1.0  0.7890199999999999  0.5441499999999999  0.056100000000000004  1.0000
  C   C138      1.0  0.7652899999999999  0.60115  0.05609  1.0000
  C   C139      1.0  0.70557  0.6277599999999999  0.05871  1.0000
  C   C140      1.0  0.6853700000000001  0.58956  0.05926  1.0000
  C   C141      1.0  0.8490699999999997  0.5955  0.50376  1.0000
  C   C142      1.0  0.78902  0.61073  0.54415  1.0000
  C   C143      1.0  0.7652899999999999  0.57748  0.60114  1.0000
  C   C144      1.0  0.70557  0.6079600000000001  0.62776  1.0000
  C   C145      1.0  0.6853699999999996  0.6658099999999999  0.58957  1.0000
  C   C146      1.0  0.5954999999999999  0.8490699999999999  0.05166  1.0000
  C   C147      1.0  0.61074  0.78902  0.056100000000000004  1.0000
  C   C148      1.0  0.57747  0.7652899999999999  0.05609  1.0000
  C   C149      1.0  0.6079599999999998  0.7055699999999998  0.05871  1.0000
  C   C150      1.0  0.6658099999999999  0.68537  0.05926  1.0000
  C   C151      1.0  0.05165999999999993  0.5037600000000001  0.59551  1.0000
  C   C152      1.0  0.056100000000000136  0.5441499999999999  0.61074  1.0000
  C   C153      1.0  0.05608999999999988  0.6011400000000001  0.57748  1.0000
  C   C154      1.0  0.05870999999999992  0.62776  0.60796  1.0000
  C   C155      1.0  0.059260000000000056  0.58957  0.6658  1.0000
  C   C156      1.0  0.50376  0.05165999999999992  0.8490800000000001  1.0000
  C   C157      1.0  0.5441499999999999  0.05609999999999998  0.7890200000000002  1.0000
  C   C158      1.0  0.6011499999999996  0.05609000000000002  0.7653  1.0000
  C   C159      1.0  0.62776  0.058710000000000005  0.70557  1.0000
  C   C160      1.0  0.58956  0.05926  0.68537  1.0000
  C   C161      1.0  0.5954999999999997  0.50376  0.84907  1.0000
  C   C162      1.0  0.6107299999999999  0.54415  0.7890200000000002  1.0000
  C   C163      1.0  0.57747  0.6011400000000001  0.76529  1.0000
  C   C164      1.0  0.60796  0.62776  0.70557  1.0000
  C   C165      1.0  0.6658099999999998  0.58957  0.68537  1.0000
  C   C166      1.0  0.8490699999999997  0.05166  0.5955  1.0000
  C   C167      1.0  0.7890199999999999  0.05609999999999998  0.61074  1.0000
  C   C168      1.0  0.7652899999999998  0.05608999999999999  0.57747  1.0000
  C   C169      1.0  0.7055599999999997  0.058710000000000005  0.60796  1.0000
  C   C170      1.0  0.6853699999999998  0.059259999999999965  0.6658100000000001  1.0000
  C   C171      1.0  0.5037600000000001  0.5955099999999999  0.05166  1.0000
  C   C172      1.0  0.5441499999999999  0.61074  0.056100000000000004  1.0000
  C   C173      1.0  0.6011399999999999  0.57747  0.05609  1.0000
  C   C174      1.0  0.6277599999999999  0.60796  0.05871  1.0000
  C   C175      1.0  0.58956  0.6658099999999999  0.05926  1.0000
  C   C176      1.0  0.05166000000000005  0.8490699999999999  0.50376  1.0000
  C   C177      1.0  0.056099999999999976  0.78902  0.54415  1.0000
  C   C178      1.0  0.05609000000000001  0.7653  0.60115  1.0000
  C   C179      1.0  0.05871000000000018  0.7055699999999998  0.62776  1.0000
  C   C180      1.0  0.05925999999999993  0.68537  0.58956  1.0000
  C   C181      1.0  0.4483400000000002  0.6509299999999999  0.9045  1.0000
  C   C182      1.0  0.4438999999999996  0.7109800000000001  0.88926  1.0000
  C   C183      1.0  0.4439100000000001  0.73471  0.9225300000000001  1.0000
  C   C184      1.0  0.4412899999999998  0.7944399999999999  0.8920400000000003  1.0000
  C   C185      1.0  0.44073999999999997  0.8146299999999997  0.8341900000000001  1.0000
  C   C186      1.0  0.9962399999999998  0.9045  0.65093  1.0000
  C   C187      1.0  0.9558499999999998  0.88927  0.71098  1.0000
  C   C188      1.0  0.89885  0.9225199999999999  0.7347100000000001  1.0000
  C   C189      1.0  0.8722399999999999  0.89204  0.79444  1.0000
  C   C190      1.0  0.91043  0.8341899999999999  0.8146400000000003  1.0000
  C   C191      1.0  0.6509299999999996  0.44834  0.9962400000000001  1.0000
  C   C192      1.0  0.7109799999999996  0.4439  0.9558500000000001  1.0000
  C   C193      1.0  0.7346999999999996  0.4439100000000001  0.89885  1.0000
  C   C194      1.0  0.7944299999999999  0.44127999999999995  0.8722400000000001  1.0000
  C   C195      1.0  0.8146299999999999  0.44074  0.91044  1.0000
  C   C196      1.0  0.9044899999999997  0.99624  0.44834  1.0000
  C   C197      1.0  0.8892599999999999  0.9558499999999999  0.4439  1.0000
  C   C198      1.0  0.92253  0.89886  0.44391  1.0000
  C   C199      1.0  0.8920399999999997  0.8722399999999998  0.44129000000000007  1.0000
  C   C200      1.0  0.8341899999999997  0.91044  0.4407400000000001  1.0000
  C   C201      1.0  0.44833999999999985  0.9044999999999997  0.9962400000000001  1.0000
  C   C202      1.0  0.4438999999999996  0.88927  0.9558500000000001  1.0000
  C   C203      1.0  0.44391  0.92253  0.89886  1.0000
  C   C204      1.0  0.4412799999999999  0.89204  0.8722400000000001  1.0000
  C   C205      1.0  0.44073999999999997  0.8342  0.91044  1.0000
  C   C206      1.0  0.9962399999999996  0.65093  0.44834  1.0000
  C   C207      1.0  0.95585  0.71098  0.4439  1.0000
  C   C208      1.0  0.89885  0.73471  0.44391  1.0000
  C   C209      1.0  0.8722400000000001  0.7944299999999999  0.44129000000000007  1.0000
  C   C210      1.0  0.9104399999999999  0.8146299999999997  0.4407400000000001  1.0000
  C   C211      1.0  0.6509299999999996  0.99624  0.9045  1.0000
  C   C212      1.0  0.7109799999999997  0.9558499999999998  0.8892700000000001  1.0000
  C   C213      1.0  0.7347100000000001  0.89886  0.9225300000000001  1.0000
  C   C214      1.0  0.79443  0.8722399999999999  0.8920400000000003  1.0000
  C   C215      1.0  0.81463  0.91043  0.8342  1.0000
  C   C216      1.0  0.9044999999999996  0.44833999999999996  0.65093  1.0000
  C   C217      1.0  0.88926  0.4439  0.71098  1.0000
  C   C218      1.0  0.9225300000000002  0.4439100000000001  0.7347100000000001  1.0000
  C   C219      1.0  0.89204  0.44129  0.79444  1.0000
  C   C220      1.0  0.8341899999999997  0.44074  0.8146300000000001  1.0000
  C   C221      1.0  0.4483399999999998  0.99624  0.65093  1.0000
  C   C222      1.0  0.4439  0.9558499999999999  0.71098  1.0000
  C   C223      1.0  0.4439100000000001  0.8988499999999999  0.7347100000000001  1.0000
  C   C224      1.0  0.44129000000000007  0.8722399999999999  0.7944300000000001  1.0000
  C   C225      1.0  0.44073999999999985  0.9104399999999997  0.8146400000000003  1.0000
  C   C226      1.0  0.9962399999999996  0.44833999999999996  0.9045  1.0000
  C   C227      1.0  0.9558499999999998  0.4438999999999999  0.8892700000000001  1.0000
  C   C228      1.0  0.8988599999999999  0.44390999999999997  0.9225300000000001  1.0000
  C   C229      1.0  0.8722399999999996  0.4412799999999999  0.8920400000000003  1.0000
  C   C230      1.0  0.91043  0.44074  0.8342  1.0000
  C   C231      1.0  0.6509299999999997  0.9045000000000001  0.44834  1.0000
  C   C232      1.0  0.7109799999999997  0.8892599999999999  0.4439  1.0000
  C   C233      1.0  0.7347099999999999  0.92253  0.44391  1.0000
  C   C234      1.0  0.7944300000000001  0.8920399999999999  0.44129000000000007  1.0000
  C   C235      1.0  0.8146299999999999  0.83419  0.4407400000000001  1.0000
  C   C236      1.0  0.9044999999999996  0.65093  0.9962400000000001  1.0000
  C   C237      1.0  0.8892599999999999  0.71098  0.9558500000000001  1.0000
  C   C238      1.0  0.9225199999999999  0.73471  0.89886  1.0000
  C   C239      1.0  0.8920399999999997  0.79443  0.8722400000000001  1.0000
  C   C240      1.0  0.8341899999999998  0.8146300000000001  0.91044  1.0000
  S   S1        1.0  0.4783299999999999  0.26113  0.31985  1.0000
  S   S2        1.0  0.9406799999999996  0.31984  0.26112  1.0000
  S   S3        1.0  0.31984000000000007  0.94069  0.47834  1.0000
  S   S4        1.0  0.26114000000000004  0.47834  0.94069  1.0000
  S   S5        1.0  0.2611299999999999  0.31985  0.47833  1.0000
  S   S6        1.0  0.31983999999999996  0.2611200000000001  0.94069  1.0000
  S   S7        1.0  0.9406799999999995  0.4783299999999999  0.31985  1.0000
  S   S8        1.0  0.47834000000000015  0.94069  0.26115  1.0000
  S   S9        1.0  0.3198500000000001  0.4783299999999999  0.26114  1.0000
  S   S10       1.0  0.26112000000000013  0.94069  0.31984  1.0000
  S   S11       1.0  0.47834  0.31983999999999996  0.94069  1.0000
  S   S12       1.0  0.9406799999999995  0.26115  0.47834  1.0000
  S   S13       1.0  0.55932  0.23887999999999995  0.18016  1.0000
  S   S14       1.0  0.02167  0.18015  0.23887  1.0000
  S   S15       1.0  0.23884999999999998  0.5593199999999999  0.02166  1.0000
  S   S16       1.0  0.1801499999999999  0.02166000000000001  0.55932  1.0000
  S   S17       1.0  0.5593199999999998  0.18015  0.02167  1.0000
  S   S18       1.0  0.021659999999999967  0.23885000000000003  0.55932  1.0000
  S   S19       1.0  0.2388599999999999  0.021669999999999977  0.18015000000000006  1.0000
  S   S20       1.0  0.18016  0.5593199999999999  0.23888  1.0000
  S   S21       1.0  0.5593199999999999  0.021659999999999992  0.23885000000000003  1.0000
  S   S22       1.0  0.021660000000000033  0.5593199999999999  0.18016  1.0000
  S   S23       1.0  0.23886999999999994  0.18016000000000001  0.55932  1.0000
  S   S24       1.0  0.18015000000000003  0.23885999999999996  0.02167  1.0000
  S   S25       1.0  0.5216699999999999  0.7388700000000002  0.68015  1.0000
  S   S26       1.0  0.0593200000000001  0.68016  0.73888  1.0000
  S   S27       1.0  0.6801499999999998  0.059310000000000015  0.52167  1.0000
  S   S28       1.0  0.73885  0.52166  0.059320000000000005  1.0000
  S   S29       1.0  0.73886  0.68015  0.52167  1.0000
  S   S30       1.0  0.6801599999999998  0.73888  0.059320000000000005  1.0000
  S   S31       1.0  0.059320000000000005  0.52167  0.68015  1.0000
  S   S32       1.0  0.52166  0.059309999999999974  0.73886  1.0000
  S   S33       1.0  0.68015  0.5216699999999997  0.73886  1.0000
  S   S34       1.0  0.7388699999999999  0.059309999999999974  0.68016  1.0000
  S   S35       1.0  0.52166  0.68016  0.059320000000000005  1.0000
  S   S36       1.0  0.05932000000000004  0.7388499999999999  0.52166  1.0000
  S   S37       1.0  0.44068  0.7611199999999998  0.81985  1.0000
  S   S38       1.0  0.9783299999999999  0.8198499999999997  0.7611300000000001  1.0000
  S   S39       1.0  0.76114  0.44067999999999996  0.97834  1.0000
  S   S40       1.0  0.8198399999999999  0.97834  0.44068  1.0000
  S   S41       1.0  0.4406800000000002  0.8198499999999999  0.97833  1.0000
  S   S42       1.0  0.97834  0.76115  0.44068  1.0000
  S   S43       1.0  0.7611299999999993  0.97833  0.8198600000000001  1.0000
  S   S44       1.0  0.8198399999999998  0.4406799999999997  0.7611300000000001  1.0000
  S   S45       1.0  0.4406799999999999  0.9783399999999999  0.7611500000000001  1.0000
  S   S46       1.0  0.9783300000000001  0.44067999999999996  0.81985  1.0000
  S   S47       1.0  0.7611199999999996  0.81984  0.44068  1.0000
  S   S48       1.0  0.8198499999999999  0.7611399999999999  0.97833  1.0000
  O   O1        1.0  0.54877  0.13693  0.36912  1.0000
  O   O2        1.0  0.47855  0.11137  0.4532  1.0000
  O   O3        1.0  0.9451899999999999  0.36910999999999994  0.13692000000000001  1.0000
  O   O4        1.0  0.9568799999999998  0.45319999999999994  0.11137  1.0000
  O   O5        1.0  0.36911000000000005  0.9451899999999998  0.54877  1.0000
  O   O6        1.0  0.4531999999999996  0.95689  0.47855  1.0000
  O   O7        1.0  0.13692999999999986  0.54877  0.9451900000000001  1.0000
  O   O8        1.0  0.11136000000000001  0.4785399999999999  0.9568900000000001  1.0000
  O   O9        1.0  0.13692999999999997  0.36912  0.54877  1.0000
  O   O10       1.0  0.11136999999999998  0.45319999999999994  0.47855  1.0000
  O   O11       1.0  0.3691  0.13691999999999993  0.9451900000000001  1.0000
  O   O12       1.0  0.4531999999999999  0.11135999999999997  0.9568900000000001  1.0000
  O   O13       1.0  0.9451900000000001  0.54877  0.36911  1.0000
  O   O14       1.0  0.95689  0.47855  0.4532  1.0000
  O   O15       1.0  0.54877  0.9451899999999998  0.13693  1.0000
  O   O16       1.0  0.4785399999999998  0.95689  0.11136  1.0000
  O   O17       1.0  0.36910999999999994  0.5487699999999999  0.13693  1.0000
  O   O18       1.0  0.4532  0.47855  0.11137  1.0000
  O   O19       1.0  0.13692000000000012  0.9451899999999998  0.36911  1.0000
  O   O20       1.0  0.11135999999999992  0.95689  0.4532  1.0000
  O   O21       1.0  0.5487699999999999  0.36911  0.9451900000000001  1.0000
  O   O22       1.0  0.47854999999999986  0.45319999999999994  0.9569  1.0000
  O   O23       1.0  0.94519  0.13692999999999997  0.54877  1.0000
  O   O24       1.0  0.9568899999999996  0.11134999999999999  0.47854  1.0000
  O   O25       1.0  0.5548099999999999  0.36307999999999996  0.1309  1.0000
  O   O26       1.0  0.54311  0.38863  0.0468  1.0000
  O   O27       1.0  0.9512299999999996  0.13089  0.36307  1.0000
  O   O28       1.0  0.02144999999999998  0.04680000000000001  0.38863  1.0000
  O   O29       1.0  0.36306999999999995  0.5548100000000001  0.95123  1.0000
  O   O30       1.0  0.38864  0.54311  0.02146  1.0000
  O   O31       1.0  0.1308900000000001  0.9512299999999999  0.55481  1.0000
  O   O32       1.0  0.04679999999999998  0.02145  0.54311  1.0000
  O   O33       1.0  0.55481  0.13088  0.95124  1.0000
  O   O34       1.0  0.54311  0.0468  0.021450000000000004  1.0000
  O   O35       1.0  0.95122  0.3630699999999999  0.55481  1.0000
  O   O36       1.0  0.021459999999999993  0.38864  0.54311  1.0000
  O   O37       1.0  0.36307  0.95124  0.13088000000000002  1.0000
  O   O38       1.0  0.38863  0.02145  0.0468  1.0000
  O   O39       1.0  0.13089  0.55481  0.36308  1.0000
  O   O40       1.0  0.04680000000000003  0.5431099999999999  0.38863  1.0000
  O   O41       1.0  0.55481  0.9512299999999999  0.36307  1.0000
  O   O42       1.0  0.54311  0.021460000000000014  0.38865  1.0000
  O   O43       1.0  0.9512299999999997  0.55481  0.13089  1.0000
  O   O44       1.0  0.02144999999999993  0.54311  0.0468  1.0000
  O   O45       1.0  0.36307999999999996  0.13089  0.55481  1.0000
  O   O46       1.0  0.38862999999999975  0.04680000000000003  0.54311  1.0000
  O   O47       1.0  0.1308900000000001  0.36306999999999984  0.95124  1.0000
  O   O48       1.0  0.04679999999999997  0.38863  0.021450000000000004  1.0000
  O   O49       1.0  0.45122999999999996  0.86307  0.63089  1.0000
  O   O50       1.0  0.52145  0.88863  0.5468  1.0000
  O   O51       1.0  0.054810000000000046  0.6308899999999997  0.86308  1.0000
  O   O52       1.0  0.0431099999999999  0.5468  0.88863  1.0000
  O   O53       1.0  0.6308899999999997  0.054809999999999984  0.4512300000000001  1.0000
  O   O54       1.0  0.5468  0.043109999999999975  0.52145  1.0000
  O   O55       1.0  0.8630700000000001  0.45122999999999996  0.05481  1.0000
  O   O56       1.0  0.8886399999999998  0.52146  0.04311  1.0000
  O   O57       1.0  0.86307  0.63088  0.4512400000000001  1.0000
  O   O58       1.0  0.8886299999999998  0.5468  0.52145  1.0000
  O   O59       1.0  0.6308899999999997  0.86308  0.05481  1.0000
  O   O60       1.0  0.5468  0.88864  0.04311  1.0000
  O   O61       1.0  0.05480999999999995  0.45123  0.63089  1.0000
  O   O62       1.0  0.04311000000000006  0.52145  0.5468  1.0000
  O   O63       1.0  0.45122999999999996  0.054809999999999984  0.8630700000000001  1.0000
  O   O64       1.0  0.5214599999999999  0.04310999999999994  0.8886500000000003  1.0000
  O   O65       1.0  0.6308899999999996  0.45122999999999996  0.8630700000000001  1.0000
  O   O66       1.0  0.5468  0.5214499999999997  0.8886400000000001  1.0000
  O   O67       1.0  0.8630800000000001  0.054809999999999984  0.6309  1.0000
  O   O68       1.0  0.8886299999999998  0.04311000000000001  0.5468  1.0000
  O   O69       1.0  0.45122999999999996  0.6308899999999997  0.05481  1.0000
  O   O70       1.0  0.5214499999999997  0.5468  0.04311  1.0000
  O   O71       1.0  0.054810000000000046  0.86307  0.4512300000000001  1.0000
  O   O72       1.0  0.04311000000000009  0.88865  0.52146  1.0000
  O   O73       1.0  0.44519000000000003  0.6369199999999999  0.86911  1.0000
  O   O74       1.0  0.45688999999999985  0.61137  0.9532000000000002  1.0000
  O   O75       1.0  0.048769999999999994  0.8691099999999999  0.6369300000000001  1.0000
  O   O76       1.0  0.97855  0.9532  0.61137  1.0000
  O   O77       1.0  0.63693  0.4451899999999999  0.04877000000000001  1.0000
  O   O78       1.0  0.6113600000000001  0.45689  0.97855  1.0000
  O   O79       1.0  0.8691099999999996  0.048769999999999994  0.44519  1.0000
  O   O80       1.0  0.9532000000000002  0.9785499999999998  0.45689  1.0000
  O   O81       1.0  0.44518999999999986  0.86912  0.04877000000000001  1.0000
  O   O82       1.0  0.45688999999999996  0.9532  0.9785600000000001  1.0000
  O   O83       1.0  0.04876999999999993  0.63693  0.44519  1.0000
  O   O84       1.0  0.97854  0.61136  0.45689  1.0000
  O   O85       1.0  0.63693  0.04875999999999996  0.86912  1.0000
  O   O86       1.0  0.6113599999999997  0.9785499999999997  0.9532000000000002  1.0000
  O   O87       1.0  0.8691  0.4451899999999999  0.6369300000000001  1.0000
  O   O88       1.0  0.9532000000000002  0.45689  0.61137  1.0000
  O   O89       1.0  0.44518999999999986  0.04876999999999996  0.63694  1.0000
  O   O90       1.0  0.45688999999999996  0.9785399999999997  0.61136  1.0000
  O   O91       1.0  0.048769999999999994  0.4451899999999999  0.86911  1.0000
  O   O92       1.0  0.97855  0.45689  0.95321  1.0000
  O   O93       1.0  0.6369200000000004  0.8691099999999999  0.44519  1.0000
  O   O94       1.0  0.6113599999999999  0.9532  0.45689  1.0000
  O   O95       1.0  0.8691099999999996  0.63693  0.04877000000000001  1.0000
  O   O96       1.0  0.9532000000000002  0.6113699999999997  0.97855  1.0000
