data_image0
_chemical_formula_structural       Zn16H144C240O52
_chemical_formula_sum              "Zn16 H144 C240 O52"
_cell_length_a       23.50841
_cell_length_b       23.50928
_cell_length_c       29.822839999999996
_cell_angle_alpha    66.75325
_cell_angle_beta     66.75555000000001
_cell_angle_gamma    59.91337000000001

_space_group_name_H-M_alt    "P 1"
_space_group_IT_number       1

loop_
  _space_group_symop_operation_xyz
  'x, y, z'

loop_
  _atom_site_type_symbol
  _atom_site_label
  _atom_site_symmetry_multiplicity
  _atom_site_fract_x
  _atom_site_fract_y
  _atom_site_fract_z
  _atom_site_occupancy
  Zn  Zn1       1.0  0.07667999999999996  0.13462  0.55777  1.0000
  Zn  Zn2       1.0  0.13447999999999996  0.23133999999999996  0.55789  1.0000
  Zn  Zn3       1.0  0.23115999999999992  0.07682000000000001  0.55767  1.0000
  Zn  Zn4       1.0  0.7313299999999999  0.63447  0.05789000000000001  1.0000
  Zn  Zn5       1.0  0.57682  0.73115  0.057680000000000016  1.0000
  Zn  Zn6       1.0  0.63462  0.57667  0.057770000000000016  1.0000
  Zn  Zn7       1.0  0.18055999999999983  0.18060999999999997  0.45789000000000013  1.0000
  Zn  Zn8       1.0  0.6805800000000001  0.6805599999999999  0.9579  1.0000
  Zn  Zn9       1.0  0.8055699999999999  0.95992  0.37342  1.0000
  Zn  Zn10      1.0  0.96017  0.8605100000000001  0.37329  1.0000
  Zn  Zn11      1.0  0.8601400000000001  0.80562  0.37317  1.0000
  Zn  Zn12      1.0  0.36048  0.46019  0.87328  1.0000
  Zn  Zn13      1.0  0.3056199999999999  0.36015000000000014  0.87316  1.0000
  Zn  Zn14      1.0  0.45992  0.3056000000000001  0.87339  1.0000
  Zn  Zn15      1.0  0.90868  0.9086300000000002  0.27369  1.0000
  Zn  Zn16      1.0  0.4086399999999999  0.40867999999999993  0.7736700000000001  1.0000
  H   H1        1.0  0.9577800000000002  0.13487000000000002  0.48877  1.0000
  H   H2        1.0  0.07343999999999996  0.22434000000000007  0.35387  1.0000
  H   H3        1.0  0.05031999999999998  0.9470099999999999  0.64311  1.0000
  H   H4        1.0  0.22234999999999985  0.9185700000000001  0.68085  1.0000
  H   H5        1.0  0.8890299999999998  0.14278999999999997  0.43945000000000006  1.0000
  H   H6        1.0  0.004469999999999909  0.23320000000000002  0.3038900000000001  1.0000
  H   H7        1.0  0.04741000000000002  0.84149  0.70769  1.0000
  H   H8        1.0  0.21821  0.81427  0.74744  1.0000
  H   H9        1.0  0.8939799999999999  0.09801000000000001  0.38192000000000004  1.0000
  H   H10       1.0  0.89379  0.29275  0.29128  1.0000
  H   H11       1.0  0.23978999999999995  0.70724  0.7630200000000001  1.0000
  H   H12       1.0  0.8238199999999999  0.10668  0.33337000000000006  1.0000
  H   H13       1.0  0.13501999999999995  0.41867000000000004  0.48843  1.0000
  H   H14       1.0  0.22457000000000005  0.34811  0.35354  1.0000
  H   H15       1.0  0.9466900000000001  0.35968000000000006  0.64333  1.0000
  H   H16       1.0  0.91843  0.17834  0.68076  1.0000
  H   H17       1.0  0.14329999999999984  0.5284900000000001  0.43911000000000006  1.0000
  H   H18       1.0  0.23365999999999998  0.45818000000000003  0.3036  1.0000
  H   H19       1.0  0.8409899999999999  0.4036  0.70789  1.0000
  H   H20       1.0  0.8141299999999998  0.22014  0.7474  1.0000
  H   H21       1.0  0.09852999999999994  0.62585  0.38167000000000006  1.0000
  H   H22       1.0  0.2933999999999999  0.52195  0.29088  1.0000
  H   H23       1.0  0.7069899999999999  0.29016  0.7630200000000001  1.0000
  H   H24       1.0  0.10691999999999988  0.7359499999999999  0.3332000000000001  1.0000
  H   H25       1.0  0.41904  0.9574800000000001  0.48862  1.0000
  H   H26       1.0  0.34830999999999995  0.07358  0.35377  1.0000
  H   H27       1.0  0.35968  0.05027999999999997  0.64338  1.0000
  H   H28       1.0  0.17816000000000012  0.22264  0.68093  1.0000
  H   H29       1.0  0.52914  0.88878  0.4391400000000001  1.0000
  H   H30       1.0  0.4584599999999999  0.004479999999999962  0.3037800000000001  1.0000
  H   H31       1.0  0.40364  0.047430000000000014  0.70783  1.0000
  H   H32       1.0  0.22002999999999995  0.21836000000000005  0.74751  1.0000
  H   H33       1.0  0.6260999999999999  0.8937600000000001  0.3817900000000001  1.0000
  H   H34       1.0  0.5222300000000001  0.8937199999999998  0.29107  1.0000
  H   H35       1.0  0.2899699999999998  0.24003999999999995  0.7629200000000002  1.0000
  H   H36       1.0  0.7362699999999999  0.82367  0.3331800000000001  1.0000
  H   H37       1.0  0.9186899999999998  0.6350200000000001  0.98843  1.0000
  H   H38       1.0  0.84809  0.72457  0.85355  1.0000
  H   H39       1.0  0.8596799999999998  0.44667000000000007  0.14334  1.0000
  H   H40       1.0  0.6783199999999996  0.4184  0.18078000000000005  1.0000
  H   H41       1.0  0.02850999999999984  0.6433100000000002  0.93909  1.0000
  H   H42       1.0  0.9581700000000001  0.73367  0.80361  1.0000
  H   H43       1.0  0.9036  0.34098999999999996  0.20788  1.0000
  H   H44       1.0  0.72013  0.3141300000000001  0.24741  1.0000
  H   H45       1.0  0.12583  0.59853  0.88168  1.0000
  H   H46       1.0  0.021940000000000015  0.7934099999999998  0.7908900000000002  1.0000
  H   H47       1.0  0.7901699999999999  0.20695  0.26304000000000005  1.0000
  H   H48       1.0  0.23595999999999995  0.6069  0.8332  1.0000
  H   H49       1.0  0.4575000000000001  0.91901  0.98863  1.0000
  H   H50       1.0  0.57357  0.8483300000000001  0.85376  1.0000
  H   H51       1.0  0.55025  0.85966  0.14337  1.0000
  H   H52       1.0  0.7226199999999999  0.67816  0.18093000000000006  1.0000
  H   H53       1.0  0.38878999999999997  0.029119999999999972  0.93917  1.0000
  H   H54       1.0  0.50447  0.9585  0.80378  1.0000
  H   H55       1.0  0.5474299999999998  0.9036400000000001  0.20781000000000002  1.0000
  H   H56       1.0  0.71837  0.72003  0.24749  1.0000
  H   H57       1.0  0.39378  0.12608999999999998  0.88182  1.0000
  H   H58       1.0  0.3937099999999999  0.02221999999999995  0.7911100000000002  1.0000
  H   H59       1.0  0.74005  0.7899500000000002  0.2629  1.0000
  H   H60       1.0  0.32366999999999996  0.23624000000000006  0.83321  1.0000
  H   H61       1.0  0.6348799999999999  0.4577800000000001  0.98875  1.0000
  H   H62       1.0  0.7243500000000002  0.5734499999999999  0.85385  1.0000
  H   H63       1.0  0.4469799999999999  0.5503  0.14312  1.0000
  H   H64       1.0  0.41859  0.72232  0.18082000000000006  1.0000
  H   H65       1.0  0.6428  0.38904  0.93943  1.0000
  H   H66       1.0  0.73321  0.50448  0.80389  1.0000
  H   H67       1.0  0.3414699999999999  0.54739  0.20772000000000002  1.0000
  H   H68       1.0  0.31427999999999995  0.71819  0.24743000000000007  1.0000
  H   H69       1.0  0.59805  0.39396000000000003  0.88189  1.0000
  H   H70       1.0  0.79277  0.3937899999999999  0.7912500000000002  1.0000
  H   H71       1.0  0.20725999999999997  0.73977  0.26301  1.0000
  H   H72       1.0  0.6067000000000001  0.32381  0.83335  1.0000
  H   H73       1.0  0.97205  0.9213200000000001  0.4816300000000001  1.0000
  H   H74       1.0  0.9642599999999999  0.96538  0.54779  1.0000
  H   H75       1.0  0.76794  0.12283  0.52942  1.0000
  H   H76       1.0  0.7745399999999999  0.07517  0.46579  1.0000
  H   H77       1.0  0.9712699999999999  0.037099999999999994  0.5683200000000002  1.0000
  H   H78       1.0  0.96612  0.07508999999999996  0.6362500000000002  1.0000
  H   H79       1.0  0.8543099999999999  0.13628  0.68935  1.0000
  H   H80       1.0  0.75252  0.11870000000000001  0.60671  1.0000
  H   H81       1.0  0.7624199999999998  0.12356999999999996  0.7505800000000002  1.0000
  H   H82       1.0  0.6538399999999999  0.19231999999999994  0.8016400000000001  1.0000
  H   H83       1.0  0.57332  0.29948  0.67091  1.0000
  H   H84       1.0  0.6819099999999999  0.23105000000000003  0.6194200000000001  1.0000
  H   H85       1.0  0.9215800000000002  0.6251899999999999  0.4814700000000001  1.0000
  H   H86       1.0  0.9654000000000007  0.52272  0.54782  1.0000
  H   H87       1.0  0.12282000000000008  0.5794899999999998  0.52956  1.0000
  H   H88       1.0  0.07568999999999991  0.6841000000000002  0.46552  1.0000
  H   H89       1.0  0.037340000000000075  0.42305999999999994  0.5685  1.0000
  H   H90       1.0  0.0751899999999999  0.32230999999999993  0.6366400000000002  1.0000
  H   H91       1.0  0.13612000000000005  0.32005999999999996  0.68975  1.0000
  H   H92       1.0  0.11871999999999988  0.5219399999999998  0.6068400000000003  1.0000
  H   H93       1.0  0.12376  0.36347  0.75081  1.0000
  H   H94       1.0  0.19280000000000003  0.3523899999999999  0.8015200000000001  1.0000
  H   H95       1.0  0.29954  0.4562700000000001  0.67041  1.0000
  H   H96       1.0  0.23076999999999998  0.4675599999999999  0.6191900000000001  1.0000
  H   H97       1.0  0.62511  0.97142  0.4816900000000001  1.0000
  H   H98       1.0  0.5225  0.9638900000000001  0.54795  1.0000
  H   H99       1.0  0.5797599999999999  0.7676200000000002  0.52958  1.0000
  H   H100      1.0  0.68431  0.77435  0.46554  1.0000
  H   H101      1.0  0.42309  0.97084  0.5687400000000001  1.0000
  H   H102      1.0  0.32233999999999996  0.96556  0.6366800000000002  1.0000
  H   H103      1.0  0.32016000000000006  0.8537  0.6897  1.0000
  H   H104      1.0  0.52229  0.75203  0.6068  1.0000
  H   H105      1.0  0.3636599999999999  0.7613200000000001  0.75079  1.0000
  H   H106      1.0  0.35247999999999996  0.65266  0.8013500000000001  1.0000
  H   H107      1.0  0.4565799999999999  0.5734  0.67002  1.0000
  H   H108      1.0  0.46801999999999994  0.68207  0.6190600000000002  1.0000
  H   H109      1.0  0.1252099999999999  0.4215999999999998  0.9814400000000002  1.0000
  H   H110      1.0  0.02273  0.4654  0.04782  1.0000
  H   H111      1.0  0.07950999999999991  0.6228000000000001  0.029560000000000003  1.0000
  H   H112      1.0  0.18409999999999987  0.5757200000000002  0.9654800000000001  1.0000
  H   H113      1.0  0.9231100000000001  0.5373199999999999  0.0685  1.0000
  H   H114      1.0  0.8223199999999999  0.57519  0.13663  1.0000
  H   H115      1.0  0.82007  0.63612  0.18973  1.0000
  H   H116      1.0  0.02196999999999996  0.61872  0.10682  1.0000
  H   H117      1.0  0.86345  0.6237900000000001  0.25082  1.0000
  H   H118      1.0  0.8523999999999999  0.69282  0.30151  1.0000
  H   H119      1.0  0.9562699999999997  0.7995500000000001  0.17041  1.0000
  H   H120      1.0  0.96755  0.7308  0.11919000000000003  1.0000
  H   H121      1.0  0.4714599999999999  0.12508999999999998  0.9816900000000002  1.0000
  H   H122      1.0  0.4639099999999999  0.02252  0.04793  1.0000
  H   H123      1.0  0.26764  0.07979  0.029550000000000003  1.0000
  H   H124      1.0  0.27432999999999996  0.18433999999999998  0.9655500000000001  1.0000
  H   H125      1.0  0.47087  0.9230400000000001  0.06876000000000002  1.0000
  H   H126      1.0  0.46556000000000003  0.82232  0.13667  1.0000
  H   H127      1.0  0.35368999999999984  0.8201400000000002  0.1897  1.0000
  H   H128      1.0  0.25203  0.022280000000000008  0.10681  1.0000
  H   H129      1.0  0.26134  0.86367  0.25078  1.0000
  H   H130      1.0  0.15268000000000012  0.85248  0.30136  1.0000
  H   H131      1.0  0.07336999999999999  0.95658  0.17006  1.0000
  H   H132      1.0  0.18204999999999993  0.9680300000000001  0.11906000000000003  1.0000
  H   H133      1.0  0.4213099999999999  0.47202000000000005  0.9816300000000002  1.0000
  H   H134      1.0  0.46539  0.46424  0.04778  1.0000
  H   H135      1.0  0.6228499999999998  0.26794  0.029440000000000008  1.0000
  H   H136      1.0  0.5752  0.2745299999999999  0.9658200000000001  1.0000
  H   H137      1.0  0.5370899999999998  0.4712700000000001  0.06832  1.0000
  H   H138      1.0  0.5750599999999998  0.46611  0.13626  1.0000
  H   H139      1.0  0.6362700000000001  0.35431  0.18936  1.0000
  H   H140      1.0  0.61868  0.25253  0.10672  1.0000
  H   H141      1.0  0.62356  0.26242  0.25057  1.0000
  H   H142      1.0  0.6923099999999999  0.15385  0.30164  1.0000
  H   H143      1.0  0.7994600000000002  0.07335000000000003  0.17089  1.0000
  H   H144      1.0  0.73103  0.18193000000000004  0.11942000000000001  1.0000
  C   C1        1.0  0.06021  0.17305000000000004  0.45506  1.0000
  C   C2        1.0  0.14208999999999994  0.0007099999999999426  0.6182100000000001  1.0000
  C   C3        1.0  0.01965999999999994  0.17910999999999996  0.4244300000000001  1.0000
  C   C4        1.0  0.13734999999999994  0.9389099999999999  0.6575800000000002  1.0000
  C   C5        1.0  0.9676899999999999  0.15594  0.44823000000000013  1.0000
  C   C6        1.0  0.032649999999999936  0.20713000000000004  0.37216000000000005  1.0000
  C   C7        1.0  0.08713999999999988  0.91754  0.6659100000000002  1.0000
  C   C8        1.0  0.18455999999999986  0.9007700000000001  0.6872100000000001  1.0000
  C   C9        1.0  0.92952  0.16041  0.42039000000000004  1.0000
  C   C10       1.0  0.9936799999999999  0.21231  0.34447  1.0000
  C   C11       1.0  0.08535999999999998  0.85859  0.70251  1.0000
  C   C12       1.0  0.18218999999999985  0.8425000000000001  0.7240200000000002  1.0000
  C   C13       1.0  0.9415199999999999  0.18905000000000005  0.36806  1.0000
  C   C14       1.0  0.13273999999999972  0.8198999999999999  0.7323200000000002  1.0000
  C   C15       1.0  0.89999  0.19421  0.33898  1.0000
  C   C16       1.0  0.13089999999999985  0.7579699999999999  0.7720000000000002  1.0000
  C   C17       1.0  0.87862  0.14248  0.35135  1.0000
  C   C18       1.0  0.8800199999999999  0.25124  0.29933000000000004  1.0000
  C   C19       1.0  0.19111000000000006  0.70466  0.78455  1.0000
  C   C20       1.0  0.83923  0.14744  0.32403000000000004  1.0000
  C   C21       1.0  0.17288  0.31168000000000007  0.45488  1.0000
  C   C22       1.0  0.00043999999999986726  0.23936999999999997  0.6182700000000002  1.0000
  C   C23       1.0  0.17923999999999998  0.37664999999999993  0.42414000000000013  1.0000
  C   C24       1.0  0.9386099999999999  0.26638  0.6576600000000001  1.0000
  C   C25       1.0  0.1562299999999999  0.428  0.4479100000000001  1.0000
  C   C26       1.0  0.20743999999999987  0.38778000000000007  0.3718700000000001  1.0000
  C   C27       1.0  0.9171699999999999  0.32959999999999995  0.6660800000000002  1.0000
  C   C28       1.0  0.9005799999999999  0.22757999999999995  0.6871900000000001  1.0000
  C   C29       1.0  0.16095999999999994  0.48941000000000007  0.42006000000000004  1.0000
  C   C30       1.0  0.21283999999999995  0.4491900000000001  0.34419  1.0000
  C   C31       1.0  0.8581599999999999  0.35373  0.70266  1.0000
  C   C32       1.0  0.8422799999999998  0.25139  0.7240200000000002  1.0000
  C   C33       1.0  0.18968999999999997  0.50103  0.36776000000000003  1.0000
  C   C34       1.0  0.8195399999999999  0.31517999999999996  0.7323900000000002  1.0000
  C   C35       1.0  0.19482999999999995  0.56649  0.33874000000000004  1.0000
  C   C36       1.0  0.7575599999999998  0.33925  0.7721200000000001  1.0000
  C   C37       1.0  0.14298999999999998  0.6273  0.35113  1.0000
  C   C38       1.0  0.25179000000000007  0.56915  0.29908000000000007  1.0000
  C   C39       1.0  0.7043199999999998  0.3198200000000001  0.78463  1.0000
  C   C40       1.0  0.14783000000000007  0.6891199999999998  0.3238600000000001  1.0000
  C   C41       1.0  0.3117100000000001  0.06008  0.45507  1.0000
  C   C42       1.0  0.23929999999999998  0.14239999999999994  0.6180800000000002  1.0000
  C   C43       1.0  0.37685  0.019569999999999966  0.4243600000000001  1.0000
  C   C44       1.0  0.26627  0.13750999999999994  0.6576400000000001  1.0000
  C   C45       1.0  0.4283199999999998  0.96751  0.4481100000000001  1.0000
  C   C46       1.0  0.38802000000000003  0.03265999999999995  0.3720900000000001  1.0000
  C   C47       1.0  0.32952999999999993  0.08717999999999992  0.6661000000000002  1.0000
  C   C48       1.0  0.22743999999999995  0.18472999999999995  0.6872900000000001  1.0000
  C   C49       1.0  0.4898699999999999  0.9293  0.42022000000000004  1.0000
  C   C50       1.0  0.44951  0.9936300000000001  0.34437  1.0000
  C   C51       1.0  0.3536999999999999  0.08540999999999999  0.70266  1.0000
  C   C52       1.0  0.25127  0.18232999999999988  0.7241000000000002  1.0000
  C   C53       1.0  0.50141  0.9413599999999998  0.36793000000000003  1.0000
  C   C54       1.0  0.3151399999999999  0.13288999999999995  0.7323900000000002  1.0000
  C   C55       1.0  0.5668499999999999  0.8998400000000001  0.33885000000000004  1.0000
  C   C56       1.0  0.33918999999999977  0.1311499999999999  0.7720400000000002  1.0000
  C   C57       1.0  0.62763  0.8784400000000002  0.3512  1.0000
  C   C58       1.0  0.5694300000000001  0.8799799999999999  0.2992  1.0000
  C   C59       1.0  0.31967999999999996  0.19138000000000002  0.78451  1.0000
  C   C60       1.0  0.6894399999999999  0.83906  0.3238500000000001  1.0000
  C   C61       1.0  0.8116799999999998  0.67288  0.9548900000000001  1.0000
  C   C62       1.0  0.7393499999999997  0.50043  0.11827000000000001  1.0000
  C   C63       1.0  0.87665  0.6792399999999998  0.9241400000000002  1.0000
  C   C64       1.0  0.76637  0.43859  0.15766  1.0000
  C   C65       1.0  0.9279999999999999  0.6562400000000002  0.94792  1.0000
  C   C66       1.0  0.8877700000000001  0.70745  0.87188  1.0000
  C   C67       1.0  0.82959  0.4171599999999999  0.16608000000000006  1.0000
  C   C68       1.0  0.7275699999999999  0.40057000000000004  0.18719  1.0000
  C   C69       1.0  0.9894100000000001  0.6609700000000002  0.92006  1.0000
  C   C70       1.0  0.9491800000000001  0.7128499999999999  0.8442  1.0000
  C   C71       1.0  0.85372  0.35814999999999997  0.20266000000000003  1.0000
  C   C72       1.0  0.7513899999999999  0.34226  0.22403000000000006  1.0000
  C   C73       1.0  0.0010299999999998958  0.6897000000000001  0.8677600000000002  1.0000
  C   C74       1.0  0.81518  0.3195200000000001  0.2324  1.0000
  C   C75       1.0  0.06648999999999988  0.69484  0.8387400000000003  1.0000
  C   C76       1.0  0.83926  0.25754  0.27212  1.0000
  C   C77       1.0  0.12729999999999986  0.6429900000000001  0.85113  1.0000
  C   C78       1.0  0.06914999999999986  0.7518  0.7990800000000002  1.0000
  C   C79       1.0  0.81983  0.20429  0.28464000000000006  1.0000
  C   C80       1.0  0.18913000000000002  0.6478199999999998  0.82387  1.0000
  C   C81       1.0  0.5600600000000001  0.8117100000000003  0.9550800000000002  1.0000
  C   C82       1.0  0.64238  0.73933  0.11806000000000003  1.0000
  C   C83       1.0  0.5195599999999998  0.87685  0.9243600000000002  1.0000
  C   C84       1.0  0.6374900000000001  0.7662699999999999  0.15763  1.0000
  C   C85       1.0  0.4675099999999999  0.92831  0.94812  1.0000
  C   C86       1.0  0.5326599999999997  0.8880300000000002  0.87209  1.0000
  C   C87       1.0  0.5871599999999998  0.8295200000000001  0.16609  1.0000
  C   C88       1.0  0.6847099999999998  0.7274400000000002  0.18728  1.0000
  C   C89       1.0  0.42930999999999997  0.98986  0.92024  1.0000
  C   C90       1.0  0.49362  0.94953  0.84437  1.0000
  C   C91       1.0  0.5853999999999997  0.8536900000000001  0.20265000000000005  1.0000
  C   C92       1.0  0.6823200000000001  0.75126  0.22409000000000007  1.0000
  C   C93       1.0  0.44137  0.0014099999999999148  0.8679500000000002  1.0000
  C   C94       1.0  0.63288  0.81513  0.23238  1.0000
  C   C95       1.0  0.3998599999999998  0.06684999999999995  0.8388700000000002  1.0000
  C   C96       1.0  0.63115  0.83918  0.27202  1.0000
  C   C97       1.0  0.37845999999999996  0.12761999999999998  0.85123  1.0000
  C   C98       1.0  0.37998  0.06941999999999991  0.7992200000000003  1.0000
  C   C99       1.0  0.6913900000000001  0.81966  0.2844900000000001  1.0000
  C   C100      1.0  0.33907000000000004  0.18941999999999998  0.82387  1.0000
  C   C101      1.0  0.6730599999999999  0.5602100000000001  0.9550600000000001  1.0000
  C   C102      1.0  0.5007099999999999  0.64206  0.11820000000000001  1.0000
  C   C103      1.0  0.6791299999999999  0.51965  0.9244200000000002  1.0000
  C   C104      1.0  0.43889  0.63733  0.15756  1.0000
  C   C105      1.0  0.6559599999999999  0.46769000000000005  0.94822  1.0000
  C   C106      1.0  0.7071499999999998  0.5326600000000002  0.87215  1.0000
  C   C107      1.0  0.41751  0.58713  0.1659  1.0000
  C   C108      1.0  0.40075999999999995  0.68455  0.18719  1.0000
  C   C109      1.0  0.66043  0.42951999999999996  0.92038  1.0000
  C   C110      1.0  0.7123299999999995  0.49368  0.84447  1.0000
  C   C111      1.0  0.35857  0.5853500000000001  0.20251000000000005  1.0000
  C   C112      1.0  0.34251  0.68218  0.22401000000000004  1.0000
  C   C113      1.0  0.68907  0.4415199999999999  0.8680400000000003  1.0000
  C   C114      1.0  0.3199000000000001  0.63273  0.23232  1.0000
  C   C115      1.0  0.6942299999999998  0.3999899999999999  0.8389700000000002  1.0000
  C   C116      1.0  0.25797999999999993  0.63089  0.272  1.0000
  C   C117      1.0  0.6425100000000001  0.3786000000000001  0.85133  1.0000
  C   C118      1.0  0.7512600000000003  0.38000999999999996  0.7993200000000003  1.0000
  C   C119      1.0  0.20466999999999994  0.6911  0.28454000000000007  1.0000
  C   C120      1.0  0.64747  0.33921  0.82401  1.0000
  C   C121      1.0  0.8779899999999998  0.9663600000000001  0.4314  1.0000
  C   C122      1.0  0.8738099999999999  0.9952200000000001  0.46959  1.0000
  C   C123      1.0  0.9274999999999997  0.96526  0.49254000000000003  1.0000
  C   C124      1.0  0.92307  0.9907199999999998  0.52926  1.0000
  C   C125      1.0  0.8655999999999998  0.047670000000000025  0.54375  1.0000
  C   C126      1.0  0.81233  0.07786000000000003  0.51994  1.0000
  C   C127      1.0  0.81595  0.051780000000000014  0.48383  1.0000
  C   C128      1.0  0.8621  0.07400000000000001  0.58285  1.0000
  C   C129      1.0  0.9220400000000001  0.06235  0.59187  1.0000
  C   C130      1.0  0.9192199999999999  0.08421999999999999  0.6301800000000001  1.0000
  C   C131      1.0  0.8566699999999998  0.11854999999999997  0.65982  1.0000
  C   C132      1.0  0.79585  0.13316999999999998  0.65072  1.0000
  C   C133      1.0  0.79942  0.11032000000000003  0.6123  1.0000
  C   C134      1.0  0.73015  0.17244000000000007  0.68122  1.0000
  C   C135      1.0  0.72137  0.16254999999999997  0.7328700000000002  1.0000
  C   C136      1.0  0.6606399999999999  0.20057999999999987  0.7616700000000002  1.0000
  C   C137      1.0  0.60682  0.25032  0.73947  1.0000
  C   C138      1.0  0.6149299999999999  0.26060999999999995  0.68802  1.0000
  C   C139      1.0  0.6756299999999997  0.22188  0.65945  1.0000
  C   C140      1.0  0.5420899999999997  0.29120999999999997  0.7704900000000002  1.0000
  C   C141      1.0  0.9671599999999999  0.72391  0.43085  1.0000
  C   C142      1.0  0.99567  0.66123  0.46932  1.0000
  C   C143      1.0  0.96548  0.61475  0.49244000000000004  1.0000
  C   C144      1.0  0.9907700000000002  0.55701  0.52928  1.0000
  C   C145      1.0  0.047679999999999986  0.54291  0.54381  1.0000
  C   C146      1.0  0.07794999999999998  0.58969  0.51995  1.0000
  C   C147      1.0  0.05215000000000001  0.64819  0.48364  1.0000
  C   C148      1.0  0.07400999999999992  0.48095000000000004  0.5829800000000002  1.0000
  C   C149      1.0  0.06246999999999997  0.42356  0.59206  1.0000
  C   C150      1.0  0.08425999999999995  0.36621000000000004  0.63047  1.0000
  C   C151      1.0  0.11846000000000002  0.36488  0.66012  1.0000
  C   C152      1.0  0.13308999999999993  0.4201800000000001  0.65089  1.0000
  C   C153      1.0  0.11026999999999999  0.4778800000000001  0.61242  1.0000
  C   C154      1.0  0.17244000000000007  0.41613  0.68125  1.0000
  C   C155      1.0  0.16269999999999993  0.38322  0.7329500000000002  1.0000
  C   C156      1.0  0.20092999999999994  0.3771699999999999  0.7615200000000002  1.0000
  C   C157      1.0  0.25066000000000005  0.40336999999999995  0.73905  1.0000
  C   C158      1.0  0.2607199999999999  0.43643000000000004  0.6876000000000001  1.0000
  C   C159      1.0  0.22178999999999988  0.44300000000000006  0.65925  1.0000
  C   C160      1.0  0.29168999999999984  0.39610000000000006  0.7699300000000002  1.0000
  C   C161      1.0  0.7239099999999995  0.87755  0.43129  1.0000
  C   C162      1.0  0.6612099999999999  0.87334  0.46961  1.0000
  C   C163      1.0  0.61467  0.9269900000000001  0.49269  1.0000
  C   C164      1.0  0.5569299999999998  0.92264  0.52946  1.0000
  C   C165      1.0  0.5430099999999999  0.86521  0.54394  1.0000
  C   C166      1.0  0.5898399999999999  0.8119400000000001  0.52007  1.0000
  C   C167      1.0  0.6482899999999999  0.8155900000000001  0.48379  1.0000
  C   C168      1.0  0.48112  0.86166  0.5831100000000001  1.0000
  C   C169      1.0  0.42368  0.9215700000000001  0.59223  1.0000
  C   C170      1.0  0.36633  0.9186900000000001  0.63056  1.0000
  C   C171      1.0  0.3650399999999999  0.85612  0.66014  1.0000
  C   C172      1.0  0.42045999999999994  0.79535  0.65091  1.0000
  C   C173      1.0  0.4781499999999999  0.7989700000000001  0.61248  1.0000
  C   C174      1.0  0.4164800000000002  0.72963  0.6812  1.0000
  C   C175      1.0  0.3834899999999999  0.72051  0.7328700000000002  1.0000
  C   C176      1.0  0.37736  0.6597799999999999  0.7613500000000002  1.0000
  C   C177      1.0  0.40358999999999984  0.60639  0.73875  1.0000
  C   C178      1.0  0.4367400000000001  0.61479  0.6873300000000001  1.0000
  C   C179      1.0  0.44340999999999986  0.67547  0.6590900000000001  1.0000
  C   C180      1.0  0.39627  0.5417100000000001  0.76939  1.0000
  C   C181      1.0  0.22388999999999995  0.46717000000000003  0.93084  1.0000
  C   C182      1.0  0.16120000000000004  0.49570999999999993  0.96929  1.0000
  C   C183      1.0  0.11473999999999986  0.46550999999999987  0.9924200000000002  1.0000
  C   C184      1.0  0.05701999999999998  0.49077000000000004  0.029280000000000004  1.0000
  C   C185      1.0  0.04294  0.54767  0.04381  1.0000
  C   C186      1.0  0.08971000000000001  0.57794  0.019940000000000003  1.0000
  C   C187      1.0  0.14818999999999977  0.5521800000000001  0.9836100000000002  1.0000
  C   C188      1.0  0.98098  0.574  0.08298  1.0000
  C   C189      1.0  0.9235900000000001  0.56246  0.09206  1.0000
  C   C190      1.0  0.86624  0.58426  0.13045  1.0000
  C   C191      1.0  0.8649  0.61846  0.1601  1.0000
  C   C192      1.0  0.9202  0.63309  0.15088  1.0000
  C   C193      1.0  0.97791  0.61026  0.11241000000000001  1.0000
  C   C194      1.0  0.91613  0.67245  0.18125000000000002  1.0000
  C   C195      1.0  0.8832199999999999  0.6627100000000001  0.23294  1.0000
  C   C196      1.0  0.87718  0.7009299999999999  0.26151  1.0000
  C   C197      1.0  0.9033899999999999  0.75066  0.23905  1.0000
  C   C198      1.0  0.93644  0.7607300000000001  0.1876  1.0000
  C   C199      1.0  0.94301  0.7218  0.15924000000000005  1.0000
  C   C200      1.0  0.8961199999999997  0.79169  0.26992  1.0000
  C   C201      1.0  0.37763  0.22387  0.93118  1.0000
  C   C202      1.0  0.37337  0.16125000000000003  0.9696  1.0000
  C   C203      1.0  0.42700999999999995  0.11468999999999992  0.9926900000000002  1.0000
  C   C204      1.0  0.42265  0.05695  0.029460000000000007  1.0000
  C   C205      1.0  0.36522  0.043019999999999996  0.043940000000000014  1.0000
  C   C206      1.0  0.31195  0.08987  0.02006  1.0000
  C   C207      1.0  0.31559999999999994  0.14833999999999997  0.9837900000000002  1.0000
  C   C208      1.0  0.3616799999999998  0.9811200000000001  0.0831  1.0000
  C   C209      1.0  0.42158  0.92366  0.09223  1.0000
  C   C210      1.0  0.41869999999999985  0.8663100000000001  0.13056  1.0000
  C   C211      1.0  0.35612999999999984  0.8650300000000001  0.16015  1.0000
  C   C212      1.0  0.2953600000000002  0.92046  0.15091  1.0000
  C   C213      1.0  0.29897999999999997  0.97815  0.11248  1.0000
  C   C214      1.0  0.22963  0.9164800000000001  0.18120000000000003  1.0000
  C   C215      1.0  0.22052999999999984  0.8834900000000001  0.23287  1.0000
  C   C216      1.0  0.15979  0.87735  0.26137  1.0000
  C   C217      1.0  0.10640000000000001  0.90357  0.23877000000000004  1.0000
  C   C218      1.0  0.11479000000000004  0.93673  0.18734  1.0000
  C   C219      1.0  0.17545999999999995  0.94341  0.15910000000000005  1.0000
  C   C220      1.0  0.04171999999999993  0.8962600000000001  0.2694  1.0000
  C   C221      1.0  0.46636  0.37799  0.9314  1.0000
  C   C222      1.0  0.4952199999999997  0.37379  0.96959  1.0000
  C   C223      1.0  0.46525999999999995  0.42749000000000004  0.9925500000000003  1.0000
  C   C224      1.0  0.49071999999999993  0.42305  0.029260000000000005  1.0000
  C   C225      1.0  0.54768  0.36559  0.04375  1.0000
  C   C226      1.0  0.57788  0.31232  0.019950000000000002  1.0000
  C   C227      1.0  0.5517899999999999  0.31595  0.9838400000000002  1.0000
  C   C228      1.0  0.57401  0.3621  0.08284  1.0000
  C   C229      1.0  0.56235  0.4220400000000001  0.09186000000000001  1.0000
  C   C230      1.0  0.5842100000000001  0.41922  0.13018  1.0000
  C   C231      1.0  0.61854  0.35667000000000004  0.15982000000000002  1.0000
  C   C232      1.0  0.63317  0.29585  0.15072  1.0000
  C   C233      1.0  0.6103199999999999  0.2994200000000001  0.11230000000000001  1.0000
  C   C234      1.0  0.6724300000000001  0.23016  0.18122000000000002  1.0000
  C   C235      1.0  0.6625399999999998  0.22138  0.23288  1.0000
  C   C236      1.0  0.70058  0.16065000000000002  0.26168  1.0000
  C   C237      1.0  0.75032  0.10683000000000001  0.23948  1.0000
  C   C238      1.0  0.7605999999999998  0.11494999999999998  0.18802000000000005  1.0000
  C   C239      1.0  0.7218699999999999  0.17565  0.15945000000000004  1.0000
  C   C240      1.0  0.79121  0.04209000000000001  0.2705  1.0000
  O   O1        1.0  0.04042999999999996  0.15190000000000006  0.50287  1.0000
  O   O2        1.0  0.09319  0.03975999999999997  0.59643  1.0000
  O   O3        1.0  0.009949999999999916  0.1860199999999999  0.6091000000000002  1.0000
  O   O4        1.0  0.11109  0.18887  0.43175  1.0000
  O   O5        1.0  0.15126999999999996  0.30521  0.50266  1.0000
  O   O6        1.0  0.03943999999999999  0.27097  0.59668  1.0000
  O   O7        1.0  0.1856599999999999  0.19539000000000004  0.6092100000000001  1.0000
  O   O8        1.0  0.1889099999999999  0.26807999999999993  0.43172  1.0000
  O   O9        1.0  0.30491  0.04004999999999998  0.5028900000000001  1.0000
  O   O10       1.0  0.27115999999999996  0.09384000000000005  0.59595  1.0000
  O   O11       1.0  0.19503999999999996  0.010239999999999963  0.6091900000000001  1.0000
  O   O12       1.0  0.26829999999999987  0.11115  0.43179  1.0000
  O   O13       1.0  0.8051999999999999  0.65126  0.002670000000000001  1.0000
  O   O14       1.0  0.77095  0.53943  0.09668000000000002  1.0000
  O   O15       1.0  0.6953299999999999  0.68566  0.10921  1.0000
  O   O16       1.0  0.76807  0.68892  0.93172  1.0000
  O   O17       1.0  0.54  0.80487  0.0029000000000000007  1.0000
  O   O18       1.0  0.59384  0.7712300000000001  0.0959  1.0000
  O   O19       1.0  0.51027  0.69498  0.1092  1.0000
  O   O20       1.0  0.6111499999999999  0.7683200000000001  0.9318  1.0000
  O   O21       1.0  0.65193  0.54042  0.0028700000000000006  1.0000
  O   O22       1.0  0.53976  0.59316  0.09643000000000003  1.0000
  O   O23       1.0  0.6859899999999999  0.50993  0.10911  1.0000
  O   O24       1.0  0.68886  0.6111000000000001  0.93174  1.0000
  O   O25       1.0  0.15588  0.15628000000000006  0.53196  1.0000
  O   O26       1.0  0.6562500000000001  0.65589  0.03197  1.0000
  O   O27       1.0  0.8249999999999996  0.9925500000000002  0.4151200000000001  1.0000
  O   O28       1.0  0.93413  0.9176400000000001  0.41804  1.0000
  O   O29       1.0  0.4958200000000001  0.33781000000000005  0.74793  1.0000
  O   O30       1.0  0.53817  0.27624  0.81761  1.0000
  O   O31       1.0  0.9948099999999996  0.7659600000000002  0.4133  1.0000
  O   O32       1.0  0.9172499999999999  0.73088  0.41848000000000013  1.0000
  O   O33       1.0  0.33843999999999996  0.41798  0.74751  1.0000
  O   O34       1.0  0.2765  0.36802  0.81704  1.0000
  O   O35       1.0  0.76573  0.8256  0.41331  1.0000
  O   O36       1.0  0.7311099999999994  0.93255  0.4194600000000001  1.0000
  O   O37       1.0  0.41788  0.49593  0.74655  1.0000
  O   O38       1.0  0.3684599999999999  0.5374000000000002  0.81655  1.0000
  O   O39       1.0  0.2659499999999998  0.4948000000000003  0.9133  1.0000
  O   O40       1.0  0.23085000000000006  0.41726  0.91847  1.0000
  O   O41       1.0  0.91797  0.83847  0.24749  1.0000
  O   O42       1.0  0.8680500000000002  0.7765  0.31704  1.0000
  O   O43       1.0  0.32561999999999985  0.26572999999999997  0.9132700000000002  1.0000
  O   O44       1.0  0.43272000000000005  0.23099  0.91917  1.0000
  O   O45       1.0  0.9959199999999999  0.9178900000000002  0.24656  1.0000
  O   O46       1.0  0.03739999999999981  0.8684300000000001  0.31656  1.0000
  O   O47       1.0  0.4925399999999998  0.32498999999999995  0.9151300000000002  1.0000
  O   O48       1.0  0.4176399999999999  0.43412  0.9180300000000001  1.0000
  O   O49       1.0  0.83782  0.99584  0.24794000000000005  1.0000
  O   O50       1.0  0.77619  0.03814999999999997  0.31763000000000013  1.0000
  O   O51       1.0  0.8839299999999998  0.88374  0.3479400000000001  1.0000
  O   O52       1.0  0.3837299999999999  0.38394999999999996  0.8479300000000002  1.0000
