data_image0
_chemical_formula_structural       Cu12H120C192N48O48
_chemical_formula_sum              "Cu12 H120 C192 N48 O48"
_cell_length_a       35.636
_cell_length_b       35.63481
_cell_length_c       35.63493
_cell_angle_alpha    60.04121000000001
_cell_angle_beta     60.02402
_cell_angle_gamma    60.023909999999994

_symmetry_space_group_name_H-M    'P 1'
_symmetry_Int_Tables_number       1

loop_
  _symmetry_equiv_pos_as_xyz
  'x,y,z'

loop_
  _atom_site_type_symbol
  _atom_site_label
  _atom_site_symmetry_multiplicity
  _atom_site_fract_x
  _atom_site_fract_y
  _atom_site_fract_z
  _atom_site_occupancy
  Cu  Cu1       1.0  0.032530000000000066  0.51043  0.4895899999999999  1.0000
  Cu  Cu2       1.0  0.51043  0.03252000000000002  0.96746  1.0000
  Cu  Cu3       1.0  0.96747  0.48958  0.51041  1.0000
  Cu  Cu4       1.0  0.48957000000000006  0.96748  0.03253  1.0000
  Cu  Cu5       1.0  0.9674699999999998  0.03254000000000002  0.4895899999999999  1.0000
  Cu  Cu6       1.0  0.48958  0.5104  0.9674699999999999  1.0000
  Cu  Cu7       1.0  0.032530000000000066  0.96747  0.51041  1.0000
  Cu  Cu8       1.0  0.51042  0.4896  0.03253  1.0000
  Cu  Cu9       1.0  0.51041  0.96748  0.48957  1.0000
  Cu  Cu10      1.0  0.03253999999999996  0.48957  0.9674699999999999  1.0000
  Cu  Cu11      1.0  0.48959  0.03253000000000001  0.51043  1.0000
  Cu  Cu12      1.0  0.9674600000000001  0.5104299999999998  0.03252  1.0000
  H   H1        1.0  0.7957200000000001  0.7722300000000001  0.4953599999999999  1.0000
  H   H2        1.0  0.92141  0.7332999999999998  0.46995  1.0000
  H   H3        1.0  0.9719300000000001  0.6536699999999998  0.4689099999999999  1.0000
  H   H4        1.0  0.85471  0.62006  0.50731  1.0000
  H   H5        1.0  0.80395  0.69925  0.50843  1.0000
  H   H6        1.0  0.7722700000000002  0.79565  0.9367799999999997  1.0000
  H   H7        1.0  0.73332  0.9211500000000001  0.8756  1.0000
  H   H8        1.0  0.6536799999999999  0.9718299999999996  0.90553  1.0000
  H   H9        1.0  0.61986  0.85483  0.017979999999999993  1.0000
  H   H10       1.0  0.69903  0.80389  0.9886399999999997  1.0000
  H   H11       1.0  0.9369300000000002  0.49528999999999995  0.77224  1.0000
  H   H12       1.0  0.8755500000000004  0.4699599999999999  0.7332899999999998  1.0000
  H   H13       1.0  0.9054700000000001  0.46894  0.65368  1.0000
  H   H14       1.0  0.017960000000000156  0.5073299999999997  0.61988  1.0000
  H   H15       1.0  0.9886499999999998  0.50847  0.69903  1.0000
  H   H16       1.0  0.4953100000000001  0.9367899999999999  0.7957599999999999  1.0000
  H   H17       1.0  0.46998000000000023  0.8754900000000001  0.9212199999999998  1.0000
  H   H18       1.0  0.4690200000000002  0.9054799999999996  0.9719199999999998  1.0000
  H   H19       1.0  0.5073700000000001  0.0179400000000001  0.8548899999999998  1.0000
  H   H20       1.0  0.5084100000000001  0.98849  0.80398  1.0000
  H   H21       1.0  0.9368300000000004  0.79574  0.49530999999999986  1.0000
  H   H22       1.0  0.8754699999999999  0.92125  0.4699699999999999  1.0000
  H   H23       1.0  0.9054700000000002  0.9719299999999998  0.46901  1.0000
  H   H24       1.0  0.017939999999999977  0.85488  0.50737  1.0000
  H   H25       1.0  0.9885  0.8039700000000001  0.50841  1.0000
  H   H26       1.0  0.49528000000000005  0.77228  0.93692  1.0000
  H   H27       1.0  0.4699400000000003  0.7332999999999998  0.8755699999999997  1.0000
  H   H28       1.0  0.4689400000000001  0.6536900000000001  0.9054699999999998  1.0000
  H   H29       1.0  0.50733  0.61991  0.01794  1.0000
  H   H30       1.0  0.5084600000000001  0.6990299999999999  0.98867  1.0000
  H   H31       1.0  0.7956000000000001  0.9368199999999997  0.77228  1.0000
  H   H32       1.0  0.9211700000000004  0.8756099999999997  0.7332999999999997  1.0000
  H   H33       1.0  0.9718200000000001  0.9055299999999995  0.65371  1.0000
  H   H34       1.0  0.8547799999999999  0.01796999999999998  0.61991  1.0000
  H   H35       1.0  0.8038600000000002  0.9886699999999996  0.69902  1.0000
  H   H36       1.0  0.77222  0.49535999999999997  0.79571  1.0000
  H   H37       1.0  0.7333000000000001  0.46995  0.9214  1.0000
  H   H38       1.0  0.65368  0.46892  0.9719099999999999  1.0000
  H   H39       1.0  0.6200500000000001  0.5073199999999998  0.85472  1.0000
  H   H40       1.0  0.69924  0.50843  0.8039499999999998  1.0000
  H   H41       1.0  0.7722500000000002  0.9369199999999995  0.49529  1.0000
  H   H42       1.0  0.73331  0.87554  0.46994  1.0000
  H   H43       1.0  0.6536900000000002  0.9054599999999999  0.46894  1.0000
  H   H44       1.0  0.61989  0.01796000000000002  0.50733  1.0000
  H   H45       1.0  0.6990399999999999  0.9886599999999999  0.50846  1.0000
  H   H46       1.0  0.7957399999999998  0.4953199999999999  0.93681  1.0000
  H   H47       1.0  0.9212699999999999  0.4699700000000001  0.8754499999999997  1.0000
  H   H48       1.0  0.97194  0.46901  0.9054499999999999  1.0000
  H   H49       1.0  0.8548499999999999  0.50737  0.01795  1.0000
  H   H50       1.0  0.80396  0.50842  0.98849  1.0000
  H   H51       1.0  0.4953699999999999  0.79574  0.7722  1.0000
  H   H52       1.0  0.4699400000000002  0.9214399999999998  0.7332999999999997  1.0000
  H   H53       1.0  0.46891000000000016  0.9719099999999997  0.65371  1.0000
  H   H54       1.0  0.5073199999999999  0.85468  0.6200899999999998  1.0000
  H   H55       1.0  0.5084300000000002  0.80396  0.69924  1.0000
  H   H56       1.0  0.9368199999999998  0.7722300000000001  0.79564  1.0000
  H   H57       1.0  0.8755599999999999  0.7333300000000001  0.9212  1.0000
  H   H58       1.0  0.90551  0.6537400000000001  0.9718099999999997  1.0000
  H   H59       1.0  0.017990000000000072  0.61993  0.8547499999999999  1.0000
  H   H60       1.0  0.9886400000000001  0.69903  0.80389  1.0000
  H   H61       1.0  0.20428000000000007  0.22777999999999993  0.50464  1.0000
  H   H62       1.0  0.07859000000000001  0.26671  0.53005  1.0000
  H   H63       1.0  0.028070000000000147  0.3463299999999998  0.53108  1.0000
  H   H64       1.0  0.14529000000000014  0.37994  0.4926799999999999  1.0000
  H   H65       1.0  0.19604999999999997  0.3007600000000001  0.49156  1.0000
  H   H66       1.0  0.22772999999999996  0.20435  0.06322  1.0000
  H   H67       1.0  0.26668  0.07884999999999995  0.1244  1.0000
  H   H68       1.0  0.34632  0.028179999999999997  0.09446  1.0000
  H   H69       1.0  0.38014000000000003  0.14517999999999992  0.98202  1.0000
  H   H70       1.0  0.30097000000000007  0.19610999999999995  0.01136  1.0000
  H   H71       1.0  0.06307000000000017  0.50472  0.22775  1.0000
  H   H72       1.0  0.12444999999999998  0.53005  0.2667  1.0000
  H   H73       1.0  0.0945300000000001  0.53106  0.3463199999999999  1.0000
  H   H74       1.0  0.98204  0.49268  0.38011  1.0000
  H   H75       1.0  0.011350000000000035  0.49152999999999997  0.30097  1.0000
  H   H76       1.0  0.50469  0.06322  0.20424  1.0000
  H   H77       1.0  0.53002  0.12451  0.07877  1.0000
  H   H78       1.0  0.53098  0.09451999999999998  0.02807  1.0000
  H   H79       1.0  0.49263  0.98206  0.1451  1.0000
  H   H80       1.0  0.49159  0.011510000000000008  0.19601999999999997  1.0000
  H   H81       1.0  0.06317000000000003  0.20427000000000003  0.50469  1.0000
  H   H82       1.0  0.12453000000000002  0.07874999999999999  0.53003  1.0000
  H   H83       1.0  0.09453000000000002  0.02808000000000001  0.53099  1.0000
  H   H84       1.0  0.9820600000000002  0.14512999999999998  0.4926299999999999  1.0000
  H   H85       1.0  0.011499999999999984  0.19603  0.49159  1.0000
  H   H86       1.0  0.50472  0.22771999999999995  0.06308  1.0000
  H   H87       1.0  0.53006  0.26671  0.12443  1.0000
  H   H88       1.0  0.53106  0.3463099999999999  0.09453  1.0000
  H   H89       1.0  0.49267  0.38009  0.98205  1.0000
  H   H90       1.0  0.49154  0.30097  0.01132  1.0000
  H   H91       1.0  0.20440000000000003  0.06319  0.22772  1.0000
  H   H92       1.0  0.07883  0.12438999999999995  0.26669  1.0000
  H   H93       1.0  0.028179999999999997  0.09448  0.34629  1.0000
  H   H94       1.0  0.14522000000000015  0.9820399999999997  0.38007999999999986  1.0000
  H   H95       1.0  0.19613999999999998  0.011329999999999998  0.30097  1.0000
  H   H96       1.0  0.22777999999999995  0.50464  0.20428  1.0000
  H   H97       1.0  0.26670000000000005  0.53006  0.0786  1.0000
  H   H98       1.0  0.34632  0.53108  0.028079999999999994  1.0000
  H   H99       1.0  0.37995  0.49268  0.14528  1.0000
  H   H100      1.0  0.3007600000000001  0.49156999999999995  0.19604999999999997  1.0000
  H   H101      1.0  0.22774999999999984  0.06308  0.50471  1.0000
  H   H102      1.0  0.2666899999999999  0.12447000000000001  0.53006  1.0000
  H   H103      1.0  0.34630999999999995  0.09454  0.53106  1.0000
  H   H104      1.0  0.38011  0.98204  0.49267  1.0000
  H   H105      1.0  0.30096  0.011350000000000002  0.49153  1.0000
  H   H106      1.0  0.20426000000000014  0.5046899999999997  0.06319  1.0000
  H   H107      1.0  0.07873000000000009  0.5300399999999997  0.12455  1.0000
  H   H108      1.0  0.028060000000000057  0.5309999999999998  0.09454  1.0000
  H   H109      1.0  0.14515000000000003  0.49263  0.98205  1.0000
  H   H110      1.0  0.19604000000000008  0.4915799999999999  0.01151  1.0000
  H   H111      1.0  0.5046300000000001  0.20427000000000003  0.22779999999999995  1.0000
  H   H112      1.0  0.53006  0.07856  0.26669  1.0000
  H   H113      1.0  0.53109  0.028089999999999997  0.34629  1.0000
  H   H114      1.0  0.4926800000000001  0.14533  0.37991  1.0000
  H   H115      1.0  0.49157000000000006  0.19604000000000002  0.3007599999999999  1.0000
  H   H116      1.0  0.06318000000000007  0.22776999999999992  0.20436  1.0000
  H   H117      1.0  0.12444000000000001  0.26668  0.07879  1.0000
  H   H118      1.0  0.09449000000000007  0.3462599999999999  0.028189999999999993  1.0000
  H   H119      1.0  0.98201  0.38008000000000003  0.14523999999999995  1.0000
  H   H120      1.0  0.0113600000000001  0.30097999999999997  0.19610999999999995  1.0000
  C   C1        1.0  0.8339500000000001  0.80101  0.49125  1.0000
  C   C2        1.0  0.8594  0.7214  0.48976999999999987  1.0000
  C   C3        1.0  0.90715  0.70849  0.4779599999999999  1.0000
  C   C4        1.0  0.9350599999999999  0.6640299999999996  0.47751  1.0000
  C   C5        1.0  0.91666  0.63164  0.48834  1.0000
  C   C6        1.0  0.8690999999999999  0.6450100000000001  0.4990499999999999  1.0000
  C   C7        1.0  0.8408400000000001  0.6893199999999998  0.49967  1.0000
  C   C8        1.0  0.94715  0.5836699999999998  0.4901  1.0000
  C   C9        1.0  0.8009099999999999  0.83394  0.87389  1.0000
  C   C10       1.0  0.72132  0.8592699999999999  0.9296499999999998  1.0000
  C   C11       1.0  0.70845  0.90699  0.9066099999999999  1.0000
  C   C12       1.0  0.664  0.9349799999999999  0.92349  1.0000
  C   C13       1.0  0.6315799999999998  0.91664  0.96342  1.0000
  C   C14       1.0  0.6448900000000002  0.8691099999999997  0.98695  1.0000
  C   C15       1.0  0.6892000000000001  0.8407699999999999  0.97036  1.0000
  C   C16       1.0  0.5836399999999997  0.94717  0.97908  1.0000
  C   C17       1.0  0.8740100000000001  0.49123999999999984  0.80094  1.0000
  C   C18       1.0  0.9296499999999999  0.48978  0.72133  1.0000
  C   C19       1.0  0.90657  0.47797999999999985  0.70844  1.0000
  C   C20       1.0  0.92343  0.4775400000000001  0.6639999999999999  1.0000
  C   C21       1.0  0.9633699999999998  0.48836  0.63158  1.0000
  C   C22       1.0  0.9869200000000007  0.4990699999999998  0.6449  1.0000
  C   C23       1.0  0.97036  0.49968999999999997  0.6892  1.0000
  C   C24       1.0  0.97899  0.4901499999999998  0.58363  1.0000
  C   C25       1.0  0.49123000000000017  0.8739099999999999  0.83406  1.0000
  C   C26       1.0  0.4897600000000004  0.9295999999999995  0.85941  1.0000
  C   C27       1.0  0.47798000000000007  0.9065099999999998  0.9071099999999997  1.0000
  C   C28       1.0  0.4775900000000003  0.9234099999999996  0.93508  1.0000
  C   C29       1.0  0.4884299999999999  0.9633600000000001  0.9166899999999998  1.0000
  C   C30       1.0  0.49911000000000005  0.98691  0.86917  1.0000
  C   C31       1.0  0.49968000000000046  0.9702999999999997  0.8408599999999998  1.0000
  C   C32       1.0  0.49020000000000014  0.9790399999999996  0.94719  1.0000
  C   C33       1.0  0.8739300000000002  0.8340299999999998  0.4912299999999999  1.0000
  C   C34       1.0  0.92959  0.8594000000000002  0.48974999999999996  1.0000
  C   C35       1.0  0.9065  0.9071099999999999  0.47798  1.0000
  C   C36       1.0  0.9234000000000002  0.93508  0.47759  1.0000
  C   C37       1.0  0.96334  0.91669  0.48844  1.0000
  C   C38       1.0  0.98689  0.8691699999999998  0.4991099999999999  1.0000
  C   C39       1.0  0.9702900000000001  0.84086  0.49967999999999996  1.0000
  C   C40       1.0  0.9790300000000002  0.9471899999999995  0.4902  1.0000
  C   C41       1.0  0.49124000000000007  0.8009499999999999  0.87401  1.0000
  C   C42       1.0  0.48978  0.7213500000000002  0.9296499999999998  1.0000
  C   C43       1.0  0.47798000000000007  0.70845  0.90658  1.0000
  C   C44       1.0  0.47754000000000035  0.66401  0.92343  1.0000
  C   C45       1.0  0.4883700000000002  0.6316  0.96336  1.0000
  C   C46       1.0  0.49907000000000007  0.6449199999999998  0.98691  1.0000
  C   C47       1.0  0.49968999999999997  0.6892199999999999  0.97036  1.0000
  C   C48       1.0  0.4901399999999999  0.58365  0.97899  1.0000
  C   C49       1.0  0.8339  0.87392  0.8009199999999997  1.0000
  C   C50       1.0  0.8592399999999998  0.9296599999999999  0.72134  1.0000
  C   C51       1.0  0.90698  0.90662  0.70845  1.0000
  C   C52       1.0  0.9349599999999998  0.9234900000000001  0.6640099999999999  1.0000
  C   C53       1.0  0.9166300000000001  0.9634200000000002  0.63159  1.0000
  C   C54       1.0  0.8690799999999999  0.98694  0.64492  1.0000
  C   C55       1.0  0.84074  0.9703700000000001  0.68922  1.0000
  C   C56       1.0  0.9471600000000002  0.9790699999999999  0.5836599999999997  1.0000
  C   C57       1.0  0.8010099999999999  0.49126000000000003  0.83394  1.0000
  C   C58       1.0  0.7214000000000002  0.48977  0.8594  1.0000
  C   C59       1.0  0.7084900000000001  0.47797  0.90714  1.0000
  C   C60       1.0  0.6640299999999999  0.47752000000000006  0.93505  1.0000
  C   C61       1.0  0.6316300000000001  0.4883499999999998  0.91665  1.0000
  C   C62       1.0  0.6450000000000001  0.49905999999999995  0.8691  1.0000
  C   C63       1.0  0.68932  0.49967999999999996  0.84084  1.0000
  C   C64       1.0  0.58367  0.4901  0.94714  1.0000
  C   C65       1.0  0.8009500000000004  0.8739999999999996  0.4912299999999999  1.0000
  C   C66       1.0  0.7213399999999999  0.9296400000000001  0.48976999999999987  1.0000
  C   C67       1.0  0.70846  0.9065599999999999  0.4779699999999999  1.0000
  C   C68       1.0  0.6640100000000001  0.9234299999999999  0.47753  1.0000
  C   C69       1.0  0.6315800000000003  0.9633799999999997  0.4883599999999999  1.0000
  C   C70       1.0  0.6449100000000001  0.98692  0.49907  1.0000
  C   C71       1.0  0.6892100000000003  0.9703499999999996  0.4996899999999999  1.0000
  C   C72       1.0  0.58363  0.9790100000000002  0.49015  1.0000
  C   C73       1.0  0.8340400000000001  0.49123999999999995  0.8739099999999999  1.0000
  C   C74       1.0  0.8594100000000001  0.4897599999999999  0.92957  1.0000
  C   C75       1.0  0.90712  0.47797999999999996  0.90648  1.0000
  C   C76       1.0  0.93508  0.47758999999999996  0.92339  1.0000
  C   C77       1.0  0.9166900000000002  0.48843999999999993  0.96334  1.0000
  C   C78       1.0  0.86915  0.49911000000000005  0.9868899999999998  1.0000
  C   C79       1.0  0.8408500000000004  0.49968  0.9702799999999998  1.0000
  C   C80       1.0  0.9471800000000001  0.49021000000000003  0.97903  1.0000
  C   C81       1.0  0.49125  0.8339400000000001  0.8010299999999998  1.0000
  C   C82       1.0  0.48976999999999987  0.85941  0.72141  1.0000
  C   C83       1.0  0.4779600000000001  0.9071599999999996  0.7085  1.0000
  C   C84       1.0  0.47752  0.93505  0.66405  1.0000
  C   C85       1.0  0.48833999999999994  0.91665  0.63164  1.0000
  C   C86       1.0  0.4990499999999999  0.86909  0.64502  1.0000
  C   C87       1.0  0.4996699999999999  0.8408500000000001  0.68933  1.0000
  C   C88       1.0  0.49010000000000015  0.94713  0.58368  1.0000
  C   C89       1.0  0.8739000000000003  0.8009499999999996  0.83389  1.0000
  C   C90       1.0  0.9296300000000006  0.72135  0.85926  1.0000
  C   C91       1.0  0.9065800000000003  0.7084699999999997  0.907  1.0000
  C   C92       1.0  0.9234800000000001  0.6640299999999998  0.93496  1.0000
  C   C93       1.0  0.9634200000000002  0.6316  0.91662  1.0000
  C   C94       1.0  0.98694  0.6449199999999999  0.86908  1.0000
  C   C95       1.0  0.97034  0.6892199999999999  0.8407599999999997  1.0000
  C   C96       1.0  0.97909  0.58366  0.94714  1.0000
  C   C97       1.0  0.16604999999999998  0.199  0.50875  1.0000
  C   C98       1.0  0.14060000000000017  0.2785999999999998  0.51023  1.0000
  C   C99       1.0  0.09284999999999999  0.29152000000000006  0.52203  1.0000
  C   C100      1.0  0.06494  0.33598  0.52248  1.0000
  C   C101      1.0  0.08334000000000004  0.3683699999999999  0.51166  1.0000
  C   C102      1.0  0.13090000000000002  0.3549999999999999  0.50095  1.0000
  C   C103      1.0  0.15916000000000002  0.3106799999999999  0.50033  1.0000
  C   C104      1.0  0.052849999999999994  0.41633  0.5099  1.0000
  C   C105      1.0  0.19909000000000004  0.16606999999999994  0.12611  1.0000
  C   C106      1.0  0.27868  0.14073  0.07034  1.0000
  C   C107      1.0  0.2915499999999999  0.09300999999999998  0.09339  1.0000
  C   C108      1.0  0.336  0.06502999999999999  0.07651  1.0000
  C   C109      1.0  0.36842  0.08336999999999997  0.03657  1.0000
  C   C110      1.0  0.35511  0.1309  0.01305  1.0000
  C   C111      1.0  0.3108000000000001  0.15923999999999996  0.02964  1.0000
  C   C112      1.0  0.41635999999999995  0.052839999999999984  0.02092  1.0000
  C   C113      1.0  0.12599000000000019  0.5087699999999997  0.19905999999999996  1.0000
  C   C114      1.0  0.07035  0.51023  0.27867  1.0000
  C   C115      1.0  0.09342999999999996  0.52203  0.29155  1.0000
  C   C116      1.0  0.0765700000000001  0.5224699999999998  0.336  1.0000
  C   C117      1.0  0.03662999999999998  0.51164  0.36842  1.0000
  C   C118      1.0  0.013079999999999993  0.50094  0.3551  1.0000
  C   C119      1.0  0.02963999999999998  0.50031  0.31079  1.0000
  C   C120      1.0  0.021010000000000018  0.50985  0.41637  1.0000
  C   C121      1.0  0.5087700000000001  0.12609  0.16594  1.0000
  C   C122      1.0  0.5102400000000001  0.07039999999999995  0.14059  1.0000
  C   C123      1.0  0.52202  0.09348999999999998  0.09289  1.0000
  C   C124      1.0  0.5224100000000002  0.07658999999999996  0.06492  1.0000
  C   C125      1.0  0.51157  0.03665  0.0833  1.0000
  C   C126      1.0  0.50089  0.013100000000000002  0.13083  1.0000
  C   C127      1.0  0.50032  0.029700000000000018  0.15913999999999995  1.0000
  C   C128      1.0  0.5098  0.02097  0.05280999999999999  1.0000
  C   C129      1.0  0.12606999999999996  0.16598  0.50877  1.0000
  C   C130      1.0  0.07040999999999997  0.1406  0.51024  1.0000
  C   C131      1.0  0.0935  0.09289000000000001  0.52202  1.0000
  C   C132      1.0  0.07659999999999999  0.06493  0.52241  1.0000
  C   C133      1.0  0.03665999999999999  0.08331  0.51156  1.0000
  C   C134      1.0  0.013110000000000035  0.13084  0.50089  1.0000
  C   C135      1.0  0.029710000000000028  0.1591499999999999  0.50032  1.0000
  C   C136      1.0  0.02097000000000005  0.052809999999999996  0.5098  1.0000
  C   C137      1.0  0.50876  0.19905999999999993  0.12599  1.0000
  C   C138      1.0  0.51022  0.27866  0.07034  1.0000
  C   C139      1.0  0.52202  0.29155  0.09342  1.0000
  C   C140      1.0  0.52246  0.33599  0.07656  1.0000
  C   C141      1.0  0.51163  0.36841  0.03663  1.0000
  C   C142      1.0  0.50093  0.35508  0.01309  1.0000
  C   C143      1.0  0.50031  0.3107799999999999  0.02964  1.0000
  C   C144      1.0  0.50986  0.41636  0.02101  1.0000
  C   C145      1.0  0.16609999999999991  0.12608  0.19908  1.0000
  C   C146      1.0  0.14076  0.07034  0.27866  1.0000
  C   C147      1.0  0.09301999999999998  0.09338999999999996  0.29155  1.0000
  C   C148      1.0  0.06504000000000003  0.07652000000000002  0.3359799999999999  1.0000
  C   C149      1.0  0.08337000000000004  0.03659000000000004  0.3683999999999999  1.0000
  C   C150      1.0  0.13092000000000006  0.01306000000000003  0.3550799999999999  1.0000
  C   C151      1.0  0.15926  0.029639999999999993  0.31078  1.0000
  C   C152      1.0  0.05284000000000004  0.020929999999999966  0.41633999999999993  1.0000
  C   C153      1.0  0.19899000000000025  0.5087499999999998  0.16605999999999996  1.0000
  C   C154      1.0  0.27860000000000007  0.51023  0.1406  1.0000
  C   C155      1.0  0.29151  0.52204  0.09286  1.0000
  C   C156      1.0  0.3359700000000001  0.52248  0.06495  1.0000
  C   C157      1.0  0.36837  0.51166  0.08335  1.0000
  C   C158      1.0  0.35500000000000004  0.5009499999999998  0.1309  1.0000
  C   C159      1.0  0.31068000000000007  0.50033  0.15916  1.0000
  C   C160      1.0  0.41633  0.50991  0.05285  1.0000
  C   C161      1.0  0.19904999999999995  0.12600999999999998  0.50876  1.0000
  C   C162      1.0  0.27866  0.07037000000000002  0.51022  1.0000
  C   C163      1.0  0.29154  0.09345000000000002  0.52203  1.0000
  C   C164      1.0  0.33599000000000007  0.07658000000000001  0.52246  1.0000
  C   C165      1.0  0.3684200000000001  0.03663  0.51163  1.0000
  C   C166      1.0  0.3550900000000001  0.013079999999999977  0.50093  1.0000
  C   C167      1.0  0.31079  0.02965000000000001  0.50031  1.0000
  C   C168      1.0  0.4163700000000001  0.020999999999999994  0.50985  1.0000
  C   C169      1.0  0.16596000000000014  0.5087699999999997  0.12609  1.0000
  C   C170      1.0  0.14058999999999996  0.51025  0.07042  1.0000
  C   C171      1.0  0.09288  0.52202  0.09352  1.0000
  C   C172      1.0  0.06492000000000009  0.5224099999999998  0.07661  1.0000
  C   C173      1.0  0.08330999999999998  0.51157  0.03665  1.0000
  C   C174      1.0  0.13085000000000002  0.50089  0.013099999999999999  1.0000
  C   C175      1.0  0.15915  0.50032  0.02971  1.0000
  C   C176      1.0  0.05281999999999998  0.50979  0.02097  1.0000
  C   C177      1.0  0.50875  0.16606000000000004  0.19896999999999998  1.0000
  C   C178      1.0  0.51023  0.14059  0.27858  1.0000
  C   C179      1.0  0.52204  0.09284999999999999  0.29149  1.0000
  C   C180      1.0  0.52248  0.06495  0.33595  1.0000
  C   C181      1.0  0.51166  0.08336  0.36835  1.0000
  C   C182      1.0  0.5009499999999999  0.13090999999999997  0.35498  1.0000
  C   C183      1.0  0.50033  0.1591499999999999  0.31067  1.0000
  C   C184      1.0  0.5099  0.05287000000000001  0.41632  1.0000
  C   C185      1.0  0.12610000000000002  0.19905999999999993  0.1661  1.0000
  C   C186      1.0  0.07037  0.27865  0.14073  1.0000
  C   C187      1.0  0.09342000000000004  0.2915299999999999  0.093  1.0000
  C   C188      1.0  0.07652000000000005  0.3359699999999999  0.06504  1.0000
  C   C189      1.0  0.03657999999999999  0.36841  0.08337999999999998  1.0000
  C   C190      1.0  0.013059999999999966  0.35508  0.13092  1.0000
  C   C191      1.0  0.029660000000000082  0.3107799999999999  0.15924  1.0000
  C   C192      1.0  0.020910000000000054  0.4163499999999999  0.05285999999999999  1.0000
  N   N1        1.0  0.8737  0.79605  0.49127  1.0000
  N   N2        1.0  0.82857  0.76522  0.49156  1.0000
  N   N3        1.0  0.7959300000000004  0.8736799999999997  0.8390999999999998  1.0000
  N   N4        1.0  0.7651700000000003  0.8285  0.9147899999999999  1.0000
  N   N5        1.0  0.83918  0.49126999999999993  0.79597  1.0000
  N   N6        1.0  0.9148800000000004  0.4915400000000001  0.7651799999999997  1.0000
  N   N7        1.0  0.49125  0.8391300000000002  0.8737999999999998  1.0000
  N   N8        1.0  0.4915199999999999  0.9148  0.8286099999999997  1.0000
  N   N9        1.0  0.8391300000000003  0.8737799999999996  0.49125  1.0000
  N   N10       1.0  0.9148200000000001  0.8285899999999998  0.4915099999999999  1.0000
  N   N11       1.0  0.4912700000000003  0.7959799999999997  0.83918  1.0000
  N   N12       1.0  0.49154000000000025  0.7651999999999999  0.91487  1.0000
  N   N13       1.0  0.8736499999999999  0.83912  0.79594  1.0000
  N   N14       1.0  0.8284600000000001  0.9148100000000001  0.7651799999999997  1.0000
  N   N15       1.0  0.7960600000000002  0.49128000000000005  0.8736799999999999  1.0000
  N   N16       1.0  0.7652200000000001  0.49156  0.82856  1.0000
  N   N17       1.0  0.79598  0.83917  0.49127  1.0000
  N   N18       1.0  0.76519  0.91487  0.49153  1.0000
  N   N19       1.0  0.8737900000000001  0.49124999999999996  0.8391199999999998  1.0000
  N   N20       1.0  0.8286000000000001  0.4915199999999999  0.9147999999999998  1.0000
  N   N21       1.0  0.49128000000000005  0.87368  0.79608  1.0000
  N   N22       1.0  0.49156000000000005  0.8285799999999999  0.76523  1.0000
  N   N23       1.0  0.8390900000000002  0.7959799999999996  0.87364  1.0000
  N   N24       1.0  0.9147899999999999  0.7651900000000003  0.8284799999999998  1.0000
  N   N25       1.0  0.12629999999999997  0.20396  0.50872  1.0000
  N   N26       1.0  0.17143000000000003  0.2347799999999999  0.50844  1.0000
  N   N27       1.0  0.20407000000000003  0.12632  0.1609  1.0000
  N   N28       1.0  0.23482999999999998  0.1715  0.08521  1.0000
  N   N29       1.0  0.16082  0.50874  0.20402999999999993  1.0000
  N   N30       1.0  0.08512  0.50847  0.23482  1.0000
  N   N31       1.0  0.50875  0.16087999999999997  0.12619  1.0000
  N   N32       1.0  0.50848  0.08519999999999994  0.17139  1.0000
  N   N33       1.0  0.16087000000000004  0.12622  0.50875  1.0000
  N   N34       1.0  0.08519000000000002  0.17142000000000002  0.50849  1.0000
  N   N35       1.0  0.50873  0.20403  0.16081  1.0000
  N   N36       1.0  0.50846  0.23480999999999996  0.08511999999999997  1.0000
  N   N37       1.0  0.12635  0.16088999999999995  0.20406  1.0000
  N   N38       1.0  0.17154000000000003  0.08519000000000002  0.23480999999999994  1.0000
  N   N39       1.0  0.2039400000000001  0.5087199999999997  0.12631  1.0000
  N   N40       1.0  0.23478000000000004  0.50844  0.17143  1.0000
  N   N41       1.0  0.20402000000000003  0.16082999999999997  0.50873  1.0000
  N   N42       1.0  0.23480999999999996  0.08514  0.50846  1.0000
  N   N43       1.0  0.12620999999999996  0.50875  0.16088  1.0000
  N   N44       1.0  0.17139999999999997  0.50848  0.0852  1.0000
  N   N45       1.0  0.50872  0.12632  0.20392  1.0000
  N   N46       1.0  0.5084400000000002  0.17142000000000002  0.23477  1.0000
  N   N47       1.0  0.16091  0.20402  0.12636  1.0000
  N   N48       1.0  0.08521000000000002  0.23482  0.17151999999999998  1.0000
  O   O1        1.0  0.98985  0.57425  0.48156  1.0000
  O   O2        1.0  0.9287000000000001  0.55506  0.50082  1.0000
  O   O3        1.0  0.5742200000000002  0.98982  0.9542899999999997  1.0000
  O   O4        1.0  0.5550400000000001  0.9287599999999998  0.015479999999999997  1.0000
  O   O5        1.0  0.9541900000000002  0.4817199999999999  0.5741799999999999  1.0000
  O   O6        1.0  0.015380000000000128  0.50079  0.5550399999999998  1.0000
  O   O7        1.0  0.4817600000000001  0.9542599999999999  0.98985  1.0000
  O   O8        1.0  0.5008099999999999  0.015440000000000011  0.92876  1.0000
  O   O9        1.0  0.9542500000000002  0.98986  0.4817599999999999  1.0000
  O   O10       1.0  0.015440000000000011  0.9287599999999999  0.5008  1.0000
  O   O11       1.0  0.48171000000000014  0.5741900000000001  0.9541899999999998  1.0000
  O   O12       1.0  0.50077  0.5550699999999997  0.015379999999999996  1.0000
  O   O13       1.0  0.98983  0.95428  0.57422  1.0000
  O   O14       1.0  0.92875  0.015470000000000003  0.55507  1.0000
  O   O15       1.0  0.5742499999999999  0.48155999999999993  0.98984  1.0000
  O   O16       1.0  0.5550600000000002  0.50081  0.9286899999999999  1.0000
  O   O17       1.0  0.5741800000000001  0.9542  0.48172  1.0000
  O   O18       1.0  0.5550400000000001  0.01540999999999999  0.50078  1.0000
  O   O19       1.0  0.98985  0.48177  0.95424  1.0000
  O   O20       1.0  0.92875  0.50081  0.015439999999999997  1.0000
  O   O21       1.0  0.48156  0.98982  0.57426  1.0000
  O   O22       1.0  0.50081  0.9286799999999998  0.55506  1.0000
  O   O23       1.0  0.95429  0.5742400000000001  0.9897999999999998  1.0000
  O   O24       1.0  0.015499999999999946  0.5550600000000001  0.92873  1.0000
  O   O25       1.0  0.010150000000000098  0.4257499999999998  0.51844  1.0000
  O   O26       1.0  0.07130000000000011  0.4449499999999998  0.4991699999999999  1.0000
  O   O27       1.0  0.42578  0.01018  0.04571  1.0000
  O   O28       1.0  0.4449599999999999  0.07124000000000001  0.98452  1.0000
  O   O29       1.0  0.04581  0.51829  0.42582  1.0000
  O   O30       1.0  0.9846200000000005  0.49921000000000004  0.4449599999999999  1.0000
  O   O31       1.0  0.51824  0.04575  0.01015  1.0000
  O   O32       1.0  0.49919000000000013  0.9845699999999997  0.07124  1.0000
  O   O33       1.0  0.04575  0.010149999999999982  0.51824  1.0000
  O   O34       1.0  0.9845600000000003  0.07125  0.49919  1.0000
  O   O35       1.0  0.51829  0.42581999999999987  0.04581  1.0000
  O   O36       1.0  0.49923  0.44494000000000006  0.98462  1.0000
  O   O37       1.0  0.010170000000000002  0.04571999999999999  0.42578  1.0000
  O   O38       1.0  0.07125000000000002  0.98453  0.44492  1.0000
  O   O39       1.0  0.4257500000000002  0.5184499999999997  0.010159999999999997  1.0000
  O   O40       1.0  0.44494000000000006  0.49919  0.07131  1.0000
  O   O41       1.0  0.42582  0.04581  0.51827  1.0000
  O   O42       1.0  0.4449599999999999  0.9846000000000001  0.4992199999999999  1.0000
  O   O43       1.0  0.010149999999999998  0.51823  0.04576  1.0000
  O   O44       1.0  0.07125000000000006  0.49918999999999997  0.9845499999999998  1.0000
  O   O45       1.0  0.51844  0.010180000000000003  0.42573999999999995  1.0000
  O   O46       1.0  0.49919  0.07132999999999999  0.44494  1.0000
  O   O47       1.0  0.04571000000000005  0.42576999999999987  0.010199999999999997  1.0000
  O   O48       1.0  0.9845  0.4449499999999999  0.07127  1.0000
