data_image0
_chemical_formula_structural       Zn12H128C216N48O48
_chemical_formula_sum              "Zn12 H128 C216 N48 O48"
_cell_length_a       11.65197
_cell_length_b       20.41556
_cell_length_c       32.85341999999999
_cell_angle_alpha    87.07555000000002
_cell_angle_beta     79.73332
_cell_angle_gamma    73.31745

_symmetry_space_group_name_H-M    'P 1'
_symmetry_Int_Tables_number       1

loop_
  _symmetry_equiv_pos_as_xyz
  'x,y,z'

loop_
  _atom_site_type_symbol
  _atom_site_label
  _atom_site_symmetry_multiplicity
  _atom_site_fract_x
  _atom_site_fract_y
  _atom_site_fract_z
  _atom_site_occupancy
  Zn  Zn1       1.0  0.39  0.08026000000000003  0.06265  1.0000
  Zn  Zn2       1.0  0.54845  0.42071000000000003  0.0625  1.0000
  Zn  Zn3       1.0  0.5297999999999998  0.07942  0.4376600000000001  1.0000
  Zn  Zn4       1.0  0.03224  0.42058  0.43743  1.0000
  Zn  Zn5       1.0  0.61001  0.91973  0.93736  1.0000
  Zn  Zn6       1.0  0.4515499999999998  0.5792800000000001  0.93751  1.0000
  Zn  Zn7       1.0  0.4701999999999999  0.9205800000000001  0.56235  1.0000
  Zn  Zn8       1.0  0.96776  0.57941  0.56258  1.0000
  Zn  Zn9       1.0  0.8482299999999999  0.74966  0.30774  1.0000
  Zn  Zn10      1.0  0.4038299999999998  0.75078  0.19242000000000006  1.0000
  Zn  Zn11      1.0  0.15176999999999985  0.25033  0.69226  1.0000
  Zn  Zn12      1.0  0.5961700000000001  0.24921000000000001  0.80758  1.0000
  H   H1        1.0  0.24583000000000002  0.69335  0.48465000000000014  1.0000
  H   H2        1.0  0.20265000000000002  0.76987  0.36173  1.0000
  H   H3        1.0  0.962  0.66082  0.42844  1.0000
  H   H4        1.0  0.65245  0.88685  0.29229  1.0000
  H   H5        1.0  0.66918  0.9643600000000001  0.22004  1.0000
  H   H6        1.0  0.9949800000000001  0.80259  0.21747  1.0000
  H   H7        1.0  0.7183099999999999  0.9217600000000001  0.14729  1.0000
  H   H8        1.0  0.9829599999999997  0.9928800000000001  0.0617  1.0000
  H   H9        1.0  0.06755999999999993  0.9077900000000001  0.17951  1.0000
  H   H10       1.0  0.2641099999999999  0.86998  0.13591  1.0000
  H   H11       1.0  0.44578999999999996  0.9320000000000003  0.1077  1.0000
  H   H12       1.0  0.11830000000000002  0.05893  0.07663  1.0000
  H   H13       1.0  0.8616  0.96929  0.0144  1.0000
  H   H14       1.0  0.58589  0.01592  0.12159  1.0000
  H   H15       1.0  0.63554  0.02969  0.99195  1.0000
  H   H16       1.0  0.3813299999999999  0.14552000000000004  0.22132  1.0000
  H   H17       1.0  0.26908  0.8079000000000001  0.48416  1.0000
  H   H18       1.0  0.43644999999999995  0.7292900000000002  0.36166  1.0000
  H   H19       1.0  0.61041  0.8389  0.42781  1.0000
  H   H20       1.0  0.05685999999999998  0.61202  0.2922  1.0000
  H   H21       1.0  0.1111899999999999  0.53507  0.21978  1.0000
  H   H22       1.0  0.7892699999999999  0.6980700000000001  0.21776000000000006  1.0000
  H   H23       1.0  0.13507000000000002  0.57811  0.14726  1.0000
  H   H24       1.0  0.9554799999999999  0.50732  0.06191000000000001  1.0000
  H   H25       1.0  0.7530100000000002  0.5932  0.17966  1.0000
  H   H26       1.0  0.59984  0.63087  0.13648  1.0000
  H   H27       1.0  0.4464399999999998  0.56946  0.10778000000000003  1.0000
  H   H28       1.0  0.80504  0.44258  0.07629  1.0000
  H   H29       1.0  0.12419  0.53033  0.01448  1.0000
  H   H30       1.0  0.29266  0.48438  0.1216  1.0000
  H   H31       1.0  0.37280999999999986  0.46969000000000005  0.9919600000000001  1.0000
  H   H32       1.0  0.39719  0.35539  0.22233  1.0000
  H   H33       1.0  0.06144999999999993  0.6932100000000001  0.01587  1.0000
  H   H34       1.0  0.028419999999999977  0.76992  0.13868  1.0000
  H   H35       1.0  0.3784899999999998  0.6609800000000002  0.07175  1.0000
  H   H36       1.0  0.46164000000000005  0.88775  0.20775  1.0000
  H   H37       1.0  0.3672299999999999  0.96464  0.28028  1.0000
  H   H38       1.0  0.20408  0.80302  0.2822500000000001  1.0000
  H   H39       1.0  0.3603599999999997  0.92217  0.3527800000000001  1.0000
  H   H40       1.0  0.02349999999999987  0.9929400000000002  0.43809  1.0000
  H   H41       1.0  0.026039999999999952  0.9073100000000001  0.32028  1.0000
  H   H42       1.0  0.8676299999999997  0.8694100000000001  0.3633  1.0000
  H   H43       1.0  0.62346  0.93027  0.39218  1.0000
  H   H44       1.0  0.82222  0.05732  0.42387  1.0000
  H   H45       1.0  0.16725999999999985  0.9700100000000001  0.48539  1.0000
  H   H46       1.0  0.39787  0.0162  0.37858  1.0000
  H   H47       1.0  0.33172999999999997  0.030650000000000004  0.50826  1.0000
  H   H48       1.0  0.4728800000000001  0.14475  0.27837  1.0000
  H   H49       1.0  0.92571  0.80519  0.015560000000000001  1.0000
  H   H50       1.0  0.8330200000000002  0.73081  0.13889000000000007  1.0000
  H   H51       1.0  0.55199  0.8397700000000001  0.07114  1.0000
  H   H52       1.0  0.3310300000000001  0.61359  0.20763  1.0000
  H   H53       1.0  0.35308999999999996  0.53599  0.27984  1.0000
  H   H54       1.0  0.5133099999999997  0.6978900000000002  0.28249000000000013  1.0000
  H   H55       1.0  0.2868799999999999  0.57835  0.35266  1.0000
  H   H56       1.0  0.5380700000000002  0.50715  0.43785  1.0000
  H   H57       1.0  0.6540599999999996  0.5927800000000001  0.32001  1.0000
  H   H58       1.0  0.7697399999999999  0.6302400000000001  0.3630000000000001  1.0000
  H   H59       1.0  0.9842799999999999  0.5696600000000002  0.39213  1.0000
  H   H60       1.0  0.75365  0.44262  0.42389  1.0000
  H   H61       1.0  0.34736000000000006  0.53056  0.48525  1.0000
  H   H62       1.0  0.22233000000000003  0.48489000000000004  0.37872  1.0000
  H   H63       1.0  0.15961999999999996  0.47031000000000006  0.50842  1.0000
  H   H64       1.0  0.24788999999999994  0.35525  0.27868  1.0000
  H   H65       1.0  0.75418  0.30665  0.51535  1.0000
  H   H66       1.0  0.7973500000000001  0.23012  0.63828  1.0000
  H   H67       1.0  0.03799999999999995  0.33917  0.57156  1.0000
  H   H68       1.0  0.34756  0.11314  0.70771  1.0000
  H   H69       1.0  0.3308199999999998  0.03563000000000001  0.7799700000000003  1.0000
  H   H70       1.0  0.005029999999999886  0.19741000000000006  0.7825400000000002  1.0000
  H   H71       1.0  0.28169000000000005  0.07823  0.85271  1.0000
  H   H72       1.0  0.017039999999999975  0.00711  0.93831  1.0000
  H   H73       1.0  0.93244  0.09221000000000001  0.8205  1.0000
  H   H74       1.0  0.7358899999999999  0.13002  0.8641  1.0000
  H   H75       1.0  0.55421  0.068  0.8923  1.0000
  H   H76       1.0  0.8816999999999999  0.94107  0.92337  1.0000
  H   H77       1.0  0.13839999999999994  0.030710000000000008  0.98561  1.0000
  H   H78       1.0  0.41411  0.98407  0.87841  1.0000
  H   H79       1.0  0.3644699999999998  0.9703000000000002  0.00806  1.0000
  H   H80       1.0  0.6186699999999999  0.85447  0.7786800000000003  1.0000
  H   H81       1.0  0.73093  0.1921  0.51584  1.0000
  H   H82       1.0  0.5635499999999999  0.27070000000000005  0.63834  1.0000
  H   H83       1.0  0.38959  0.16109  0.57219  1.0000
  H   H84       1.0  0.9431400000000001  0.38797  0.7078  1.0000
  H   H85       1.0  0.8888099999999998  0.46492  0.78022  1.0000
  H   H86       1.0  0.21072999999999986  0.30192  0.78224  1.0000
  H   H87       1.0  0.8649299999999999  0.42189000000000004  0.85274  1.0000
  H   H88       1.0  0.04451999999999989  0.4926800000000001  0.9380900000000002  1.0000
  H   H89       1.0  0.2469899999999999  0.40679  0.82034  1.0000
  H   H90       1.0  0.4001699999999998  0.36912  0.86352  1.0000
  H   H91       1.0  0.5535600000000002  0.43054  0.89222  1.0000
  H   H92       1.0  0.19496000000000008  0.55741  0.92371  1.0000
  H   H93       1.0  0.8758099999999998  0.46966  0.98553  1.0000
  H   H94       1.0  0.7073400000000002  0.51561  0.8784  1.0000
  H   H95       1.0  0.62719  0.5303100000000001  0.00804  1.0000
  H   H96       1.0  0.60281  0.64461  0.7776700000000002  1.0000
  H   H97       1.0  0.9385599999999997  0.30678000000000005  0.9841300000000002  1.0000
  H   H98       1.0  0.9715800000000001  0.23008  0.86132  1.0000
  H   H99       1.0  0.62151  0.33901000000000003  0.92825  1.0000
  H   H100      1.0  0.53836  0.11224  0.79225  1.0000
  H   H101      1.0  0.63277  0.03535  0.71972  1.0000
  H   H102      1.0  0.7959199999999998  0.19697  0.71775  1.0000
  H   H103      1.0  0.63964  0.07782  0.64723  1.0000
  H   H104      1.0  0.9765  0.007050000000000001  0.56192  1.0000
  H   H105      1.0  0.97396  0.09268  0.67973  1.0000
  H   H106      1.0  0.13237  0.13058000000000003  0.6367  1.0000
  H   H107      1.0  0.37653999999999993  0.06973000000000001  0.60782  1.0000
  H   H108      1.0  0.17778000000000002  0.94268  0.57613  1.0000
  H   H109      1.0  0.8327399999999999  0.02999  0.51461  1.0000
  H   H110      1.0  0.6021300000000002  0.9838  0.62143  1.0000
  H   H111      1.0  0.66827  0.96935  0.49174  1.0000
  H   H112      1.0  0.5271200000000001  0.85525  0.72163  1.0000
  H   H113      1.0  0.0743  0.19481  0.98445  1.0000
  H   H114      1.0  0.16698  0.26919  0.86111  1.0000
  H   H115      1.0  0.44801  0.16023000000000004  0.92886  1.0000
  H   H116      1.0  0.6689699999999998  0.38641  0.7923700000000002  1.0000
  H   H117      1.0  0.64691  0.46401000000000003  0.72017  1.0000
  H   H118      1.0  0.48668999999999996  0.30210000000000004  0.71751  1.0000
  H   H119      1.0  0.7131299999999999  0.42165  0.64734  1.0000
  H   H120      1.0  0.46193  0.49284  0.56215  1.0000
  H   H121      1.0  0.34593999999999997  0.40722000000000014  0.67999  1.0000
  H   H122      1.0  0.23026000000000002  0.36975  0.637  1.0000
  H   H123      1.0  0.015719999999999994  0.43033  0.60787  1.0000
  H   H124      1.0  0.24635999999999994  0.55738  0.57612  1.0000
  H   H125      1.0  0.6526499999999998  0.4694400000000001  0.51475  1.0000
  H   H126      1.0  0.7776699999999999  0.51511  0.62128  1.0000
  H   H127      1.0  0.8403799999999999  0.52968  0.49159000000000014  1.0000
  H   H128      1.0  0.75211  0.64474  0.72132  1.0000
  C   C1        1.0  0.06670000000000004  0.63712  0.49975  1.0000
  C   C2        1.0  0.10220000000000001  0.67248  0.46025  1.0000
  C   C3        1.0  0.20018999999999998  0.6998800000000001  0.45796  1.0000
  C   C4        1.0  0.23851999999999998  0.73476  0.42268  1.0000
  C   C5        1.0  0.17728  0.74144  0.38906  1.0000
  C   C6        1.0  0.07872000000000003  0.71438  0.39077  1.0000
  C   C7        1.0  0.040829999999999964  0.67991  0.42651  1.0000
  C   C8        1.0  0.010310000000000019  0.72681  0.35536  1.0000
  C   C9        1.0  0.7245599999999999  0.88056  0.26574  1.0000
  C   C10       1.0  0.73118  0.9188900000000001  0.23045  1.0000
  C   C11       1.0  0.9040699999999999  0.8349100000000002  0.22891  1.0000
  C   C12       1.0  0.8881399999999999  0.91368  0.16748  1.0000
  C   C13       1.0  0.80633  0.9317300000000001  0.13982  1.0000
  C   C14       1.0  0.84021  0.96148  0.10207  1.0000
  C   C15       1.0  0.95666  0.9699200000000001  0.09113  1.0000
  C   C16       1.0  0.038319999999999965  0.9496  0.11896  1.0000
  C   C17       1.0  0.004999999999999981  0.9215300000000001  0.15756  1.0000
  C   C18       1.0  0.26174  0.91796  0.12003  1.0000
  C   C19       1.0  0.3504899999999999  0.9490700000000001  0.10542000000000003  1.0000
  C   C20       1.0  0.1829699999999999  0.01564  0.08800000000000002  1.0000
  C   C21       1.0  0.77291  0.9899900000000001  0.0328  1.0000
  C   C22       1.0  0.63037  0.00874  0.08949000000000003  1.0000
  C   C23       1.0  0.66051  0.0177  0.022150000000000006  1.0000
  C   C24       1.0  0.40124999999999994  0.13468  0.13731  1.0000
  C   C25       1.0  0.40906999999999993  0.19305000000000005  0.16173  1.0000
  C   C26       1.0  0.39351  0.19178  0.20523  1.0000
  C   C27       1.0  0.4328399999999999  0.8642100000000001  0.49891  1.0000
  C   C28       1.0  0.4377699999999999  0.8281900000000001  0.4595300000000001  1.0000
  C   C29       1.0  0.34176999999999985  0.8009000000000001  0.45750000000000013  1.0000
  C   C30       1.0  0.3390999999999999  0.7652900000000002  0.42251  1.0000
  C   C31       1.0  0.43425999999999987  0.75804  0.3888700000000001  1.0000
  C   C32       1.0  0.5315  0.78493  0.3902600000000001  1.0000
  C   C33       1.0  0.5334599999999998  0.8199000000000002  0.4258400000000001  1.0000
  C   C34       1.0  0.63502  0.77194  0.35453  1.0000
  C   C35       1.0  0.011269999999999964  0.61877  0.26569  1.0000
  C   C36       1.0  0.03924000000000001  0.5806800000000001  0.23033  1.0000
  C   C37       1.0  0.86855  0.66532  0.22908  1.0000
  C   C38       1.0  0.9447899999999999  0.5867  0.16755000000000006  1.0000
  C   C39       1.0  0.05428000000000004  0.56841  0.13985  1.0000
  C   C40       1.0  0.05796999999999993  0.5386800000000002  0.10215  1.0000
  C   C41       1.0  0.9523399999999996  0.53045  0.09128  1.0000
  C   C42       1.0  0.8427999999999998  0.5511700000000002  0.11911  1.0000
  C   C43       1.0  0.83758  0.57923  0.15769  1.0000
  C   C44       1.0  0.6181899999999999  0.58314  0.12031  1.0000
  C   C45       1.0  0.5440499999999997  0.5524100000000001  0.10541000000000003  1.0000
  C   C46       1.0  0.7290299999999998  0.48588  0.08775  1.0000
  C   C47       1.0  0.19452999999999993  0.5098300000000001  0.03285  1.0000
  C   C48       1.0  0.28037  0.49134000000000005  0.08949000000000003  1.0000
  C   C49       1.0  0.31764  0.48212  0.02216  1.0000
  C   C50       1.0  0.46199999999999997  0.36823000000000006  0.13877  1.0000
  C   C51       1.0  0.42993  0.30914  0.1624  1.0000
  C   C52       1.0  0.40113  0.30949  0.20586000000000004  1.0000
  C   C53       1.0  0.29638  0.63743  0.0006100000000000002  1.0000
  C   C54       1.0  0.22613999999999995  0.6727500000000001  0.04016  1.0000
  C   C55       1.0  0.10059000000000004  0.69984  0.042540000000000015  1.0000
  C   C56       1.0  0.02729999999999998  0.7345  0.07788  1.0000
  C   C57       1.0  0.08223999999999984  0.7412800000000003  0.1114  1.0000
  C   C58       1.0  0.2082  0.71436  0.10966000000000002  1.0000
  C   C59       1.0  0.28042999999999996  0.6800500000000002  0.07383000000000003  1.0000
  C   C60       1.0  0.26451999999999976  0.72689  0.14506  1.0000
  C   C61       1.0  0.3960199999999999  0.88128  0.23429  1.0000
  C   C62       1.0  0.3508899999999999  0.9193100000000001  0.2697  1.0000
  C   C63       1.0  0.2624699999999998  0.83539  0.27094  1.0000
  C   C64       1.0  0.19897999999999996  0.91374  0.33249  1.0000
  C   C65       1.0  0.26231  0.93197  0.36017  1.0000
  C   C66       1.0  0.19806  0.96173  0.39785  1.0000
  C   C67       1.0  0.07319  0.9698700000000001  0.40871000000000013  1.0000
  C   C68       1.0  0.012410000000000065  0.94915  0.3809  1.0000
  C   C69       1.0  0.07432000000000005  0.9212300000000001  0.34231  1.0000
  C   C70       1.0  0.8213399999999997  0.9169800000000001  0.37961  1.0000
  C   C71       1.0  0.70129  0.94755  0.39456000000000013  1.0000
  C   C72       1.0  0.8013  0.014110000000000001  0.4123300000000001  1.0000
  C   C73       1.0  0.23535999999999993  0.99071  0.46714  1.0000
  C   C74       1.0  0.3599499999999999  0.00923  0.4106400000000001  1.0000
  C   C75       1.0  0.31950999999999996  0.01851  0.4779800000000001  1.0000
  C   C76       1.0  0.4670500000000001  0.13348000000000002  0.3622  1.0000
  C   C77       1.0  0.4002299999999999  0.19206  0.33819  1.0000
  C   C78       1.0  0.4153499999999999  0.19103  0.29473  1.0000
  C   C79       1.0  0.7044499999999999  0.8630900000000001  0.0004600000000000001  1.0000
  C   C80       1.0  0.73597  0.82745  0.03987  1.0000
  C   C81       1.0  0.85901  0.79953  0.04225  1.0000
  C   C82       1.0  0.8961  0.76495  0.07774000000000003  1.0000
  C   C83       1.0  0.8072400000000001  0.75875  0.11132  1.0000
  C   C84       1.0  0.68331  0.78588  0.10937  1.0000
  C   C85       1.0  0.6477  0.82028  0.07349  1.0000
  C   C86       1.0  0.59105  0.7739200000000002  0.14473  1.0000
  C   C87       1.0  0.36993000000000004  0.61986  0.23421  1.0000
  C   C88       1.0  0.37974999999999987  0.58148  0.26947  1.0000
  C   C89       1.0  0.46653999999999995  0.6655100000000002  0.27103  1.0000
  C   C90       1.0  0.46872  0.58658  0.3323  1.0000
  C   C91       1.0  0.37753999999999993  0.56841  0.3600200000000001  1.0000
  C   C92       1.0  0.4039  0.53863  0.39769  1.0000
  C   C93       1.0  0.51799  0.53024  0.4084700000000001  1.0000
  C   C94       1.0  0.6068399999999998  0.5507600000000001  0.3806100000000001  1.0000
  C   C95       1.0  0.5836799999999999  0.57883  0.34206  1.0000
  C   C96       1.0  0.79932  0.5827400000000001  0.37937  1.0000
  C   C97       1.0  0.9041299999999998  0.5523300000000001  0.39447  1.0000
  C   C98       1.0  0.78616  0.48578  0.41221  1.0000
  C   C99       1.0  0.29713  0.51001  0.46709  1.0000
  C   C100      1.0  0.22836999999999993  0.49172000000000005  0.41076  1.0000
  C   C101      1.0  0.20176999999999987  0.48246000000000006  0.47807  1.0000
  C   C102      1.0  0.17232999999999993  0.36667  0.3622  1.0000
  C   C103      1.0  0.26365999999999995  0.30822000000000005  0.33823  1.0000
  C   C104      1.0  0.29054999999999986  0.30903  0.2947800000000001  1.0000
  C   C105      1.0  0.9333  0.3628800000000001  0.50025  1.0000
  C   C106      1.0  0.8977999999999999  0.32751  0.53976  1.0000
  C   C107      1.0  0.7998099999999999  0.30011  0.54205  1.0000
  C   C108      1.0  0.7614799999999999  0.2652300000000001  0.57732  1.0000
  C   C109      1.0  0.8227199999999999  0.25856  0.61094  1.0000
  C   C110      1.0  0.92128  0.28561  0.60923  1.0000
  C   C111      1.0  0.95917  0.32008  0.5735  1.0000
  C   C112      1.0  0.9896899999999998  0.27318  0.64464  1.0000
  C   C113      1.0  0.2754399999999999  0.11944  0.7342600000000002  1.0000
  C   C114      1.0  0.26881999999999995  0.08111  0.7695500000000002  1.0000
  C   C115      1.0  0.09594  0.16508  0.77109  1.0000
  C   C116      1.0  0.1118599999999999  0.08632  0.8325200000000003  1.0000
  C   C117      1.0  0.19367  0.06826000000000002  0.86018  1.0000
  C   C118      1.0  0.1597899999999999  0.03852  0.8979300000000002  1.0000
  C   C119      1.0  0.04334000000000004  0.03007  0.90887  1.0000
  C   C120      1.0  0.96169  0.05040000000000001  0.88104  1.0000
  C   C121      1.0  0.9949999999999999  0.07846  0.84244  1.0000
  C   C122      1.0  0.73826  0.08203  0.87997  1.0000
  C   C123      1.0  0.64951  0.05093  0.89458  1.0000
  C   C124      1.0  0.8170299999999998  0.98435  0.9120100000000002  1.0000
  C   C125      1.0  0.22708999999999985  0.01  0.9672000000000002  1.0000
  C   C126      1.0  0.3696299999999999  0.9912600000000001  0.91051  1.0000
  C   C127      1.0  0.3394899999999999  0.9822900000000001  0.97785  1.0000
  C   C128      1.0  0.5987499999999998  0.8653100000000001  0.8627  1.0000
  C   C129      1.0  0.59093  0.80695  0.8382800000000002  1.0000
  C   C130      1.0  0.6065  0.80822  0.79477  1.0000
  C   C131      1.0  0.56716  0.13578  0.50109  1.0000
  C   C132      1.0  0.5622299999999998  0.17180000000000006  0.54048  1.0000
  C   C133      1.0  0.65823  0.1991  0.54251  1.0000
  C   C134      1.0  0.6609  0.23471  0.57749  1.0000
  C   C135      1.0  0.56574  0.24195  0.61113  1.0000
  C   C136      1.0  0.46851  0.21507000000000004  0.60975  1.0000
  C   C137      1.0  0.46653999999999995  0.18009  0.57416  1.0000
  C   C138      1.0  0.36498  0.22806000000000004  0.64547  1.0000
  C   C139      1.0  0.9887300000000001  0.38122  0.73432  1.0000
  C   C140      1.0  0.9607600000000001  0.41931000000000007  0.76967  1.0000
  C   C141      1.0  0.13144999999999996  0.33468  0.77093  1.0000
  C   C142      1.0  0.055209999999999905  0.41329000000000005  0.8324500000000002  1.0000
  C   C143      1.0  0.9457199999999998  0.43158  0.8601500000000002  1.0000
  C   C144      1.0  0.94203  0.4613200000000001  0.89785  1.0000
  C   C145      1.0  0.047659999999999945  0.4695500000000001  0.90872  1.0000
  C   C146      1.0  0.15720000000000006  0.44883  0.88089  1.0000
  C   C147      1.0  0.16242000000000006  0.42076  0.84232  1.0000
  C   C148      1.0  0.38181  0.41686000000000006  0.8797  1.0000
  C   C149      1.0  0.45594999999999997  0.44758  0.8946  1.0000
  C   C150      1.0  0.27097  0.5141100000000001  0.91226  1.0000
  C   C151      1.0  0.8054700000000001  0.49016000000000004  0.96715  1.0000
  C   C152      1.0  0.7196300000000001  0.50865  0.91051  1.0000
  C   C153      1.0  0.6823699999999999  0.5178800000000001  0.9778400000000003  1.0000
  C   C154      1.0  0.5379999999999998  0.63176  0.8612300000000003  1.0000
  C   C155      1.0  0.57007  0.69086  0.83761  1.0000
  C   C156      1.0  0.59887  0.6905100000000001  0.79414  1.0000
  C   C157      1.0  0.7036199999999999  0.36257  0.9993899999999999  1.0000
  C   C158      1.0  0.7738599999999998  0.32724  0.95985  1.0000
  C   C159      1.0  0.8994099999999999  0.30016  0.9574600000000002  1.0000
  C   C160      1.0  0.9727000000000001  0.2655  0.92212  1.0000
  C   C161      1.0  0.9177599999999994  0.25872  0.8886  1.0000
  C   C162      1.0  0.7917999999999997  0.28563  0.8903400000000002  1.0000
  C   C163      1.0  0.7195799999999998  0.31995  0.9261700000000003  1.0000
  C   C164      1.0  0.73548  0.27311  0.85495  1.0000
  C   C165      1.0  0.6039899999999999  0.11872000000000003  0.76571  1.0000
  C   C166      1.0  0.64911  0.08068  0.7303  1.0000
  C   C167      1.0  0.7375299999999999  0.1646  0.72907  1.0000
  C   C168      1.0  0.80102  0.08626000000000002  0.66751  1.0000
  C   C169      1.0  0.73769  0.06802  0.63983  1.0000
  C   C170      1.0  0.80194  0.03827  0.6021500000000002  1.0000
  C   C171      1.0  0.9268099999999998  0.030130000000000004  0.59129  1.0000
  C   C172      1.0  0.9875899999999997  0.05084  0.6191  1.0000
  C   C173      1.0  0.9256799999999997  0.07876000000000002  0.65769  1.0000
  C   C174      1.0  0.17867000000000002  0.08301  0.62039  1.0000
  C   C175      1.0  0.29871  0.052450000000000004  0.60545  1.0000
  C   C176      1.0  0.1986999999999999  0.9858900000000002  0.58768  1.0000
  C   C177      1.0  0.76464  0.00929  0.53286  1.0000
  C   C178      1.0  0.6400499999999999  0.99077  0.5893600000000002  1.0000
  C   C179      1.0  0.68049  0.98149  0.52202  1.0000
  C   C180      1.0  0.53295  0.86651  0.6378  1.0000
  C   C181      1.0  0.5997799999999999  0.80793  0.6618100000000002  1.0000
  C   C182      1.0  0.5846499999999997  0.80897  0.7052800000000002  1.0000
  C   C183      1.0  0.29555000000000003  0.1369  0.99954  1.0000
  C   C184      1.0  0.26404000000000005  0.17254  0.96014  1.0000
  C   C185      1.0  0.14099000000000003  0.20046  0.95775  1.0000
  C   C186      1.0  0.1039  0.23505000000000004  0.92226  1.0000
  C   C187      1.0  0.19276000000000001  0.24124000000000007  0.88868  1.0000
  C   C188      1.0  0.31669  0.21412  0.89063  1.0000
  C   C189      1.0  0.3523  0.17971  0.9265100000000002  1.0000
  C   C190      1.0  0.4089499999999999  0.22607000000000002  0.8552700000000002  1.0000
  C   C191      1.0  0.63007  0.38013  0.76579  1.0000
  C   C192      1.0  0.6202499999999995  0.41851  0.73053  1.0000
  C   C193      1.0  0.5334599999999998  0.33448000000000006  0.72897  1.0000
  C   C194      1.0  0.5312800000000001  0.41342000000000007  0.66771  1.0000
  C   C195      1.0  0.6224599999999998  0.43158  0.63999  1.0000
  C   C196      1.0  0.5961000000000001  0.4613600000000001  0.60232  1.0000
  C   C197      1.0  0.4820099999999999  0.46976000000000007  0.59153  1.0000
  C   C198      1.0  0.39316000000000006  0.44924  0.61939  1.0000
  C   C199      1.0  0.41632999999999976  0.42116000000000003  0.6579500000000003  1.0000
  C   C200      1.0  0.20068000000000003  0.41725  0.62063  1.0000
  C   C201      1.0  0.09586999999999996  0.44767  0.60553  1.0000
  C   C202      1.0  0.21383999999999997  0.51422  0.58779  1.0000
  C   C203      1.0  0.70288  0.4899800000000001  0.53291  1.0000
  C   C204      1.0  0.77163  0.5082800000000001  0.58924  1.0000
  C   C205      1.0  0.7982299999999998  0.51753  0.52194  1.0000
  C   C206      1.0  0.8276799999999999  0.63332  0.63781  1.0000
  C   C207      1.0  0.7363399999999998  0.69177  0.66177  1.0000
  C   C208      1.0  0.7094599999999999  0.69096  0.7052200000000002  1.0000
  C   C209      1.0  0.4291799999999999  0.25134000000000006  0.14306  1.0000
  C   C210      1.0  0.38642999999999994  0.25033  0.22737  1.0000
  C   C211      1.0  0.3228599999999999  0.25026  0.3572800000000001  1.0000
  C   C212      1.0  0.36376999999999987  0.2500200000000001  0.27293  1.0000
  C   C213      1.0  0.5708199999999999  0.74866  0.85694  1.0000
  C   C214      1.0  0.6135700000000001  0.74966  0.77264  1.0000
  C   C215      1.0  0.67715  0.74973  0.64273  1.0000
  C   C216      1.0  0.63624  0.74998  0.72707  1.0000
  N   N1        1.0  0.8319400000000001  0.82845  0.26439  1.0000
  N   N2        1.0  0.8456699999999998  0.8897200000000001  0.20726  1.0000
  N   N3        1.0  0.15510999999999966  0.9605400000000002  0.10883000000000002  1.0000
  N   N4        1.0  0.3007600000000001  0.00931  0.08554  1.0000
  N   N5        1.0  0.7531  0.9843100000000001  0.07578  1.0000
  N   N6        1.0  0.57327  0.028930000000000008  0.05762  1.0000
  N   N7        1.0  0.9057099999999998  0.6713  0.26449  1.0000
  N   N8        1.0  0.94791  0.6104  0.20731  1.0000
  N   N9        1.0  0.73603  0.5405800000000001  0.10894000000000002  1.0000
  N   N10       1.0  0.61372  0.49246  0.08516  1.0000
  N   N11       1.0  0.17135999999999996  0.51564  0.07582000000000003  1.0000
  N   N12       1.0  0.3694299999999999  0.47112000000000004  0.05759  1.0000
  N   N13       1.0  0.3410500000000002  0.8292200000000001  0.23548  1.0000
  N   N14       1.0  0.26579999999999976  0.88997  0.2927500000000001  1.0000
  N   N15       1.0  0.88478  0.95955  0.3910700000000001  1.0000
  N   N16       1.0  0.69004  0.007500000000000001  0.4148700000000001  1.0000
  N   N17       1.0  0.26166999999999996  0.98484  0.4242  1.0000
  N   N18       1.0  0.39609  0.02955  0.44263000000000013  1.0000
  N   N19       1.0  0.4233799999999999  0.6720100000000001  0.23561  1.0000
  N   N20       1.0  0.4416499999999999  0.61065  0.29263  1.0000
  N   N21       1.0  0.72431  0.54019  0.39079  1.0000
  N   N22       1.0  0.8947799999999999  0.49247000000000013  0.41485  1.0000
  N   N23       1.0  0.31364999999999993  0.5158  0.42415000000000014  1.0000
  N   N24       1.0  0.16004999999999994  0.47157000000000004  0.44281  1.0000
  N   N25       1.0  0.16805999999999985  0.17154  0.7356200000000003  1.0000
  N   N26       1.0  0.15434  0.11028  0.79274  1.0000
  N   N27       1.0  0.84489  0.03945  0.89117  1.0000
  N   N28       1.0  0.6992399999999999  0.99068  0.91447  1.0000
  N   N29       1.0  0.24689999999999998  0.01569  0.92423  1.0000
  N   N30       1.0  0.4267300000000001  0.97106  0.94239  1.0000
  N   N31       1.0  0.09428999999999997  0.3287  0.73551  1.0000
  N   N32       1.0  0.05208999999999999  0.38960000000000006  0.79269  1.0000
  N   N33       1.0  0.26396999999999987  0.45942000000000005  0.89106  1.0000
  N   N34       1.0  0.38627999999999996  0.50754  0.91484  1.0000
  N   N35       1.0  0.82865  0.48435  0.92418  1.0000
  N   N36       1.0  0.6305699999999995  0.52887  0.9424200000000003  1.0000
  N   N37       1.0  0.65895  0.17077  0.76452  1.0000
  N   N38       1.0  0.7341999999999997  0.11002  0.7072500000000003  1.0000
  N   N39       1.0  0.11521999999999992  0.04045  0.6089300000000002  1.0000
  N   N40       1.0  0.30995999999999985  0.9925000000000003  0.58514  1.0000
  N   N41       1.0  0.7383299999999999  0.01515  0.5758100000000003  1.0000
  N   N42       1.0  0.60392  0.97044  0.55737  1.0000
  N   N43       1.0  0.5766199999999999  0.32799000000000006  0.7643900000000002  1.0000
  N   N44       1.0  0.5583599999999999  0.3893500000000001  0.70737  1.0000
  N   N45       1.0  0.27568999999999994  0.4598000000000001  0.60922  1.0000
  N   N46       1.0  0.10521999999999984  0.50752  0.5851600000000002  1.0000
  N   N47       1.0  0.68635  0.48419000000000006  0.57585  1.0000
  N   N48       1.0  0.83995  0.52843  0.5571900000000002  1.0000
  O   O1        1.0  0.12911000000000006  0.6307  0.52819  1.0000
  O   O2        1.0  0.9734400000000001  0.61392  0.50292  1.0000
  O   O3        1.0  0.93666  0.69118  0.35336  1.0000
  O   O4        1.0  0.022959999999999935  0.7729  0.32867000000000013  1.0000
  O   O5        1.0  0.42313  0.07505000000000002  0.15165  1.0000
  O   O6        1.0  0.37231  0.15306000000000003  0.10118  1.0000
  O   O7        1.0  0.34262000000000004  0.86956  0.52751  1.0000
  O   O8        1.0  0.5212499999999997  0.88893  0.5019300000000002  1.0000
  O   O9        1.0  0.71426  0.8052500000000001  0.3534  1.0000
  O   O10       1.0  0.6452699999999999  0.7279800000000002  0.32704  1.0000
  O   O11       1.0  0.4230599999999999  0.42756  0.15357000000000004  1.0000
  O   O12       1.0  0.5296000000000001  0.3504  0.10295  1.0000
  O   O13       1.0  0.2401099999999998  0.6332900000000001  0.9718000000000002  1.0000
  O   O14       1.0  0.4124399999999999  0.61174  0.9977500000000001  1.0000
  O   O15       1.0  0.37434  0.69166  0.14708  1.0000
  O   O16       1.0  0.20521999999999996  0.7728600000000001  0.17179  1.0000
  O   O17       1.0  0.5032499999999999  0.07409  0.34758  1.0000
  O   O18       1.0  0.47955  0.15159  0.39815  1.0000
  O   O19       1.0  0.7889899999999993  0.8669400000000002  0.97137  1.0000
  O   O20       1.0  0.5909399999999996  0.88893  0.9979800000000001  1.0000
  O   O21       1.0  0.47916  0.80831  0.14577  1.0000
  O   O22       1.0  0.6230499999999999  0.7295500000000001  0.17232  1.0000
  O   O23       1.0  0.14839999999999998  0.42596  0.34742  1.0000
  O   O24       1.0  0.12584999999999993  0.34845  0.39839  1.0000
  O   O25       1.0  0.8708899999999999  0.3693  0.47181  1.0000
  O   O26       1.0  0.026559999999999976  0.38608  0.49709000000000003  1.0000
  O   O27       1.0  0.06334000000000002  0.30881  0.64665  1.0000
  O   O28       1.0  0.9770400000000001  0.22709  0.67133  1.0000
  O   O29       1.0  0.5768699999999997  0.9249400000000002  0.84835  1.0000
  O   O30       1.0  0.6276899999999997  0.84694  0.8988200000000002  1.0000
  O   O31       1.0  0.65739  0.13043  0.4725000000000001  1.0000
  O   O32       1.0  0.47876000000000013  0.11106  0.49806999999999996  1.0000
  O   O33       1.0  0.28573999999999994  0.19475  0.6466  1.0000
  O   O34       1.0  0.3547300000000001  0.27202  0.67297  1.0000
  O   O35       1.0  0.5769399999999999  0.57243  0.84643  1.0000
  O   O36       1.0  0.47039999999999993  0.6496  0.8970500000000002  1.0000
  O   O37       1.0  0.7598899999999998  0.36671000000000004  0.028200000000000006  1.0000
  O   O38       1.0  0.5875599999999999  0.38825  0.00225  1.0000
  O   O39       1.0  0.6256699999999997  0.30834000000000006  0.85293  1.0000
  O   O40       1.0  0.79478  0.22713000000000003  0.82822  1.0000
  O   O41       1.0  0.49675  0.92591  0.65242  1.0000
  O   O42       1.0  0.52046  0.84841  0.60186  1.0000
  O   O43       1.0  0.21102  0.13306  0.028640000000000006  1.0000
  O   O44       1.0  0.40905999999999987  0.11107  0.00202  1.0000
  O   O45       1.0  0.52084  0.19169  0.85424  1.0000
  O   O46       1.0  0.3769499999999999  0.2704500000000001  0.82768  1.0000
  O   O47       1.0  0.8516  0.57403  0.65259  1.0000
  O   O48       1.0  0.8741499999999999  0.6515400000000001  0.6016100000000002  1.0000
