data_image0
_chemical_formula_structural       Zn16H144C198O76
_chemical_formula_sum              "Zn16 H144 C198 O76"
_cell_length_a       27.13071
_cell_length_b       27.13311
_cell_length_c       32.9918
_cell_angle_alpha    65.70554
_cell_angle_beta     65.72416
_cell_angle_gamma    59.87795

_symmetry_space_group_name_H-M    'P 1'
_symmetry_Int_Tables_number       1

loop_
  _symmetry_equiv_pos_as_xyz
  'x,y,z'

loop_
  _atom_site_type_symbol
  _atom_site_label
  _atom_site_symmetry_multiplicity
  _atom_site_fract_x
  _atom_site_fract_y
  _atom_site_fract_z
  _atom_site_occupancy
  Zn  Zn1       1.0  0.90435  0.76876  0.50279  1.0000
  Zn  Zn2       1.0  0.7691199999999999  0.8240000000000001  0.5027  1.0000
  Zn  Zn3       1.0  0.82398  0.90454  0.50251  1.0000
  Zn  Zn4       1.0  0.6758599999999998  0.7306600000000003  0.9977799999999998  1.0000
  Zn  Zn5       1.0  0.5954499999999997  0.67576  0.99785  1.0000
  Zn  Zn6       1.0  0.73102  0.5956400000000002  0.99766  1.0000
  Zn  Zn7       1.0  0.09565  0.23124000000000003  0.4972  1.0000
  Zn  Zn8       1.0  0.23087000000000005  0.17599000000000004  0.4972999999999999  1.0000
  Zn  Zn9       1.0  0.17601999999999998  0.09546000000000004  0.49748999999999993  1.0000
  Zn  Zn10      1.0  0.32414  0.26933  0.00222  1.0000
  Zn  Zn11      1.0  0.4045499999999999  0.32424  0.00214  1.0000
  Zn  Zn12      1.0  0.26898  0.40436  0.00233  1.0000
  Zn  Zn13      1.0  0.8624700000000001  0.86273  0.4120899999999999  1.0000
  Zn  Zn14      1.0  0.6370700000000001  0.63741  0.08846  1.0000
  Zn  Zn15      1.0  0.13753  0.13727  0.5879  1.0000
  Zn  Zn16      1.0  0.3629299999999998  0.36258  0.91153  1.0000
  H   H1        1.0  0.0043900000000000345  0.7679300000000001  0.3177799999999999  1.0000
  H   H2        1.0  0.07732999999999998  0.67911  0.43453  1.0000
  H   H3        1.0  0.09636000000000004  0.7065  0.27085999999999993  1.0000
  H   H4        1.0  0.17143000000000008  0.6184599999999999  0.38734  1.0000
  H   H5        1.0  0.19456  0.6550400000000001  0.23422  1.0000
  H   H6        1.0  0.15484999999999985  0.6083200000000002  0.26731999999999995  1.0000
  H   H7        1.0  0.25940000000000013  0.51221  0.3197099999999999  1.0000
  H   H8        1.0  0.29224000000000006  0.4676000000000001  0.2800399999999999  1.0000
  H   H9        1.0  0.10890000000000004  0.4767700000000001  0.3356599999999999  1.0000
  H   H10       1.0  0.2836  0.40948  0.35126  1.0000
  H   H11       1.0  0.09466  0.3884700000000001  0.3969799999999999  1.0000
  H   H12       1.0  0.26865000000000006  0.32227  0.41156  1.0000
  H   H13       1.0  0.7677399999999999  0.90982  0.31779  1.0000
  H   H14       1.0  0.6792100000000001  0.80904  0.4345199999999999  1.0000
  H   H15       1.0  0.7063999999999998  0.92623  0.27081  1.0000
  H   H16       1.0  0.6186600000000001  0.8229  0.38722  1.0000
  H   H17       1.0  0.6549200000000001  0.91624  0.23414999999999994  1.0000
  H   H18       1.0  0.6080800000000001  0.9696  0.26741  1.0000
  H   H19       1.0  0.51235  0.9087200000000003  0.3195999999999999  1.0000
  H   H20       1.0  0.46763  0.96036  0.27994  1.0000
  H   H21       1.0  0.47631000000000007  0.07881000000000003  0.3359699999999999  1.0000
  H   H22       1.0  0.40982  0.9557000000000002  0.3510799999999999  1.0000
  H   H23       1.0  0.3878499999999999  0.11998  0.39736  1.0000
  H   H24       1.0  0.32245999999999997  0.9974800000000001  0.4114599999999999  1.0000
  H   H25       1.0  0.90992  0.00450000000000003  0.3177399999999999  1.0000
  H   H26       1.0  0.8090999999999999  0.07761000000000003  0.43436999999999987  1.0000
  H   H27       1.0  0.92644  0.0962  0.27075  1.0000
  H   H28       1.0  0.82302  0.17140000000000005  0.3871199999999999  1.0000
  H   H29       1.0  0.91625  0.19461  0.23414999999999994  1.0000
  H   H30       1.0  0.9698300000000001  0.15469  0.26719  1.0000
  H   H31       1.0  0.9086599999999998  0.25945  0.31957  1.0000
  H   H32       1.0  0.9602  0.29204000000000013  0.2799199999999999  1.0000
  H   H33       1.0  0.07883000000000003  0.10881999999999999  0.33583  1.0000
  H   H34       1.0  0.9555699999999999  0.2836000000000001  0.35111999999999993  1.0000
  H   H35       1.0  0.12018000000000002  0.09438  0.39724  1.0000
  H   H36       1.0  0.99749  0.2685800000000001  0.41149999999999987  1.0000
  H   H37       1.0  0.59013  0.73227  0.18230999999999994  1.0000
  H   H38       1.0  0.6909  0.82078  0.06558  1.0000
  H   H39       1.0  0.57371  0.79363  0.22926  1.0000
  H   H40       1.0  0.67706  0.88135  0.11283  1.0000
  H   H41       1.0  0.58368  0.84507  0.26594  1.0000
  H   H42       1.0  0.53039  0.8919100000000001  0.23258999999999994  1.0000
  H   H43       1.0  0.59148  0.98763  0.18040999999999993  1.0000
  H   H44       1.0  0.53958  0.03237999999999999  0.21996  1.0000
  H   H45       1.0  0.42124  0.02370000000000002  0.16394999999999996  1.0000
  H   H46       1.0  0.5443300000000002  0.09022  0.14883  1.0000
  H   H47       1.0  0.37993  0.11225  0.10262  1.0000
  H   H48       1.0  0.5023999999999998  0.17769  0.08852  1.0000
  H   H49       1.0  0.49550999999999995  0.59  0.18234  1.0000
  H   H50       1.0  0.42239  0.69085  0.06565  1.0000
  H   H51       1.0  0.4037800000000001  0.57352  0.22932999999999995  1.0000
  H   H52       1.0  0.32858000000000015  0.677  0.11288999999999999  1.0000
  H   H53       1.0  0.30542000000000014  0.58362  0.26597  1.0000
  H   H54       1.0  0.34532  0.53024  0.23278999999999994  1.0000
  H   H55       1.0  0.2403599999999998  0.59158  0.1804  1.0000
  H   H56       1.0  0.20815999999999998  0.5397100000000001  0.21996999999999994  1.0000
  H   H57       1.0  0.39122  0.42122  0.16408  1.0000
  H   H58       1.0  0.21644000000000002  0.54445  0.14873999999999996  1.0000
  H   H59       1.0  0.40557  0.37979  0.10279  1.0000
  H   H60       1.0  0.23135999999999998  0.50242  0.08849  1.0000
  H   H61       1.0  0.73208  0.49555  0.18228  1.0000
  H   H62       1.0  0.82084  0.42272  0.06553  1.0000
  H   H63       1.0  0.7935599999999998  0.4035300000000001  0.22922999999999993  1.0000
  H   H64       1.0  0.8815200000000002  0.32857  0.11273  1.0000
  H   H65       1.0  0.8449899999999999  0.3054000000000001  0.2659  1.0000
  H   H66       1.0  0.8916400000000002  0.34517  0.23264  1.0000
  H   H67       1.0  0.9877200000000002  0.24045  0.18028999999999995  1.0000
  H   H68       1.0  0.03239999999999999  0.2079600000000001  0.21988999999999995  1.0000
  H   H69       1.0  0.02335000000000001  0.39109000000000005  0.16418999999999995  1.0000
  H   H70       1.0  0.09054000000000004  0.21644000000000002  0.14865999999999993  1.0000
  H   H71       1.0  0.11166000000000001  0.40532  0.10296999999999999  1.0000
  H   H72       1.0  0.17781000000000002  0.23131  0.08846  1.0000
  H   H73       1.0  0.9956100000000001  0.23206000000000002  0.6822199999999998  1.0000
  H   H74       1.0  0.92266  0.3208900000000002  0.5654599999999997  1.0000
  H   H75       1.0  0.9036399999999999  0.29350000000000004  0.7291399999999998  1.0000
  H   H76       1.0  0.82857  0.38154000000000005  0.61266  1.0000
  H   H77       1.0  0.8054400000000002  0.34495  0.7657799999999998  1.0000
  H   H78       1.0  0.8451499999999998  0.39167  0.7326699999999998  1.0000
  H   H79       1.0  0.7405900000000001  0.4877899999999999  0.68028  1.0000
  H   H80       1.0  0.7077599999999998  0.5324000000000001  0.7199599999999998  1.0000
  H   H81       1.0  0.8911000000000001  0.5232300000000001  0.6643399999999998  1.0000
  H   H82       1.0  0.7164000000000001  0.5905100000000001  0.64874  1.0000
  H   H83       1.0  0.90534  0.6115300000000001  0.60301  1.0000
  H   H84       1.0  0.7313500000000001  0.67773  0.58844  1.0000
  H   H85       1.0  0.23226000000000008  0.09018000000000007  0.6822099999999998  1.0000
  H   H86       1.0  0.3207900000000001  0.19095  0.56548  1.0000
  H   H87       1.0  0.29359999999999997  0.07376  0.72918  1.0000
  H   H88       1.0  0.38134000000000007  0.17710000000000006  0.6127799999999998  1.0000
  H   H89       1.0  0.34507999999999994  0.08375  0.76584  1.0000
  H   H90       1.0  0.39192  0.03040000000000009  0.7325899999999997  1.0000
  H   H91       1.0  0.48765000000000014  0.09128000000000004  0.6803999999999999  1.0000
  H   H92       1.0  0.53237  0.0396400000000001  0.7200599999999998  1.0000
  H   H93       1.0  0.5236800000000001  0.9211800000000001  0.66403  1.0000
  H   H94       1.0  0.5901799999999999  0.04430000000000008  0.6489199999999998  1.0000
  H   H95       1.0  0.6121500000000001  0.88002  0.6026399999999997  1.0000
  H   H96       1.0  0.6775400000000001  0.0025200000000000335  0.5885399999999998  1.0000
  H   H97       1.0  0.09008  0.9955000000000002  0.68225  1.0000
  H   H98       1.0  0.19089999999999993  0.92239  0.56563  1.0000
  H   H99       1.0  0.07356000000000007  0.9037900000000002  0.7292399999999998  1.0000
  H   H100      1.0  0.17697999999999992  0.8286000000000001  0.6128699999999999  1.0000
  H   H101      1.0  0.08374999999999995  0.80539  0.76585  1.0000
  H   H102      1.0  0.030169999999999964  0.8453100000000001  0.73281  1.0000
  H   H103      1.0  0.09134  0.74055  0.68043  1.0000
  H   H104      1.0  0.039799999999999836  0.7079600000000001  0.72007  1.0000
  H   H105      1.0  0.92117  0.89117  0.66417  1.0000
  H   H106      1.0  0.04442999999999994  0.7164000000000001  0.6488699999999998  1.0000
  H   H107      1.0  0.87982  0.90561  0.60276  1.0000
  H   H108      1.0  0.0025099999999999554  0.73142  0.58849  1.0000
  H   H109      1.0  0.40987000000000023  0.26773000000000013  0.8176799999999997  1.0000
  H   H110      1.0  0.30910000000000004  0.17921  0.93441  1.0000
  H   H111      1.0  0.42629  0.20636000000000002  0.77074  1.0000
  H   H112      1.0  0.3229400000000001  0.11864000000000002  0.8871599999999997  1.0000
  H   H113      1.0  0.41631999999999997  0.15492000000000003  0.73405  1.0000
  H   H114      1.0  0.4696000000000001  0.10808000000000006  0.7674099999999998  1.0000
  H   H115      1.0  0.40852000000000005  0.012369999999999977  0.81959  1.0000
  H   H116      1.0  0.46041999999999994  0.96762  0.78003  1.0000
  H   H117      1.0  0.5787600000000002  0.9763  0.83605  1.0000
  H   H118      1.0  0.45567000000000013  0.90978  0.85117  1.0000
  H   H119      1.0  0.62007  0.8877500000000002  0.8973799999999997  1.0000
  H   H120      1.0  0.4976000000000001  0.8223100000000001  0.91148  1.0000
  H   H121      1.0  0.5044899999999999  0.40999000000000013  0.81766  1.0000
  H   H122      1.0  0.5776100000000002  0.3091400000000001  0.9343399999999997  1.0000
  H   H123      1.0  0.59621  0.42647000000000007  0.77066  1.0000
  H   H124      1.0  0.67142  0.32299000000000005  0.8871099999999997  1.0000
  H   H125      1.0  0.69458  0.41638000000000003  0.73402  1.0000
  H   H126      1.0  0.6546799999999999  0.4697599999999999  0.76721  1.0000
  H   H127      1.0  0.7596300000000006  0.40841  0.81959  1.0000
  H   H128      1.0  0.7918400000000001  0.46029000000000003  0.7800199999999998  1.0000
  H   H129      1.0  0.60878  0.57877  0.83592  1.0000
  H   H130      1.0  0.7835599999999999  0.45554  0.85125  1.0000
  H   H131      1.0  0.5944300000000001  0.6202  0.89721  1.0000
  H   H132      1.0  0.7686399999999998  0.49757999999999997  0.9115  1.0000
  H   H133      1.0  0.26792  0.5044499999999998  0.81772  1.0000
  H   H134      1.0  0.17916000000000004  0.57727  0.93447  1.0000
  H   H135      1.0  0.20644  0.5964600000000001  0.77077  1.0000
  H   H136      1.0  0.11848000000000003  0.6714300000000001  0.8872699999999998  1.0000
  H   H137      1.0  0.15501000000000012  0.69459  0.7340899999999998  1.0000
  H   H138      1.0  0.10836000000000015  0.65483  0.7673599999999998  1.0000
  H   H139      1.0  0.012280000000000008  0.7595500000000003  0.8197099999999998  1.0000
  H   H140      1.0  0.9676000000000001  0.79204  0.78011  1.0000
  H   H141      1.0  0.97664  0.6089  0.8357999999999998  1.0000
  H   H142      1.0  0.9094600000000004  0.7835600000000001  0.8513399999999998  1.0000
  H   H143      1.0  0.8883399999999999  0.5946800000000002  0.8970299999999998  1.0000
  H   H144      1.0  0.8221900000000002  0.7686800000000001  0.9115399999999998  1.0000
  C   C1        1.0  0.9782299999999999  0.76116  0.40792  1.0000
  C   C2        1.0  0.034760000000000034  0.72697  0.37916  1.0000
  C   C3        1.0  0.040980000000000044  0.73479  0.33283999999999997  1.0000
  C   C4        1.0  0.0823299999999998  0.6849200000000002  0.39862999999999993  1.0000
  C   C5        1.0  0.09274  0.70021  0.30652999999999997  1.0000
  C   C6        1.0  0.13447000000000003  0.6511300000000001  0.37259999999999993  1.0000
  C   C7        1.0  0.13946999999999993  0.6578600000000002  0.32666999999999996  1.0000
  C   C8        1.0  0.19390999999999992  0.6151100000000002  0.26223  1.0000
  C   C9        1.0  0.25421999999999995  0.5061800000000001  0.2909199999999999  1.0000
  C   C10       1.0  0.19690000000000005  0.44852  0.33943  1.0000
  C   C11       1.0  0.14343000000000009  0.4426400000000001  0.3525899999999999  1.0000
  C   C12       1.0  0.24219  0.40541000000000005  0.3608599999999999  1.0000
  C   C13       1.0  0.13564999999999997  0.39376000000000005  0.3866  1.0000
  C   C14       1.0  0.23388000000000006  0.35635000000000006  0.3948399999999999  1.0000
  C   C15       1.0  0.18089  0.34983  0.40803  1.0000
  C   C16       1.0  0.17323000000000002  0.29668000000000005  0.44346999999999986  1.0000
  C   C17       1.0  0.76117  0.8526100000000001  0.40791  1.0000
  C   C18       1.0  0.72696  0.85908  0.3791699999999999  1.0000
  C   C19       1.0  0.7346699999999999  0.8913600000000003  0.33283999999999997  1.0000
  C   C20       1.0  0.68499  0.83414  0.39861  1.0000
  C   C21       1.0  0.7001600000000001  0.9005  0.3064999999999999  1.0000
  C   C22       1.0  0.6512700000000001  0.84185  0.37255  1.0000
  C   C23       1.0  0.65794  0.876  0.32662  1.0000
  C   C24       1.0  0.6150300000000001  0.9288000000000001  0.26223  1.0000
  C   C25       1.0  0.50617  0.94883  0.29086  1.0000
  C   C26       1.0  0.44841000000000003  0.015270000000000037  0.3394899999999999  1.0000
  C   C27       1.0  0.44233  0.061440000000000015  0.35281  1.0000
  C   C28       1.0  0.40552000000000005  0.99158  0.36081999999999986  1.0000
  C   C29       1.0  0.39339  0.08405000000000001  0.3868499999999999  1.0000
  C   C30       1.0  0.3564000000000001  0.014920000000000041  0.3948399999999999  1.0000
  C   C31       1.0  0.34965000000000007  0.06124999999999999  0.40815  1.0000
  C   C32       1.0  0.29652  0.08656000000000003  0.44364999999999993  1.0000
  C   C33       1.0  0.8526299999999999  0.97845  0.40788  1.0000
  C   C34       1.0  0.8591800000000003  0.03487000000000003  0.37908999999999987  1.0000
  C   C35       1.0  0.89148  0.041050000000000024  0.33278  1.0000
  C   C36       1.0  0.83426  0.08243999999999999  0.39849  1.0000
  C   C37       1.0  0.9006899999999998  0.09269000000000002  0.30642999999999987  1.0000
  C   C38       1.0  0.84203  0.13444  0.37243999999999994  1.0000
  C   C39       1.0  0.8762499999999999  0.13939  0.32653  1.0000
  C   C40       1.0  0.9289599999999999  0.19382  0.2621399999999999  1.0000
  C   C41       1.0  0.9487599999999998  0.25409  0.29085  1.0000
  C   C42       1.0  0.015240000000000031  0.19680000000000006  0.3394999999999999  1.0000
  C   C43       1.0  0.061519999999999964  0.14329  0.35277  1.0000
  C   C44       1.0  0.99153  0.24215  0.36083  1.0000
  C   C45       1.0  0.08419000000000001  0.13544000000000003  0.3868099999999999  1.0000
  C   C46       1.0  0.01494000000000004  0.23379000000000005  0.3948399999999999  1.0000
  C   C47       1.0  0.061340000000000006  0.18073000000000006  0.40816999999999987  1.0000
  C   C48       1.0  0.08655  0.17303999999999994  0.44376  1.0000
  C   C49       1.0  0.6473599999999999  0.73871  0.09235999999999997  1.0000
  C   C50       1.0  0.64089  0.77303  0.12097999999999999  1.0000
  C   C51       1.0  0.60859  0.76534  0.16729  1.0000
  C   C52       1.0  0.66581  0.81501  0.10148999999999997  1.0000
  C   C53       1.0  0.59945  0.79986  0.19359  1.0000
  C   C54       1.0  0.6581  0.84874  0.12752  1.0000
  C   C55       1.0  0.62398  0.84206  0.17346  1.0000
  C   C56       1.0  0.5711699999999998  0.8849400000000001  0.23782999999999996  1.0000
  C   C57       1.0  0.5512699999999999  0.9937900000000001  0.20904  1.0000
  C   C58       1.0  0.48482000000000003  0.05157999999999999  0.16036  1.0000
  C   C59       1.0  0.43858  0.05771000000000002  0.14709999999999995  1.0000
  C   C60       1.0  0.50841  0.09456  0.13908999999999994  1.0000
  C   C61       1.0  0.41588  0.10672000000000001  0.11309999999999998  1.0000
  C   C62       1.0  0.48497000000000007  0.14373  0.10511999999999998  1.0000
  C   C63       1.0  0.43864  0.15049  0.09179  1.0000
  C   C64       1.0  0.41337  0.20363000000000003  0.056199999999999986  1.0000
  C   C65       1.0  0.52147  0.64732  0.09233999999999998  1.0000
  C   C66       1.0  0.4650800000000001  0.64077  0.12100999999999998  1.0000
  C   C67       1.0  0.45891999999999994  0.60846  0.16732  1.0000
  C   C68       1.0  0.41754999999999987  0.6657100000000002  0.10153999999999998  1.0000
  C   C69       1.0  0.40727999999999986  0.59928  0.19365999999999994  1.0000
  C   C70       1.0  0.3655300000000001  0.65798  0.1276  1.0000
  C   C71       1.0  0.3605599999999999  0.6238  0.17354  1.0000
  C   C72       1.0  0.30618  0.57107  0.23790999999999995  1.0000
  C   C73       1.0  0.24596000000000007  0.55136  0.20902999999999994  1.0000
  C   C74       1.0  0.3032599999999999  0.48488  0.16034999999999994  1.0000
  C   C75       1.0  0.35673  0.43854  0.14715  1.0000
  C   C76       1.0  0.2578799999999999  0.50848  0.13906  1.0000
  C   C77       1.0  0.36451999999999996  0.4158  0.11316999999999998  1.0000
  C   C78       1.0  0.2661799999999999  0.48499  0.10512999999999997  1.0000
  C   C79       1.0  0.31922  0.43859  0.09182  1.0000
  C   C80       1.0  0.32691000000000003  0.4133  0.056239999999999984  1.0000
  C   C81       1.0  0.7386999999999999  0.52167  0.09230999999999998  1.0000
  C   C82       1.0  0.773  0.46515000000000006  0.12096  1.0000
  C   C83       1.0  0.76522  0.45894  0.16726  1.0000
  C   C84       1.0  0.8150599999999998  0.41766000000000014  0.10143999999999997  1.0000
  C   C85       1.0  0.7998100000000001  0.4071800000000001  0.19355999999999995  1.0000
  C   C86       1.0  0.8488499999999999  0.3655100000000001  0.12747  1.0000
  C   C87       1.0  0.8420899999999999  0.36046  0.17342  1.0000
  C   C88       1.0  0.88485  0.3060700000000001  0.23782999999999996  1.0000
  C   C89       1.0  0.9937699999999999  0.24586000000000002  0.20896  1.0000
  C   C90       1.0  0.05149  0.30316  0.1604  1.0000
  C   C91       1.0  0.057469999999999966  0.3565700000000001  0.14727  1.0000
  C   C92       1.0  0.09465  0.25783  0.13906  1.0000
  C   C93       1.0  0.1064  0.36432  0.11330999999999997  1.0000
  C   C94       1.0  0.14375999999999997  0.26611000000000007  0.10512999999999997  1.0000
  C   C95       1.0  0.15031999999999995  0.31909000000000004  0.09188  1.0000
  C   C96       1.0  0.20340999999999998  0.3268  0.05628  1.0000
  C   C97       1.0  0.021770000000000005  0.23884000000000002  0.59208  1.0000
  C   C98       1.0  0.9652399999999999  0.2730200000000002  0.6208399999999997  1.0000
  C   C99       1.0  0.95902  0.26520000000000005  0.66716  1.0000
  C   C100      1.0  0.9176700000000001  0.31508  0.60137  1.0000
  C   C101      1.0  0.90726  0.2997900000000001  0.6934599999999997  1.0000
  C   C102      1.0  0.86553  0.3488700000000001  0.6273999999999997  1.0000
  C   C103      1.0  0.86053  0.34214  0.67332  1.0000
  C   C104      1.0  0.8060899999999994  0.38489  0.73777  1.0000
  C   C105      1.0  0.7457800000000004  0.49382  0.70907  1.0000
  C   C106      1.0  0.8031  0.55148  0.66057  1.0000
  C   C107      1.0  0.85657  0.55735  0.6474  1.0000
  C   C108      1.0  0.7578100000000001  0.5945799999999999  0.63914  1.0000
  C   C109      1.0  0.8643499999999998  0.60624  0.61339  1.0000
  C   C110      1.0  0.76612  0.6436500000000003  0.6051599999999998  1.0000
  C   C111      1.0  0.81911  0.65016  0.59197  1.0000
  C   C112      1.0  0.8267699999999997  0.7033099999999998  0.55653  1.0000
  C   C113      1.0  0.23882999999999993  0.14738999999999997  0.59209  1.0000
  C   C114      1.0  0.27304000000000006  0.14092000000000002  0.62083  1.0000
  C   C115      1.0  0.26533  0.10864  0.66716  1.0000
  C   C116      1.0  0.31501  0.1658500000000001  0.6013799999999998  1.0000
  C   C117      1.0  0.29984  0.09948999999999998  0.6935  1.0000
  C   C118      1.0  0.34873  0.15814000000000003  0.62744  1.0000
  C   C119      1.0  0.34206000000000003  0.12399000000000013  0.6733799999999998  1.0000
  C   C120      1.0  0.38497  0.07119  0.73777  1.0000
  C   C121      1.0  0.4938299999999999  0.051160000000000004  0.70913  1.0000
  C   C122      1.0  0.55159  0.9847200000000003  0.6605099999999998  1.0000
  C   C123      1.0  0.55767  0.9385600000000001  0.64719  1.0000
  C   C124      1.0  0.59448  0.008420000000000006  0.63917  1.0000
  C   C125      1.0  0.6066100000000004  0.9159500000000002  0.61315  1.0000
  C   C126      1.0  0.6436000000000002  0.98508  0.6051599999999998  1.0000
  C   C127      1.0  0.6503500000000003  0.93875  0.59184  1.0000
  C   C128      1.0  0.7034799999999999  0.9134300000000001  0.5563399999999998  1.0000
  C   C129      1.0  0.14737000000000008  0.021540000000000052  0.5921199999999998  1.0000
  C   C130      1.0  0.14080999999999994  0.96513  0.62091  1.0000
  C   C131      1.0  0.10852000000000002  0.95894  0.66722  1.0000
  C   C132      1.0  0.1657399999999998  0.9175600000000003  0.6015  1.0000
  C   C133      1.0  0.09930999999999998  0.9073000000000001  0.6935699999999999  1.0000
  C   C134      1.0  0.15797000000000014  0.8655500000000003  0.6275599999999998  1.0000
  C   C135      1.0  0.12374999999999996  0.8606000000000001  0.67347  1.0000
  C   C136      1.0  0.07104000000000012  0.80618  0.7378599999999997  1.0000
  C   C137      1.0  0.05123999999999998  0.74591  0.70915  1.0000
  C   C138      1.0  0.98476  0.80319  0.6605  1.0000
  C   C139      1.0  0.9384799999999998  0.8567100000000001  0.64722  1.0000
  C   C140      1.0  0.008470000000000004  0.7578500000000001  0.63917  1.0000
  C   C141      1.0  0.91581  0.86455  0.6131899999999998  1.0000
  C   C142      1.0  0.98506  0.76621  0.6051599999999998  1.0000
  C   C143      1.0  0.9386599999999998  0.8192600000000002  0.5918299999999997  1.0000
  C   C144      1.0  0.9134499999999999  0.8269500000000002  0.5562299999999998  1.0000
  C   C145      1.0  0.35264  0.2612800000000002  0.9076299999999998  1.0000
  C   C146      1.0  0.35910999999999993  0.22697000000000003  0.87901  1.0000
  C   C147      1.0  0.39141  0.23466  0.83271  1.0000
  C   C148      1.0  0.33419000000000004  0.18499000000000002  0.8985099999999998  1.0000
  C   C149      1.0  0.4005500000000001  0.2001400000000001  0.8064099999999997  1.0000
  C   C150      1.0  0.3419000000000001  0.15125000000000008  0.8724699999999997  1.0000
  C   C151      1.0  0.3760200000000002  0.15794000000000005  0.8265399999999998  1.0000
  C   C152      1.0  0.42883  0.11506000000000004  0.7621699999999999  1.0000
  C   C153      1.0  0.44872999999999996  0.0062100000000000835  0.7909599999999998  1.0000
  C   C154      1.0  0.5151799999999996  0.94841  0.8396299999999999  1.0000
  C   C155      1.0  0.5614200000000003  0.94228  0.85289  1.0000
  C   C156      1.0  0.4915800000000003  0.9054400000000001  0.8609099999999998  1.0000
  C   C157      1.0  0.5841199999999999  0.8932800000000002  0.8868999999999999  1.0000
  C   C158      1.0  0.51502  0.85626  0.8948699999999998  1.0000
  C   C159      1.0  0.5613599999999999  0.8495100000000001  0.90821  1.0000
  C   C160      1.0  0.5866299999999998  0.7963700000000001  0.9437999999999998  1.0000
  C   C161      1.0  0.47853000000000007  0.3526700000000001  0.9076599999999998  1.0000
  C   C162      1.0  0.53492  0.35923  0.87899  1.0000
  C   C163      1.0  0.54108  0.39154  0.83268  1.0000
  C   C164      1.0  0.58245  0.33429000000000003  0.8984499999999997  1.0000
  C   C165      1.0  0.5927199999999998  0.4007200000000001  0.80634  1.0000
  C   C166      1.0  0.63447  0.34202  0.8724  1.0000
  C   C167      1.0  0.63943  0.3761900000000002  0.8264599999999998  1.0000
  C   C168      1.0  0.6938199999999999  0.42892000000000013  0.7620899999999998  1.0000
  C   C169      1.0  0.7540299999999998  0.4486300000000001  0.7909599999999998  1.0000
  C   C170      1.0  0.6967400000000002  0.51511  0.83964  1.0000
  C   C171      1.0  0.64326  0.56146  0.8528499999999998  1.0000
  C   C172      1.0  0.7421200000000002  0.49151000000000017  0.8609299999999998  1.0000
  C   C173      1.0  0.6354799999999999  0.5842  0.88683  1.0000
  C   C174      1.0  0.73382  0.5150100000000001  0.8948699999999998  1.0000
  C   C175      1.0  0.68078  0.56141  0.90818  1.0000
  C   C176      1.0  0.6730900000000002  0.5867  0.9437499999999999  1.0000
  C   C177      1.0  0.2612999999999999  0.47833000000000014  0.9076899999999998  1.0000
  C   C178      1.0  0.22700000000000012  0.53484  0.8790299999999999  1.0000
  C   C179      1.0  0.23477999999999993  0.5410600000000002  0.83273  1.0000
  C   C180      1.0  0.18494000000000008  0.58233  0.8985599999999998  1.0000
  C   C181      1.0  0.20019000000000003  0.5928200000000002  0.8064399999999998  1.0000
  C   C182      1.0  0.15115000000000006  0.6344899999999999  0.87253  1.0000
  C   C183      1.0  0.15791000000000002  0.63954  0.82658  1.0000
  C   C184      1.0  0.11515000000000004  0.69392  0.7621699999999999  1.0000
  C   C185      1.0  0.006229999999999948  0.75414  0.79103  1.0000
  C   C186      1.0  0.94851  0.69684  0.8395999999999998  1.0000
  C   C187      1.0  0.94253  0.6434300000000001  0.8527199999999999  1.0000
  C   C188      1.0  0.9053499999999998  0.7421700000000002  0.86094  1.0000
  C   C189      1.0  0.8935999999999996  0.63568  0.88669  1.0000
  C   C190      1.0  0.85624  0.73389  0.89486  1.0000
  C   C191      1.0  0.8496799999999999  0.6809100000000002  0.9081099999999998  1.0000
  C   C192      1.0  0.7965900000000001  0.6732000000000004  0.9437099999999998  1.0000
  C   C193      1.0  0.25009  0.56123  0.25000999999999995  1.0000
  C   C194      1.0  0.56122  0.9387800000000001  0.24999  1.0000
  C   C195      1.0  0.9387900000000001  0.24994000000000002  0.24995  1.0000
  C   C196      1.0  0.7499099999999999  0.4387700000000001  0.7499799999999998  1.0000
  C   C197      1.0  0.43877999999999995  0.061209999999999994  0.75  1.0000
  C   C198      1.0  0.061199999999999935  0.75005  0.75005  1.0000
  O   O1        1.0  0.93947  0.80424  0.3871599999999999  1.0000
  O   O2        1.0  0.9727800000000002  0.74416  0.45139999999999997  1.0000
  O   O3        1.0  0.8770799999999995  0.70553  0.54487  1.0000
  O   O4        1.0  0.9345500000000001  0.7825600000000001  0.5402599999999999  1.0000
  O   O5        1.0  0.19199  0.6208600000000001  0.3043599999999999  1.0000
  O   O6        1.0  0.20061000000000007  0.49793  0.30506999999999995  1.0000
  O   O7        1.0  0.80396  0.86935  0.38715  1.0000
  O   O8        1.0  0.7445299999999999  0.83126  0.45136  1.0000
  O   O9        1.0  0.70586  0.8724600000000001  0.54474  1.0000
  O   O10       1.0  0.7823500000000001  0.7427500000000001  0.5406099999999999  1.0000
  O   O11       1.0  0.62101  0.88273  0.3043199999999999  1.0000
  O   O12       1.0  0.49777999999999994  0.99658  0.30506  1.0000
  O   O13       1.0  0.86923  0.9395900000000001  0.38723  1.0000
  O   O14       1.0  0.83129  0.97318  0.45132  1.0000
  O   O15       1.0  0.8725599999999998  0.87731  0.54443  1.0000
  O   O16       1.0  0.7426699999999999  0.9345400000000004  0.5402899999999999  1.0000
  O   O17       1.0  0.88301  0.19185000000000002  0.30427  1.0000
  O   O18       1.0  0.9965500000000002  0.20044000000000006  0.3051199999999999  1.0000
  O   O19       1.0  0.63068  0.69589  0.11323999999999997  1.0000
  O   O20       1.0  0.6686899999999999  0.7553300000000001  0.04890999999999999  1.0000
  O   O21       1.0  0.6272899999999996  0.7941300000000002  0.95572  1.0000
  O   O22       1.0  0.7570800000000001  0.7176700000000001  0.9595399999999998  1.0000
  O   O23       1.0  0.61729  0.87889  0.19579999999999995  1.0000
  O   O24       1.0  0.5037399999999999  0.0020600000000000206  0.19464999999999993  1.0000
  O   O25       1.0  0.56018  0.63081  0.11313999999999998  1.0000
  O   O26       1.0  0.5268500000000003  0.66856  0.04885999999999999  1.0000
  O   O27       1.0  0.62259  0.6272899999999999  0.95577  1.0000
  O   O28       1.0  0.56574  0.75703  0.9596399999999998  1.0000
  O   O29       1.0  0.30805999999999994  0.61716  0.19585  1.0000
  O   O30       1.0  0.29973  0.50381  0.19456  1.0000
  O   O31       1.0  0.69557  0.56028  0.11316999999999998  1.0000
  O   O32       1.0  0.75566  0.5272  0.04881999999999999  1.0000
  O   O33       1.0  0.7945199999999999  0.6227600000000001  0.9556799999999998  1.0000
  O   O34       1.0  0.71762  0.5659600000000001  0.9594799999999998  1.0000
  O   O35       1.0  0.8789599999999999  0.3079100000000001  0.19579999999999995  1.0000
  O   O36       1.0  0.001910000000000006  0.29958000000000007  0.19456999999999994  1.0000
  O   O37       1.0  0.06053000000000007  0.19576000000000005  0.6128399999999998  1.0000
  O   O38       1.0  0.027220000000000046  0.25582999999999995  0.5486  1.0000
  O   O39       1.0  0.12291999999999997  0.2944600000000001  0.45511999999999997  1.0000
  O   O40       1.0  0.06545000000000005  0.21744000000000008  0.4597299999999999  1.0000
  O   O41       1.0  0.80801  0.3791399999999999  0.69564  1.0000
  O   O42       1.0  0.79939  0.50206  0.69492  1.0000
  O   O43       1.0  0.19604000000000013  0.13065000000000004  0.6128399999999998  1.0000
  O   O44       1.0  0.25546999999999986  0.16873999999999997  0.54863  1.0000
  O   O45       1.0  0.29414  0.12754000000000007  0.4552599999999999  1.0000
  O   O46       1.0  0.21765000000000004  0.25724  0.45939  1.0000
  O   O47       1.0  0.37898000000000004  0.11726000000000009  0.6956799999999997  1.0000
  O   O48       1.0  0.50221  0.003419999999999994  0.69494  1.0000
  O   O49       1.0  0.13077  0.06041  0.61277  1.0000
  O   O50       1.0  0.16870999999999992  0.026820000000000028  0.54867  1.0000
  O   O51       1.0  0.12744000000000003  0.12268000000000001  0.45556999999999986  1.0000
  O   O52       1.0  0.25733  0.06546000000000002  0.45970999999999995  1.0000
  O   O53       1.0  0.11699000000000008  0.80815  0.69572  1.0000
  O   O54       1.0  0.003450000000000093  0.79956  0.6948799999999998  1.0000
  O   O55       1.0  0.3693199999999999  0.3041100000000001  0.8867599999999998  1.0000
  O   O56       1.0  0.33131000000000005  0.24466000000000002  0.95109  1.0000
  O   O57       1.0  0.37270999999999993  0.20586  0.04428  1.0000
  O   O58       1.0  0.24292  0.28232  0.04046  1.0000
  O   O59       1.0  0.38271000000000005  0.1211  0.8042  1.0000
  O   O60       1.0  0.49625999999999987  0.9979399999999999  0.80535  1.0000
  O   O61       1.0  0.43982000000000016  0.3691900000000002  0.8868599999999998  1.0000
  O   O62       1.0  0.47315000000000007  0.3314300000000002  0.9511299999999998  1.0000
  O   O63       1.0  0.37740999999999997  0.37271000000000004  0.04422  1.0000
  O   O64       1.0  0.43426  0.24296  0.040359999999999986  1.0000
  O   O65       1.0  0.69193  0.38284  0.80414  1.0000
  O   O66       1.0  0.7002700000000001  0.4961900000000001  0.8054399999999998  1.0000
  O   O67       1.0  0.30443000000000003  0.43972000000000006  0.8868199999999999  1.0000
  O   O68       1.0  0.24433999999999995  0.4728  0.95117  1.0000
  O   O69       1.0  0.20548000000000002  0.37724  0.04431999999999999  1.0000
  O   O70       1.0  0.28238  0.43403  0.04052  1.0000
  O   O71       1.0  0.12103000000000008  0.69209  0.8042  1.0000
  O   O72       1.0  0.9980900000000001  0.70041  0.80543  1.0000
  O   O73       1.0  0.8401200000000001  0.84014  0.4796499999999999  1.0000
  O   O74       1.0  0.6596999999999998  0.65976  0.02079  1.0000
  O   O75       1.0  0.15988000000000005  0.15984999999999996  0.52035  1.0000
  O   O76       1.0  0.3403  0.34024000000000015  0.9791999999999997  1.0000
