data_image0
_chemical_formula_structural       Zn12H128C208N8O48
_chemical_formula_sum              "Zn12 H128 C208 N8 O48"
_cell_length_a       14.6965
_cell_length_b       18.12363
_cell_length_c       25.00583
_cell_angle_alpha    90.00506999999999
_cell_angle_beta     90.04492
_cell_angle_gamma    89.96251

_symmetry_space_group_name_H-M    'P 1'
_symmetry_Int_Tables_number       1

loop_
  _symmetry_equiv_pos_as_xyz
  'x,y,z'

loop_
  _atom_site_type_symbol
  _atom_site_label
  _atom_site_symmetry_multiplicity
  _atom_site_fract_x
  _atom_site_fract_y
  _atom_site_fract_z
  _atom_site_occupancy
  Zn  Zn1       1.0  0.5392800000000001  0.06467  0.85049  1.0000
  Zn  Zn2       1.0  0.50728  0.25684  0.8482399999999999  1.0000
  Zn  Zn3       1.0  0.4702600000000001  0.44956000000000007  0.85001  1.0000
  Zn  Zn4       1.0  0.03902000000000001  0.4353600000000001  0.35029  1.0000
  Zn  Zn5       1.0  0.007150000000000002  0.24311000000000002  0.34814  1.0000
  Zn  Zn6       1.0  0.9704400000000002  0.050610000000000016  0.35025999999999996  1.0000
  Zn  Zn7       1.0  0.9609800000000002  0.5646400000000003  0.64971  1.0000
  Zn  Zn8       1.0  0.99285  0.7568800000000002  0.65186  1.0000
  Zn  Zn9       1.0  0.02957  0.94939  0.64974  1.0000
  Zn  Zn10      1.0  0.4607300000000001  0.93533  0.14951  1.0000
  Zn  Zn11      1.0  0.4927300000000001  0.74315  0.15176  1.0000
  Zn  Zn12      1.0  0.52974  0.55044  0.14999  1.0000
  H   H1        1.0  0.48722  0.9490600000000001  0.92856  1.0000
  H   H2        1.0  0.4657000000000001  0.8123400000000002  0.93128  1.0000
  H   H3        1.0  0.55727  0.80576  0.76689  1.0000
  H   H4        1.0  0.57572  0.9424000000000001  0.77161  1.0000
  H   H5        1.0  0.52582  0.56436  0.9271  1.0000
  H   H6        1.0  0.54786  0.70116  0.92998  1.0000
  H   H7        1.0  0.44174000000000013  0.70946  0.7685  1.0000
  H   H8        1.0  0.42573  0.57234  0.77263  1.0000
  H   H9        1.0  0.83077  0.08711000000000003  0.81629  1.0000
  H   H10       1.0  0.9885200000000002  0.13496  0.80999  1.0000
  H   H11       1.0  0.9008500000000003  0.3382700000000001  0.88398  1.0000
  H   H12       1.0  0.7431  0.29019  0.8876  1.0000
  H   H13       1.0  0.01121  0.38515  0.8463  1.0000
  H   H14       1.0  0.16775000000000007  0.43372000000000005  0.8451999999999997  1.0000
  H   H15       1.0  0.2736800000000001  0.21334000000000006  0.83474  1.0000
  H   H16       1.0  0.11688000000000003  0.16307000000000002  0.8405  1.0000
  H   H17       1.0  0.37929  0.019850000000000003  0.98689  1.0000
  H   H18       1.0  0.28923  0.02023  0.07059  1.0000
  H   H19       1.0  0.25794000000000006  0.25601  0.05775  1.0000
  H   H20       1.0  0.34812  0.25425000000000003  0.97295  1.0000
  H   H21       1.0  0.15436  0.03051  0.10592999999999998  1.0000
  H   H22       1.0  0.07489000000000001  0.02429  0.19339  1.0000
  H   H23       1.0  0.18038000000000007  0.23653  0.23619  1.0000
  H   H24       1.0  0.26182  0.24381000000000003  0.14882  1.0000
  H   H25       1.0  0.33595  0.03774  0.7336599999999999  1.0000
  H   H26       1.0  0.23502000000000006  0.037710000000000014  0.6543599999999999  1.0000
  H   H27       1.0  0.34805  0.24720000000000006  0.60594  1.0000
  H   H28       1.0  0.44368  0.24841  0.68821  1.0000
  H   H29       1.0  0.22559000000000007  0.019850000000000003  0.5719  1.0000
  H   H30       1.0  0.12786000000000003  0.01349  0.49157  1.0000
  H   H31       1.0  0.11859  0.24961000000000003  0.48346  1.0000
  H   H32       1.0  0.21642000000000006  0.25757  0.56507  1.0000
  H   H33       1.0  0.9871800000000002  0.55095  0.42843  1.0000
  H   H34       1.0  0.9658400000000003  0.68768  0.43131  1.0000
  H   H35       1.0  0.057330000000000006  0.6944000000000001  0.2669  1.0000
  H   H36       1.0  0.07575000000000003  0.55778  0.27146  1.0000
  H   H37       1.0  0.025920000000000006  0.93573  0.42714  1.0000
  H   H38       1.0  0.04792  0.79891  0.42999999999999994  1.0000
  H   H39       1.0  0.9417600000000003  0.7907100000000002  0.26858  1.0000
  H   H40       1.0  0.9258500000000002  0.92787  0.2727  1.0000
  H   H41       1.0  0.3304  0.41274000000000005  0.31635  1.0000
  H   H42       1.0  0.4882200000000001  0.36497  0.31003  1.0000
  H   H43       1.0  0.40112  0.16163  0.38397  1.0000
  H   H44       1.0  0.24316000000000004  0.20961  0.38757  1.0000
  H   H45       1.0  0.51149  0.11483000000000002  0.34629  1.0000
  H   H46       1.0  0.66816  0.06637000000000001  0.34508999999999995  1.0000
  H   H47       1.0  0.77353  0.28684  0.33463  1.0000
  H   H48       1.0  0.6166200000000002  0.33701  0.34062  1.0000
  H   H49       1.0  0.8794900000000002  0.48012  0.48671  1.0000
  H   H50       1.0  0.7894000000000002  0.47984  0.5704  1.0000
  H   H51       1.0  0.7580200000000002  0.24419000000000002  0.55755  1.0000
  H   H52       1.0  0.8482700000000001  0.24568  0.47277  1.0000
  H   H53       1.0  0.6545600000000003  0.4697500000000001  0.60572  1.0000
  H   H54       1.0  0.57482  0.47578000000000004  0.69317  1.0000
  H   H55       1.0  0.68024  0.26328000000000007  0.7356  1.0000
  H   H56       1.0  0.7622100000000003  0.25632  0.64832  1.0000
  H   H57       1.0  0.8354200000000003  0.46180000000000004  0.23377999999999996  1.0000
  H   H58       1.0  0.73507  0.46224  0.15421  1.0000
  H   H59       1.0  0.8481200000000002  0.25275  0.10569  1.0000
  H   H60       1.0  0.9433800000000002  0.25114  0.18815999999999997  1.0000
  H   H61       1.0  0.7256500000000002  0.48016  0.07179  1.0000
  H   H62       1.0  0.62775  0.48667  0.99153  1.0000
  H   H63       1.0  0.6184700000000002  0.25049  0.98343  1.0000
  H   H64       1.0  0.7164200000000002  0.24255000000000002  0.06496  1.0000
  H   H65       1.0  0.012830000000000003  0.44905000000000006  0.57157  1.0000
  H   H66       1.0  0.03417000000000001  0.3123200000000001  0.56869  1.0000
  H   H67       1.0  0.9426800000000002  0.30559  0.7331  1.0000
  H   H68       1.0  0.9242600000000002  0.44222000000000006  0.7285399999999999  1.0000
  H   H69       1.0  0.9740900000000002  0.06426  0.57286  1.0000
  H   H70       1.0  0.9520900000000002  0.20108  0.57  1.0000
  H   H71       1.0  0.058240000000000014  0.20928  0.73142  1.0000
  H   H72       1.0  0.07416  0.07212  0.7273  1.0000
  H   H73       1.0  0.66961  0.5872600000000002  0.68365  1.0000
  H   H74       1.0  0.51178  0.6350300000000001  0.68997  1.0000
  H   H75       1.0  0.5988900000000003  0.8383600000000002  0.61603  1.0000
  H   H76       1.0  0.7568500000000002  0.7903900000000003  0.61243  1.0000
  H   H77       1.0  0.4885200000000001  0.8851600000000002  0.6537099999999999  1.0000
  H   H78       1.0  0.3318500000000001  0.93363  0.65491  1.0000
  H   H79       1.0  0.22648000000000004  0.7131600000000002  0.66537  1.0000
  H   H80       1.0  0.3833900000000001  0.66298  0.65938  1.0000
  H   H81       1.0  0.12051000000000003  0.51987  0.51329  1.0000
  H   H82       1.0  0.21060000000000004  0.52015  0.4296  1.0000
  H   H83       1.0  0.24199000000000007  0.7558  0.44244999999999995  1.0000
  H   H84       1.0  0.15173000000000006  0.7543100000000003  0.52723  1.0000
  H   H85       1.0  0.3454500000000001  0.53024  0.39428  1.0000
  H   H86       1.0  0.4251900000000001  0.52422  0.30683  1.0000
  H   H87       1.0  0.31976  0.7367200000000003  0.2644  1.0000
  H   H88       1.0  0.2378  0.74367  0.35168  1.0000
  H   H89       1.0  0.16458  0.5382  0.76622  1.0000
  H   H90       1.0  0.2649300000000001  0.53776  0.84579  1.0000
  H   H91       1.0  0.15188  0.7472500000000001  0.89431  1.0000
  H   H92       1.0  0.056630000000000014  0.74886  0.8118399999999999  1.0000
  H   H93       1.0  0.27435  0.51983  0.9282099999999999  1.0000
  H   H94       1.0  0.37225000000000014  0.51332  0.00847  1.0000
  H   H95       1.0  0.38154  0.7495  0.01657  1.0000
  H   H96       1.0  0.2835800000000001  0.75745  0.93504  1.0000
  H   H97       1.0  0.51279  0.05094  0.07144  1.0000
  H   H98       1.0  0.5343  0.18765  0.06872  1.0000
  H   H99       1.0  0.4427400000000001  0.19423000000000007  0.23311  1.0000
  H   H100      1.0  0.4242800000000001  0.05759000000000001  0.22839  1.0000
  H   H101      1.0  0.4741900000000001  0.43564  0.0729  1.0000
  H   H102      1.0  0.4521500000000001  0.2988300000000001  0.07002  1.0000
  H   H103      1.0  0.5582700000000003  0.29053000000000007  0.2315  1.0000
  H   H104      1.0  0.5742800000000002  0.4276500000000001  0.22737  1.0000
  H   H105      1.0  0.16923  0.91288  0.18370999999999998  1.0000
  H   H106      1.0  0.011490000000000004  0.8650300000000002  0.19001  1.0000
  H   H107      1.0  0.09915000000000003  0.6617300000000002  0.11601999999999998  1.0000
  H   H108      1.0  0.25691  0.70981  0.11239999999999999  1.0000
  H   H109      1.0  0.9888  0.61485  0.1537  1.0000
  H   H110      1.0  0.8322500000000003  0.5662800000000002  0.1548  1.0000
  H   H111      1.0  0.72633  0.7866500000000002  0.16526999999999997  1.0000
  H   H112      1.0  0.8831300000000001  0.83693  0.1595  1.0000
  H   H113      1.0  0.62072  0.9801500000000002  0.01311  1.0000
  H   H114      1.0  0.71078  0.9797700000000001  0.92941  1.0000
  H   H115      1.0  0.74206  0.74398  0.94225  1.0000
  H   H116      1.0  0.6518900000000002  0.74574  0.027049999999999998  1.0000
  H   H117      1.0  0.84565  0.96948  0.89407  1.0000
  H   H118      1.0  0.9251200000000003  0.9757100000000001  0.80661  1.0000
  H   H119      1.0  0.8196300000000002  0.76347  0.76381  1.0000
  H   H120      1.0  0.7381900000000002  0.75618  0.85118  1.0000
  H   H121      1.0  0.66405  0.9622600000000001  0.26634  1.0000
  H   H122      1.0  0.7649900000000002  0.9622900000000001  0.34564  1.0000
  H   H123      1.0  0.6519600000000002  0.7528000000000001  0.39405999999999997  1.0000
  H   H124      1.0  0.5563300000000002  0.75159  0.31179  1.0000
  H   H125      1.0  0.7744200000000002  0.9801500000000002  0.4281  1.0000
  H   H126      1.0  0.87215  0.9865100000000002  0.50843  1.0000
  H   H127      1.0  0.88142  0.7503800000000003  0.51654  1.0000
  H   H128      1.0  0.7835900000000002  0.7424300000000003  0.4349299999999999  1.0000
  C   C1        1.0  0.50223  0.91472  0.89405  1.0000
  C   C2        1.0  0.49048000000000014  0.8388  0.8951  1.0000
  C   C3        1.0  0.5093  0.7975  0.849  1.0000
  C   C4        1.0  0.5402400000000003  0.83516  0.80348  1.0000
  C   C5        1.0  0.5513500000000002  0.9112100000000001  0.80589  1.0000
  C   C6        1.0  0.50821  0.59915  0.89324  1.0000
  C   C7        1.0  0.52001  0.6750500000000001  0.89438  1.0000
  C   C8        1.0  0.49725000000000014  0.71679  0.84903  1.0000
  C   C9        1.0  0.4624600000000001  0.67959  0.8042599999999998  1.0000
  C   C10       1.0  0.4524000000000001  0.60345  0.8064  1.0000
  C   C11       1.0  0.6830300000000002  0.15632000000000001  0.85748  1.0000
  C   C12       1.0  0.77758  0.18539000000000003  0.8527  1.0000
  C   C13       1.0  0.84741  0.14209000000000002  0.8307799999999999  1.0000
  C   C14       1.0  0.93573  0.16946000000000006  0.8275  1.0000
  C   C15       1.0  0.9573300000000002  0.24085000000000004  0.8462099999999999  1.0000
  C   C16       1.0  0.88619  0.28372  0.86798  1.0000
  C   C17       1.0  0.7977100000000003  0.2568  0.8709199999999998  1.0000
  C   C18       1.0  0.051230000000000005  0.2701  0.84333  1.0000
  C   C19       1.0  0.06801  0.3467300000000001  0.84453  1.0000
  C   C20       1.0  0.15629  0.37449  0.8434  1.0000
  C   C21       1.0  0.23087000000000005  0.32649  0.8393999999999998  1.0000
  C   C22       1.0  0.21526000000000006  0.25011000000000005  0.83713  1.0000
  C   C23       1.0  0.12702000000000002  0.22252000000000002  0.83977  1.0000
  C   C24       1.0  0.3266000000000001  0.3541  0.83792  1.0000
  C   C25       1.0  0.4251500000000001  0.13601  0.9247299999999999  1.0000
  C   C26       1.0  0.3695200000000001  0.1371  0.9748199999999999  1.0000
  C   C27       1.0  0.3517300000000001  0.07126  0.00237  1.0000
  C   C28       1.0  0.30057  0.07166  0.04912  1.0000
  C   C29       1.0  0.26684000000000013  0.1382  0.07045  1.0000
  C   C30       1.0  0.28499  0.20417  0.04256  1.0000
  C   C31       1.0  0.33484  0.20364  0.99508  1.0000
  C   C32       1.0  0.21533  0.13714000000000007  0.12117999999999998  1.0000
  C   C33       1.0  0.16143  0.07552000000000003  0.13441  1.0000
  C   C34       1.0  0.11653000000000002  0.07179  0.18321  1.0000
  C   C35       1.0  0.12433000000000002  0.12933000000000006  0.2205  1.0000
  C   C36       1.0  0.17581000000000005  0.19188  0.20722  1.0000
  C   C37       1.0  0.22042  0.19574  0.15812  1.0000
  C   C38       1.0  0.07917000000000003  0.12316000000000002  0.27378  1.0000
  C   C39       1.0  0.4571800000000001  0.14139  0.76331  1.0000
  C   C40       1.0  0.39642  0.14275  0.71548  1.0000
  C   C41       1.0  0.33735  0.08351000000000003  0.70557  1.0000
  C   C42       1.0  0.2815200000000001  0.0836  0.66071  1.0000
  C   C43       1.0  0.2845600000000001  0.14221000000000003  0.6237  1.0000
  C   C44       1.0  0.3433700000000001  0.20185  0.63431  1.0000
  C   C45       1.0  0.39799  0.20257  0.67991  1.0000
  C   C46       1.0  0.22779000000000005  0.13935  0.57499  1.0000
  C   C47       1.0  0.20215000000000005  0.07064000000000002  0.55326  1.0000
  C   C48       1.0  0.14722000000000005  0.0667  0.5081  1.0000
  C   C49       1.0  0.11560000000000002  0.13134  0.48342  1.0000
  C   C50       1.0  0.14216000000000004  0.2001  0.50392  1.0000
  C   C51       1.0  0.19761000000000004  0.20391  0.54902  1.0000
  C   C52       1.0  0.054  0.12742000000000006  0.43614  1.0000
  C   C53       1.0  0.0021599999999999996  0.5853000000000003  0.39393999999999996  1.0000
  C   C54       1.0  0.9905  0.6612400000000002  0.39508  1.0000
  C   C55       1.0  0.009290000000000003  0.7025900000000003  0.34901  1.0000
  C   C56       1.0  0.04023  0.6649700000000002  0.30346  1.0000
  C   C57       1.0  0.051290000000000016  0.5889  0.30576  1.0000
  C   C58       1.0  0.008260000000000002  0.90095  0.3932999999999999  1.0000
  C   C59       1.0  0.02004  0.8250300000000003  0.39442  1.0000
  C   C60       1.0  0.9972500000000002  0.78331  0.34909  1.0000
  C   C61       1.0  0.9624600000000002  0.82058  0.30434  1.0000
  C   C62       1.0  0.95244  0.8967300000000002  0.30648  1.0000
  C   C63       1.0  0.18289000000000002  0.34359  0.35740999999999995  1.0000
  C   C64       1.0  0.27744000000000013  0.3144400000000001  0.3526999999999999  1.0000
  C   C65       1.0  0.3471800000000001  0.35777000000000003  0.33081  1.0000
  C   C66       1.0  0.43555  0.3304500000000001  0.32755  1.0000
  C   C67       1.0  0.4573000000000001  0.25909  0.34626  1.0000
  C   C68       1.0  0.3862600000000001  0.21617000000000003  0.36801  1.0000
  C   C69       1.0  0.2977100000000001  0.24304  0.37091999999999997  1.0000
  C   C70       1.0  0.55126  0.22991  0.34337  1.0000
  C   C71       1.0  0.5681800000000001  0.1533  0.34453  1.0000
  C   C72       1.0  0.6565100000000003  0.12559000000000006  0.34331  1.0000
  C   C73       1.0  0.7309300000000002  0.17366  0.33914999999999995  1.0000
  C   C74       1.0  0.7152000000000002  0.2500300000000001  0.33704  1.0000
  C   C75       1.0  0.62691  0.27757  0.33982  1.0000
  C   C76       1.0  0.8266400000000003  0.14600000000000005  0.33724  1.0000
  C   C77       1.0  0.92542  0.3638900000000001  0.42462  1.0000
  C   C78       1.0  0.8697100000000002  0.3628400000000001  0.47464  1.0000
  C   C79       1.0  0.8519300000000002  0.42874  0.50217  1.0000
  C   C80       1.0  0.8007700000000002  0.42844000000000004  0.54889  1.0000
  C   C81       1.0  0.7670100000000002  0.36196  0.57018  1.0000
  C   C82       1.0  0.78513  0.29594  0.54232  1.0000
  C   C83       1.0  0.835  0.29634  0.49487  1.0000
  C   C84       1.0  0.71548  0.36302  0.62085  1.0000
  C   C85       1.0  0.6615400000000002  0.42466  0.63414  1.0000
  C   C86       1.0  0.61646  0.42825  0.6829099999999999  1.0000
  C   C87       1.0  0.6241900000000001  0.37049  0.72004  1.0000
  C   C88       1.0  0.6757700000000002  0.30798  0.7066799999999999  1.0000
  C   C89       1.0  0.7206100000000002  0.30431  0.65766  1.0000
  C   C90       1.0  0.57908  0.3761  0.7733899999999999  1.0000
  C   C91       1.0  0.9562800000000002  0.35757  0.26342  1.0000
  C   C92       1.0  0.8957500000000003  0.3565800000000001  0.21554  1.0000
  C   C93       1.0  0.8369  0.41605  0.20565  1.0000
  C   C94       1.0  0.7814400000000002  0.41624000000000005  0.16064  1.0000
  C   C95       1.0  0.7845700000000002  0.35773  0.12356  1.0000
  C   C96       1.0  0.8433  0.29797  0.13414  1.0000
  C   C97       1.0  0.8976200000000001  0.29697  0.17983  1.0000
  C   C98       1.0  0.72782  0.3607100000000001  0.07485  1.0000
  C   C99       1.0  0.7021200000000001  0.4294200000000001  0.05314  1.0000
  C   C100      1.0  0.6471200000000003  0.43342000000000014  0.00801  1.0000
  C   C101      1.0  0.6155200000000002  0.36886000000000013  0.98327  1.0000
  C   C102      1.0  0.6420300000000002  0.3000400000000001  0.00382  1.0000
  C   C103      1.0  0.69753  0.29619  0.04889  1.0000
  C   C104      1.0  0.55413  0.37272  0.93585  1.0000
  C   C105      1.0  0.9978400000000001  0.41469  0.60606  1.0000
  C   C106      1.0  0.009500000000000001  0.3387500000000001  0.60492  1.0000
  C   C107      1.0  0.9907200000000003  0.29741  0.65099  1.0000
  C   C108      1.0  0.9597700000000002  0.33503  0.69654  1.0000
  C   C109      1.0  0.94872  0.41109  0.6942399999999999  1.0000
  C   C110      1.0  0.99174  0.09904000000000002  0.6067  1.0000
  C   C111      1.0  0.9799700000000002  0.17496  0.60558  1.0000
  C   C112      1.0  0.0027600000000000003  0.21668  0.6509099999999999  1.0000
  C   C113      1.0  0.03754000000000001  0.17942000000000005  0.69566  1.0000
  C   C114      1.0  0.04756000000000001  0.10326  0.69352  1.0000
  C   C115      1.0  0.81712  0.6564  0.64259  1.0000
  C   C116      1.0  0.7225700000000003  0.68556  0.6473  1.0000
  C   C117      1.0  0.65283  0.6422200000000002  0.66919  1.0000
  C   C118      1.0  0.5644600000000001  0.6695500000000002  0.67245  1.0000
  C   C119      1.0  0.5427100000000001  0.7409  0.65374  1.0000
  C   C120      1.0  0.6137500000000002  0.78382  0.63199  1.0000
  C   C121      1.0  0.7023  0.75696  0.62908  1.0000
  C   C122      1.0  0.4487500000000001  0.7700800000000002  0.6566299999999999  1.0000
  C   C123      1.0  0.4318200000000001  0.8467  0.65547  1.0000
  C   C124      1.0  0.3434900000000001  0.87441  0.65669  1.0000
  C   C125      1.0  0.26908  0.8263400000000002  0.66085  1.0000
  C   C126      1.0  0.2848  0.74997  0.6629599999999999  1.0000
  C   C127      1.0  0.3731000000000001  0.7224300000000002  0.66018  1.0000
  C   C128      1.0  0.17336000000000001  0.8540000000000002  0.66276  1.0000
  C   C129      1.0  0.07458000000000001  0.6361  0.57538  1.0000
  C   C130      1.0  0.13030000000000003  0.6371500000000001  0.52536  1.0000
  C   C131      1.0  0.14808  0.57125  0.49783  1.0000
  C   C132      1.0  0.19924  0.57156  0.45110999999999996  1.0000
  C   C133      1.0  0.23300000000000007  0.63804  0.4298199999999999  1.0000
  C   C134      1.0  0.21487000000000006  0.70405  0.4576799999999999  1.0000
  C   C135      1.0  0.16501000000000005  0.7036600000000001  0.50513  1.0000
  C   C136      1.0  0.2845200000000001  0.63697  0.37915  1.0000
  C   C137      1.0  0.3384700000000001  0.57533  0.36586  1.0000
  C   C138      1.0  0.3835400000000001  0.57175  0.31709  1.0000
  C   C139      1.0  0.3758100000000001  0.6295000000000001  0.27996  1.0000
  C   C140      1.0  0.3242400000000001  0.6920100000000002  0.29332  1.0000
  C   C141      1.0  0.2794000000000001  0.69568  0.3423399999999999  1.0000
  C   C142      1.0  0.4209200000000001  0.62389  0.22661  1.0000
  C   C143      1.0  0.04373  0.64243  0.7365799999999999  1.0000
  C   C144      1.0  0.10425000000000002  0.64341  0.78446  1.0000
  C   C145      1.0  0.16311  0.58395  0.79435  1.0000
  C   C146      1.0  0.21857000000000004  0.58375  0.83936  1.0000
  C   C147      1.0  0.21543000000000004  0.64227  0.87644  1.0000
  C   C148      1.0  0.15671  0.70202  0.86586  1.0000
  C   C149      1.0  0.10238000000000003  0.7030200000000001  0.82017  1.0000
  C   C150      1.0  0.2721900000000001  0.6392900000000002  0.92515  1.0000
  C   C151      1.0  0.29789  0.57057  0.94686  1.0000
  C   C152      1.0  0.35289000000000004  0.5665800000000002  0.99199  1.0000
  C   C153      1.0  0.3844900000000001  0.6311400000000001  0.01673  1.0000
  C   C154      1.0  0.35798  0.6999500000000002  0.9961799999999997  1.0000
  C   C155      1.0  0.3024700000000001  0.7038  0.95111  1.0000
  C   C156      1.0  0.44587  0.6272700000000002  0.06415  1.0000
  C   C157      1.0  0.4977800000000001  0.08528000000000002  0.10595  1.0000
  C   C158      1.0  0.50953  0.16120000000000004  0.1049  1.0000
  C   C159      1.0  0.49070000000000014  0.20249  0.151  1.0000
  C   C160      1.0  0.45977  0.16484  0.19652  1.0000
  C   C161      1.0  0.4486600000000001  0.08879  0.19411  1.0000
  C   C162      1.0  0.4918000000000001  0.40085  0.10676  1.0000
  C   C163      1.0  0.4800000000000001  0.3249400000000001  0.10562  1.0000
  C   C164      1.0  0.5027600000000001  0.2832  0.15097  1.0000
  C   C165      1.0  0.5375500000000001  0.32041  0.19574  1.0000
  C   C166      1.0  0.54761  0.39655  0.1936  1.0000
  C   C167      1.0  0.3169700000000001  0.84367  0.14252  1.0000
  C   C168      1.0  0.22243000000000002  0.8146000000000001  0.1473  1.0000
  C   C169      1.0  0.1526  0.8579000000000002  0.16922  1.0000
  C   C170      1.0  0.06427  0.8305300000000001  0.1725  1.0000
  C   C171      1.0  0.04268000000000002  0.7591400000000001  0.15379  1.0000
  C   C172      1.0  0.11382000000000003  0.71628  0.13202  1.0000
  C   C173      1.0  0.20229  0.7432000000000001  0.12908  1.0000
  C   C174      1.0  0.9487700000000002  0.7298900000000003  0.15667  1.0000
  C   C175      1.0  0.9320000000000003  0.6532700000000001  0.15547  1.0000
  C   C176      1.0  0.8437200000000002  0.6255  0.1566  1.0000
  C   C177      1.0  0.7691300000000002  0.67351  0.1606  1.0000
  C   C178      1.0  0.78474  0.7498800000000002  0.16287  1.0000
  C   C179      1.0  0.8729900000000003  0.77747  0.16023  1.0000
  C   C180      1.0  0.6734100000000002  0.64589  0.16208  1.0000
  C   C181      1.0  0.5748500000000002  0.86399  0.07527  1.0000
  C   C182      1.0  0.6304800000000003  0.86289  0.02518  1.0000
  C   C183      1.0  0.6482800000000002  0.9287400000000001  0.99763  1.0000
  C   C184      1.0  0.69943  0.9283400000000002  0.95088  1.0000
  C   C185      1.0  0.73317  0.8618000000000002  0.92955  1.0000
  C   C186      1.0  0.7150100000000003  0.79583  0.95744  1.0000
  C   C187      1.0  0.66516  0.79635  0.00492  1.0000
  C   C188      1.0  0.7846700000000002  0.86285  0.87882  1.0000
  C   C189      1.0  0.8385700000000003  0.92448  0.86559  1.0000
  C   C190      1.0  0.8834700000000002  0.9282  0.8167899999999999  1.0000
  C   C191      1.0  0.87568  0.87066  0.7794999999999999  1.0000
  C   C192      1.0  0.8242000000000003  0.8081200000000002  0.7927799999999999  1.0000
  C   C193      1.0  0.77959  0.80426  0.84188  1.0000
  C   C194      1.0  0.9208400000000002  0.87683  0.7262199999999999  1.0000
  C   C195      1.0  0.54283  0.8586  0.23669  1.0000
  C   C196      1.0  0.6035800000000002  0.8572500000000002  0.28452  1.0000
  C   C197      1.0  0.6626600000000002  0.9164800000000001  0.29443  1.0000
  C   C198      1.0  0.7184800000000002  0.9163900000000001  0.33929  1.0000
  C   C199      1.0  0.7154500000000003  0.85778  0.3763  1.0000
  C   C200      1.0  0.6566400000000002  0.79814  0.36569  1.0000
  C   C201      1.0  0.6020200000000002  0.79743  0.32009  1.0000
  C   C202      1.0  0.77222  0.8606400000000002  0.42501  1.0000
  C   C203      1.0  0.79786  0.92935  0.44674  1.0000
  C   C204      1.0  0.8527900000000003  0.9332900000000001  0.4919  1.0000
  C   C205      1.0  0.8844000000000002  0.86866  0.51658  1.0000
  C   C206      1.0  0.8578400000000003  0.79989  0.49608  1.0000
  C   C207      1.0  0.8024000000000002  0.7960800000000002  0.45098  1.0000
  C   C208      1.0  0.9460100000000002  0.87257  0.56386  1.0000
  N   N1        1.0  0.53255  0.95053  0.8503  1.0000
  N   N2        1.0  0.47504000000000013  0.5636500000000001  0.8499799999999998  1.0000
  N   N3        1.0  0.03238  0.5495000000000001  0.35011  1.0000
  N   N4        1.0  0.9750800000000002  0.9365000000000001  0.35007  1.0000
  N   N5        1.0  0.9676300000000002  0.4505  0.64989  1.0000
  N   N6        1.0  0.024930000000000008  0.06349  0.64993  1.0000
  N   N7        1.0  0.4674600000000001  0.04946000000000001  0.1497  1.0000
  N   N8        1.0  0.52497  0.4363500000000001  0.15002  1.0000
  O   O1        1.0  0.6688000000000002  0.08941  0.84141  1.0000
  O   O2        1.0  0.6221000000000002  0.19662000000000004  0.87808  1.0000
  O   O3        1.0  0.34054  0.42206  0.85217  1.0000
  O   O4        1.0  0.3881900000000001  0.31087  0.82245  1.0000
  O   O5        1.0  0.4770200000000001  0.07892  0.9189599999999999  1.0000
  O   O6        1.0  0.4172900000000001  0.18847  0.8918599999999999  1.0000
  O   O7        1.0  0.027190000000000006  0.0665  0.28024  1.0000
  O   O8        1.0  0.09568000000000002  0.17101  0.30942  1.0000
  O   O9        1.0  0.4617100000000001  0.07898  0.78803  1.0000
  O   O10       1.0  0.5002900000000002  0.19926000000000005  0.7758299999999998  1.0000
  O   O11       1.0  0.044900000000000016  0.06292  0.41486  1.0000
  O   O12       1.0  0.01366  0.18521  0.42084  1.0000
  O   O13       1.0  0.16860000000000006  0.41049000000000013  0.34127  1.0000
  O   O14       1.0  0.12199000000000003  0.3033800000000001  0.37805999999999995  1.0000
  O   O15       1.0  0.84068  0.0783  0.35215  1.0000
  O   O16       1.0  0.8878300000000001  0.18895  0.32082  1.0000
  O   O17       1.0  0.97718  0.42098000000000013  0.4189  1.0000
  O   O18       1.0  0.91759  0.31141  0.39175  1.0000
  O   O19       1.0  0.5274000000000001  0.43295  0.78022  1.0000
  O   O20       1.0  0.59559  0.32742  0.80847  1.0000
  O   O21       1.0  0.9594800000000002  0.41949000000000003  0.28869  1.0000
  O   O22       1.0  0.0004800000000000002  0.30001  0.27547  1.0000
  O   O23       1.0  0.5453600000000002  0.4370000000000001  0.91412  1.0000
  O   O24       1.0  0.51371  0.3149  0.92081  1.0000
  O   O25       1.0  0.8314100000000002  0.5895000000000001  0.65873  1.0000
  O   O26       1.0  0.8780200000000002  0.69662  0.62194  1.0000
  O   O27       1.0  0.15932  0.9216900000000001  0.64785  1.0000
  O   O28       1.0  0.11217000000000002  0.8110400000000002  0.67918  1.0000
  O   O29       1.0  0.02283  0.57901  0.5811  1.0000
  O   O30       1.0  0.08241  0.6885900000000003  0.60825  1.0000
  O   O31       1.0  0.4726100000000001  0.56705  0.21978  1.0000
  O   O32       1.0  0.40442  0.67258  0.19152999999999998  1.0000
  O   O33       1.0  0.04053000000000001  0.58051  0.71131  1.0000
  O   O34       1.0  0.9995300000000001  0.6999800000000003  0.7245299999999998  1.0000
  O   O35       1.0  0.45465  0.5629900000000001  0.08588  1.0000
  O   O36       1.0  0.48630000000000023  0.68509  0.07919  1.0000
  O   O37       1.0  0.33121  0.9105800000000001  0.15859  1.0000
  O   O38       1.0  0.37791000000000013  0.8033800000000002  0.12192  1.0000
  O   O39       1.0  0.65947  0.57794  0.14783  1.0000
  O   O40       1.0  0.61182  0.68913  0.17754999999999999  1.0000
  O   O41       1.0  0.52298  0.92107  0.08104  1.0000
  O   O42       1.0  0.58272  0.8115200000000002  0.10813999999999999  1.0000
  O   O43       1.0  0.9728200000000002  0.93349  0.71976  1.0000
  O   O44       1.0  0.9043200000000002  0.82898  0.69058  1.0000
  O   O45       1.0  0.5383000000000001  0.9210100000000001  0.21196999999999996  1.0000
  O   O46       1.0  0.49972  0.80073  0.22417  1.0000
  O   O47       1.0  0.9551000000000002  0.9370800000000001  0.58514  1.0000
  O   O48       1.0  0.9863500000000002  0.8147900000000002  0.57916  1.0000
