data_image0
_chemical_formula_structural       Mn6H180C156N48O24
_chemical_formula_sum              "Mn6 H180 C156 N48 O24"
_cell_length_a       19.96475
_cell_length_b       19.966950000000004
_cell_length_c       20.313560000000003
_cell_angle_alpha    60.424
_cell_angle_beta     60.41815000000001
_cell_angle_gamma    59.89526

_symmetry_space_group_name_H-M    'P 1'
_symmetry_Int_Tables_number       1

loop_
  _symmetry_equiv_pos_as_xyz
  'x,y,z'

loop_
  _atom_site_type_symbol
  _atom_site_label
  _atom_site_symmetry_multiplicity
  _atom_site_fract_x
  _atom_site_fract_y
  _atom_site_fract_z
  _atom_site_occupancy
  Mn  Mn1       1.0  0.77158  0.72841  0.25007  1.0000
  Mn  Mn2       1.0  0.24972000000000005  0.7714599999999999  0.24989999999999998  1.0000
  Mn  Mn3       1.0  0.22842  0.27159000000000005  0.74993  1.0000
  Mn  Mn4       1.0  0.7502799999999998  0.22853999999999994  0.7501  1.0000
  Mn  Mn5       1.0  0.7286300000000002  0.24996999999999994  0.25017  1.0000
  Mn  Mn6       1.0  0.27136999999999994  0.75004  0.74983  1.0000
  H   H1        1.0  0.46575000000000016  0.9398799999999999  0.04808  1.0000
  H   H2        1.0  0.86642  0.5967  0.17473  1.0000
  H   H3        1.0  0.9615800000000002  0.8095099999999996  0.12210000000000001  1.0000
  H   H4        1.0  0.04615  0.43954999999999994  0.54867  1.0000
  H   H5        1.0  0.8382700000000001  0.03384000000000004  0.9790099999999999  1.0000
  H   H6        1.0  0.07153000000000001  0.9811199999999997  0.72086  1.0000
  H   H7        1.0  0.9284700000000001  0.018880000000000008  0.27914  1.0000
  H   H8        1.0  0.53382  0.33823  0.479  1.0000
  H   H9        1.0  0.6421600000000001  0.7524299999999998  0.51666  1.0000
  H   H10       1.0  0.58819  0.25244  0.01743  1.0000
  H   H11       1.0  0.90338  0.63356  0.32533  1.0000
  H   H12       1.0  0.36935999999999997  0.66804  0.59881  1.0000
  H   H13       1.0  0.9078100000000001  0.15192  0.23242  1.0000
  H   H14       1.0  0.22660999999999998  0.07095  0.72139  1.0000
  H   H15       1.0  0.3382699999999999  0.64873  0.47905  1.0000
  H   H16       1.0  0.30185000000000006  0.87622  0.54831  1.0000
  H   H17       1.0  0.6306400000000001  0.33195999999999987  0.40119  1.0000
  H   H18       1.0  0.43490000000000006  0.8101599999999998  0.33201  1.0000
  H   H19       1.0  0.7031300000000001  0.80458  0.42313  1.0000
  H   H20       1.0  0.10657000000000001  0.11922  0.062459999999999995  1.0000
  H   H21       1.0  0.20783  0.6521299999999998  0.73213  1.0000
  H   H22       1.0  0.5927100000000002  0.79151  0.2678  1.0000
  H   H23       1.0  0.06523000000000001  0.07653  0.1683  1.0000
  H   H24       1.0  0.8018099999999999  0.77305  0.04935  1.0000
  H   H25       1.0  0.5687199999999999  0.30442  0.92411  1.0000
  H   H26       1.0  0.5127  0.93203  0.46384  1.0000
  H   H27       1.0  0.24755000000000005  0.91173  0.48260000000000003  1.0000
  H   H28       1.0  0.8579300000000002  0.41141999999999984  0.9829400000000001  1.0000
  H   H29       1.0  0.09218999999999995  0.84809  0.76757  1.0000
  H   H30       1.0  0.4399  0.96575  0.54806  1.0000
  H   H31       1.0  0.6041699999999998  0.96033  0.95032  1.0000
  H   H32       1.0  0.64905  0.53365  0.47946  1.0000
  H   H33       1.0  0.18991000000000008  0.5768299999999998  0.6684  1.0000
  H   H34       1.0  0.0678600000000001  0.90897  0.53566  1.0000
  H   H35       1.0  0.9231699999999998  0.31013  0.8316  1.0000
  H   H36       1.0  0.61245  0.10414000000000001  0.12606  1.0000
  H   H37       1.0  0.9658200000000001  0.045879999999999976  0.5484  1.0000
  H   H38       1.0  0.06049999999999993  0.45380000000000004  0.95126  1.0000
  H   H39       1.0  0.42925  0.2732800000000001  0.77855  1.0000
  H   H40       1.0  0.09662000000000003  0.3664399999999998  0.67466  1.0000
  H   H41       1.0  0.6061  0.21184999999999998  0.56212  1.0000
  H   H42       1.0  0.03356999999999995  0.14908000000000002  0.97949  1.0000
  H   H43       1.0  0.3937400000000002  0.6901099999999999  0.3774  1.0000
  H   H44       1.0  0.6676400000000007  0.36424  0.59849  1.0000
  H   H45       1.0  0.19819000000000003  0.22694999999999999  0.95065  1.0000
  H   H46       1.0  0.9115000000000002  0.3578899999999999  0.4829  1.0000
  H   H47       1.0  0.8875  0.34258000000000005  0.37356  1.0000
  H   H48       1.0  0.5764700000000001  0.5652599999999999  0.66832  1.0000
  H   H49       1.0  0.6905200000000001  0.53846  0.37786  1.0000
  H   H50       1.0  0.03841999999999997  0.19049000000000005  0.8779  1.0000
  H   H51       1.0  0.3323600000000002  0.6357599999999998  0.40151  1.0000
  H   H52       1.0  0.19014999999999996  0.8937199999999998  0.87734  1.0000
  H   H53       1.0  0.28812999999999994  0.8939299999999999  0.93789  1.0000
  H   H54       1.0  0.42353000000000024  0.43473999999999985  0.33168  1.0000
  H   H55       1.0  0.1125  0.65742  0.62644  1.0000
  H   H56       1.0  0.59725  0.36313  0.17387  1.0000
  H   H57       1.0  0.9395099999999997  0.5462  0.04874  1.0000
  H   H58       1.0  0.3102  0.9348600000000002  0.83201  1.0000
  H   H59       1.0  0.8697499999999998  0.86407  0.09827  1.0000
  H   H60       1.0  0.62378  0.19814999999999997  0.95166  1.0000
  H   H61       1.0  0.1521  0.70771  0.23215  1.0000
  H   H62       1.0  0.75245  0.08827999999999997  0.51739  1.0000
  H   H63       1.0  0.10393999999999998  0.98573  0.44975  1.0000
  H   H64       1.0  0.16798999999999997  0.86941  0.09877  1.0000
  H   H65       1.0  0.8758600000000001  0.27332999999999996  0.549  1.0000
  H   H66       1.0  0.7881900000000001  0.38043  0.43749  1.0000
  H   H67       1.0  0.98765  0.4086599999999999  0.0356  1.0000
  H   H68       1.0  0.30947999999999987  0.46154000000000006  0.62214  1.0000
  H   H69       1.0  0.9347700000000002  0.9234699999999999  0.8317  1.0000
  H   H70       1.0  0.6041199999999999  0.11249000000000002  0.62606  1.0000
  H   H71       1.0  0.43204  0.01265000000000001  0.96388  1.0000
  H   H72       1.0  0.38074  0.3935199999999999  0.43751  1.0000
  H   H73       1.0  0.36222000000000004  0.86637  0.17428  1.0000
  H   H74       1.0  0.6062600000000002  0.30988999999999994  0.6226  1.0000
  H   H75       1.0  0.4612000000000001  0.6063199999999999  0.62273  1.0000
  H   H76       1.0  0.40729000000000004  0.20849  0.7322  1.0000
  H   H77       1.0  0.63599  0.63027  0.40172  1.0000
  H   H78       1.0  0.71187  0.10607  0.0621  1.0000
  H   H79       1.0  0.5387999999999998  0.3936799999999999  0.37727  1.0000
  H   H80       1.0  0.5143  0.39607  0.05025  1.0000
  H   H81       1.0  0.8629200000000002  0.09718  0.67394  1.0000
  H   H82       1.0  0.95385  0.56045  0.45132  1.0000
  H   H83       1.0  0.6335800000000001  0.13756000000000002  0.32583  1.0000
  H   H84       1.0  0.77339  0.92906  0.27861  1.0000
  H   H85       1.0  0.35784000000000005  0.24756999999999993  0.48334000000000005  1.0000
  H   H86       1.0  0.59111  0.4320899999999999  0.96435  1.0000
  H   H87       1.0  0.83201  0.13058999999999998  0.90123  1.0000
  H   H88       1.0  0.4541200000000003  0.53418  0.95159  1.0000
  H   H89       1.0  0.8044399999999999  0.06870999999999998  0.42411  1.0000
  H   H90       1.0  0.43128000000000016  0.69558  0.07589  1.0000
  H   H91       1.0  0.1955600000000001  0.93129  0.57589  1.0000
  H   H92       1.0  0.10627  0.96124  0.12272  1.0000
  H   H93       1.0  0.39582999999999996  0.03966999999999999  0.04968  1.0000
  H   H94       1.0  0.9312700000000003  0.2967699999999998  0.57608  1.0000
  H   H95       1.0  0.13024999999999995  0.13594000000000003  0.90173  1.0000
  H   H96       1.0  0.3938999999999999  0.7881500000000001  0.43788  1.0000
  H   H97       1.0  0.5651000000000003  0.18984999999999996  0.66799  1.0000
  H   H98       1.0  0.4873000000000001  0.06796999999999999  0.53616  1.0000
  H   H99       1.0  0.66173  0.35127  0.52095  1.0000
  H   H100      1.0  0.46032000000000006  0.10416999999999998  0.45037  1.0000
  H   H101      1.0  0.25239000000000006  0.14219  0.01665  1.0000
  H   H102      1.0  0.80985  0.10628999999999998  0.12266  1.0000
  H   H103      1.0  0.0687400000000001  0.7032399999999999  0.42392  1.0000
  H   H104      1.0  0.8957400000000001  0.8431199999999999  0.87386  1.0000
  H   H105      1.0  0.20322  0.56881  0.92389  1.0000
  H   H106      1.0  0.41181  0.7475600000000001  0.9825699999999999  1.0000
  H   H107      1.0  0.38754999999999995  0.8958700000000002  0.87394  1.0000
  H   H108      1.0  0.63778  0.13363  0.82572  1.0000
  H   H109      1.0  0.46618  0.66177  0.521  1.0000
  H   H110      1.0  0.5707500000000001  0.72673  0.22145  1.0000
  H   H111      1.0  0.39587999999999995  0.88751  0.37394  1.0000
  H   H112      1.0  0.2915400000000002  0.09261  0.76785  1.0000
  H   H113      1.0  0.8479  0.2923  0.76785  1.0000
  H   H114      1.0  0.3481500000000001  0.5922599999999998  0.2676  1.0000
  H   H115      1.0  0.40275000000000005  0.63687  0.82613  1.0000
  H   H116      1.0  0.4813099999999998  0.57136  0.22083  1.0000
  H   H117      1.0  0.15743999999999994  0.61246  0.12639  1.0000
  H   H118      1.0  0.89373  0.03876999999999998  0.87728  1.0000
  H   H119      1.0  0.03418  0.95412  0.4516  1.0000
  H   H120      1.0  0.79217  0.34787000000000007  0.26787  1.0000
  H   H121      1.0  0.2732300000000001  0.5188399999999997  0.77882  1.0000
  H   H122      1.0  0.11959000000000004  0.71174  0.0625  1.0000
  H   H123      1.0  0.30459000000000014  0.20310000000000003  0.92313  1.0000
  H   H124      1.0  0.22669  0.6241400000000001  0.95101  1.0000
  H   H125      1.0  0.72677  0.48116000000000003  0.22118  1.0000
  H   H126      1.0  0.7476100000000002  0.8578100000000001  0.9833399999999999  1.0000
  H   H127      1.0  0.10426000000000005  0.15688  0.12614  1.0000
  H   H128      1.0  0.86421  0.16766  0.09853  1.0000
  H   H129      1.0  0.88041  0.28827  0.9375  1.0000
  H   H130      1.0  0.3509500000000001  0.46635  0.52054  1.0000
  H   H131      1.0  0.8100899999999998  0.42317  0.3316  1.0000
  H   H132      1.0  0.5601000000000002  0.03425000000000002  0.45193  1.0000
  H   H133      1.0  0.9858300000000001  0.46053999999999995  0.44997  1.0000
  H   H134      1.0  0.019040000000000015  0.77336  0.27892  1.0000
  H   H135      1.0  0.1617300000000001  0.9661599999999999  0.02099  1.0000
  H   H136      1.0  0.3762200000000001  0.80185  0.04834  1.0000
  H   H137      1.0  0.2968700000000001  0.19542  0.57687  1.0000
  H   H138      1.0  0.6954100000000002  0.7969  0.07687  1.0000
  H   H139      1.0  0.8934299999999994  0.88078  0.93754  1.0000
  H   H140      1.0  0.07683000000000004  0.68987  0.16839  1.0000
  H   H141      1.0  0.03945000000000004  0.51418  0.05005  1.0000
  H   H142      1.0  0.5458800000000005  0.46583  0.0484  1.0000
  H   H143      1.0  0.5679600000000001  0.9873599999999999  0.03612  1.0000
  H   H144      1.0  0.1357899999999998  0.8323400000000001  0.90147  1.0000
  H   H145      1.0  0.08849999999999994  0.64211  0.5171  1.0000
  H   H146      1.0  0.13707999999999998  0.90282  0.32606  1.0000
  H   H147      1.0  0.14206999999999997  0.58858  0.01706  1.0000
  H   H148      1.0  0.09135000000000001  0.51234  0.46434  1.0000
  H   H149      1.0  0.9664300000000002  0.8509199999999998  0.02051  1.0000
  H   H150      1.0  0.36642000000000036  0.8624499999999999  0.67417  1.0000
  H   H151      1.0  0.6518500000000006  0.40774  0.7324  1.0000
  H   H152      1.0  0.93214  0.09104  0.46434  1.0000
  H   H153      1.0  0.6981499999999999  0.12378000000000003  0.45169  1.0000
  H   H154      1.0  0.9809600000000002  0.22663999999999995  0.72108  1.0000
  H   H155      1.0  0.36401  0.36973  0.59828  1.0000
  H   H156      1.0  0.6192600000000001  0.6064899999999999  0.56248  1.0000
  H   H157      1.0  0.53968  0.89583  0.54963  1.0000
  H   H158      1.0  0.21180999999999994  0.61957  0.56251  1.0000
  H   H159      1.0  0.7269700000000001  0.6982300000000001  0.45064  1.0000
  H   H160      1.0  0.012350000000000088  0.59134  0.9643999999999999  1.0000
  H   H161      1.0  0.5186900000000002  0.42864  0.7791699999999999  1.0000
  H   H162      1.0  0.6569099999999999  0.6042199999999999  0.62614  1.0000
  H   H163      1.0  0.8513300000000001  0.16167  0.02097  1.0000
  H   H164      1.0  0.4857000000000003  0.6039300000000001  0.94975  1.0000
  H   H165      1.0  0.12413999999999999  0.72668  0.451  1.0000
  H   H166      1.0  0.5342600000000001  0.06013000000000001  0.95192  1.0000
  H   H167      1.0  0.34309  0.39578  0.37386  1.0000
  H   H168      1.0  0.7967799999999999  0.43119  0.07611  1.0000
  H   H169      1.0  0.014170000000000089  0.5394599999999999  0.55002  1.0000
  H   H170      1.0  0.90865  0.48766999999999994  0.53565  1.0000
  H   H171      1.0  0.13358000000000012  0.4032999999999998  0.82527  1.0000
  H   H172      1.0  0.8960600000000001  0.014269999999999998  0.55024  1.0000
  H   H173      1.0  0.77331  0.37586999999999987  0.04899  1.0000
  H   H174      1.0  0.6898  0.06514000000000002  0.16799  1.0000
  H   H175      1.0  0.40889000000000003  0.56791  0.03565  1.0000
  H   H176      1.0  0.14867  0.83833  0.9790199999999999  1.0000
  H   H177      1.0  0.9605500000000001  0.4858199999999999  0.94995  1.0000
  H   H178      1.0  0.70847  0.9073899999999999  0.23213999999999996  1.0000
  H   H179      1.0  0.27303000000000005  0.30177  0.54936  1.0000
  H   H180      1.0  0.84256  0.38754999999999995  0.87361  1.0000
  C   C1        1.0  0.08080999999999997  0.029170000000000036  0.72277  1.0000
  C   C2        1.0  0.7642300000000001  0.06664  0.91276  1.0000
  C   C3        1.0  0.2126900000000002  0.7961399999999996  0.47132  1.0000
  C   C4        1.0  0.7437000000000002  0.82401  0.04641  1.0000
  C   C5        1.0  0.58022  0.6674399999999999  0.2232  1.0000
  C   C6        1.0  0.41977999999999993  0.33255999999999997  0.77679  1.0000
  C   C7        1.0  0.30768000000000006  0.7269699999999999  0.08513  1.0000
  C   C8        1.0  0.7682100000000001  0.46543  0.55247  1.0000
  C   C9        1.0  0.2996599999999999  0.012160000000000025  0.88522  1.0000
  C   C10       1.0  0.5122100000000003  0.7996300000000001  0.3852  1.0000
  C   C11       1.0  0.8437200000000001  0.9834  0.27707  1.0000
  C   C12       1.0  0.32124  0.43239  0.58184  1.0000
  C   C13       1.0  0.43043000000000003  0.8219899999999998  0.38167  1.0000
  C   C14       1.0  0.5678200000000003  0.33579  0.41775  1.0000
  C   C15       1.0  0.74369  0.23585999999999996  0.08734  1.0000
  C   C16       1.0  0.36638  0.43023  0.38149  1.0000
  C   C17       1.0  0.01687000000000006  0.10427999999999994  0.72285  1.0000
  C   C18       1.0  0.11396  0.67585  0.45402  1.0000
  C   C19       1.0  0.24375999999999998  0.8862299999999999  0.54559  1.0000
  C   C20       1.0  0.3436600000000002  0.9603999999999999  0.06282  1.0000
  C   C21       1.0  0.65585  0.60432  0.22332  1.0000
  C   C22       1.0  0.32400000000000007  0.24367999999999995  0.5464  1.0000
  C   C23       1.0  0.019940000000000076  0.29618000000000005  0.9714499999999999  1.0000
  C   C24       1.0  0.98313  0.8957199999999998  0.27715  1.0000
  C   C25       1.0  0.2641400000000001  0.7563  0.41268  1.0000
  C   C26       1.0  0.46526999999999996  0.21389999999999998  0.55261  1.0000
  C   C27       1.0  0.7267700000000001  0.88001  0.08571  1.0000
  C   C28       1.0  0.82191  0.36604999999999993  0.38146  1.0000
  C   C29       1.0  0.1198800000000002  0.6924399999999999  0.91444  1.0000
  C   C30       1.0  0.7739800000000002  0.06296  0.28036  1.0000
  C   C31       1.0  0.5347299999999999  0.7861000000000001  0.44739  1.0000
  C   C32       1.0  0.73169  0.28576  0.94785  1.0000
  C   C33       1.0  0.77308  0.19229000000000002  0.41485  1.0000
  C   C34       1.0  0.13396000000000002  0.67803  0.11853  1.0000
  C   C35       1.0  0.08679999999999997  0.9325  0.47002  1.0000
  C   C36       1.0  0.89584  0.8440799999999999  0.27668  1.0000
  C   C37       1.0  0.29615  0.7127199999999999  0.97129  1.0000
  C   C38       1.0  0.7138800000000001  0.9652899999999999  0.05261  1.0000
  C   C39       1.0  0.3955600000000001  0.48315000000000013  0.77719  1.0000
  C   C40       1.0  0.61772  0.43733999999999995  0.21949  1.0000
  C   C41       1.0  0.43246999999999997  0.5868000000000001  0.97001  1.0000
  C   C42       1.0  0.6779800000000001  0.0696  0.11832  1.0000
  C   C43       1.0  0.11722000000000002  0.22527000000000003  0.72066  1.0000
  C   C44       1.0  0.1969900000000001  0.7006099999999998  0.1145  1.0000
  C   C45       1.0  0.9301999999999999  0.86636  0.88154  1.0000
  C   C46       1.0  0.91919  0.9708299999999999  0.2772299999999999  1.0000
  C   C47       1.0  0.47072  0.41928000000000004  0.77722  1.0000
  C   C48       1.0  0.2874700000000001  0.98014  0.02836  1.0000
  C   C49       1.0  0.7358600000000001  0.24370000000000003  0.58731  1.0000
  C   C50       1.0  0.61376  0.25620999999999994  0.95443  1.0000
  C   C51       1.0  0.48352999999999996  0.34380000000000005  0.77693  1.0000
  C   C52       1.0  0.32202000000000014  0.9303999999999999  0.88168  1.0000
  C   C53       1.0  0.02917000000000007  0.16732999999999998  0.72299  1.0000
  C   C54       1.0  0.6923200000000002  0.27303  0.91486  1.0000
  C   C55       1.0  0.62002  0.7732300000000001  0.41429  1.0000
  C   C56       1.0  0.27323  0.12000000000000002  0.91429  1.0000
  C   C57       1.0  0.7125300000000002  0.019860000000000027  0.97164  1.0000
  C   C58       1.0  0.13269999999999996  0.46043999999999996  0.56318  1.0000
  C   C59       1.0  0.63294  0.34376  0.06308  1.0000
  C   C60       1.0  0.51056  0.08685  0.47049  1.0000
  C   C61       1.0  0.33261000000000035  0.47073999999999994  0.77699  1.0000
  C   C62       1.0  0.4877900000000001  0.20037  0.6148  1.0000
  C   C63       1.0  0.7562400000000001  0.11376999999999998  0.45441  1.0000
  C   C64       1.0  0.79934  0.30302  0.38549  1.0000
  C   C65       1.0  0.20065999999999992  0.6969799999999999  0.61451  1.0000
  C   C66       1.0  0.88278  0.77473  0.27934  1.0000
  C   C67       1.0  0.8241500000000002  0.38599  0.046  1.0000
  C   C68       1.0  0.25631000000000004  0.7641399999999999  0.91266  1.0000
  C   C69       1.0  0.9131999999999999  0.06749999999999999  0.52998  1.0000
  C   C70       1.0  0.22692000000000012  0.80771  0.58515  1.0000
  C   C71       1.0  0.2746900000000001  0.38264999999999993  0.77945  1.0000
  C   C72       1.0  0.56753  0.41321  0.029989999999999996  1.0000
  C   C73       1.0  0.38624  0.74379  0.04557  1.0000
  C   C74       1.0  0.56957  0.17801000000000003  0.61832  1.0000
  C   C75       1.0  0.16734000000000013  0.08036999999999997  0.72316  1.0000
  C   C76       1.0  0.2563000000000001  0.17598999999999995  0.95359  1.0000
  C   C77       1.0  0.52928  0.58072  0.22278  1.0000
  C   C78       1.0  0.24343000000000015  0.43323999999999985  0.58726  1.0000
  C   C79       1.0  0.0698  0.13364  0.11846  1.0000
  C   C80       1.0  0.56667  0.26419999999999993  0.41272  1.0000
  C   C81       1.0  0.30325  0.51197  0.3853  1.0000
  C   C82       1.0  0.6967500000000001  0.48803  0.6147  1.0000
  C   C83       1.0  0.72532  0.61735  0.22055  1.0000
  C   C84       1.0  0.9604200000000002  0.63274  0.06323  1.0000
  C   C85       1.0  0.7038500000000002  0.2872799999999999  0.02871  1.0000
  C   C86       1.0  0.43665000000000004  0.7256399999999997  0.22006  1.0000
  C   C87       1.0  0.48944000000000004  0.9131499999999997  0.5295  1.0000
  C   C88       1.0  0.3670600000000001  0.6562499999999998  0.93692  1.0000
  C   C89       1.0  0.06679  0.25650000000000006  0.91274  1.0000
  C   C90       1.0  0.28612  0.03471  0.94739  1.0000
  C   C91       1.0  0.8326600000000002  0.9196399999999999  0.27684  1.0000
  C   C92       1.0  0.43218000000000023  0.6642199999999998  0.58225  1.0000
  C   C93       1.0  0.9892000000000002  0.56759  0.030059999999999996  1.0000
  C   C94       1.0  0.4333300000000001  0.73581  0.58728  1.0000
  C   C95       1.0  0.23179  0.5345699999999999  0.44753  1.0000
  C   C96       1.0  0.88012  0.30757  0.08555  1.0000
  C   C97       1.0  0.034569999999999955  0.7317900000000002  0.94755  1.0000
  C   C98       1.0  0.67876  0.56762  0.41816  1.0000
  C   C99       1.0  0.0675999999999999  0.17872000000000002  0.91818  1.0000
  C   C100      1.0  0.6760000000000007  0.75632  0.4536  1.0000
  C   C101      1.0  0.10415999999999997  0.15591999999999995  0.72332  1.0000
  C   C102      1.0  0.86604  0.32197  0.88147  1.0000
  C   C103      1.0  0.37998  0.22677  0.58571  1.0000
  C   C104      1.0  0.46038  0.8437  0.56279  1.0000
  C   C105      1.0  0.51988  0.21251000000000003  0.47164  1.0000
  C   C106      1.0  0.78731  0.20386  0.52868  1.0000
  C   C107      1.0  0.9324  0.82128  0.08182  1.0000
  C   C108      1.0  0.51647  0.6562  0.22307  1.0000
  C   C109      1.0  0.8076200000000001  0.38014  0.58556  1.0000
  C   C110      1.0  0.26831  0.71425  0.05215  1.0000
  C   C111      1.0  0.65634  0.03961  0.93718  1.0000
  C   C112      1.0  0.1784600000000001  0.83588  0.91781  1.0000
  C   C113      1.0  0.63362  0.56977  0.6185  1.0000
  C   C114      1.0  0.98006  0.7038199999999998  0.02855  1.0000
  C   C115      1.0  0.78578  0.23167999999999994  0.44782  1.0000
  C   C116      1.0  0.15628000000000003  0.016599999999999983  0.72292  1.0000
  C   C117      1.0  0.48012000000000016  0.7874899999999998  0.52836  1.0000
  C   C118      1.0  0.9324400000000004  0.5107799999999998  0.47  1.0000
  C   C119      1.0  0.7003399999999999  0.98785  0.11478  1.0000
  C   C120      1.0  0.41313000000000005  0.98943  0.029549999999999996  1.0000
  C   C121      1.0  0.16416999999999998  0.93222  0.08223  1.0000
  C   C122      1.0  0.9332099999999999  0.7435  0.08726  1.0000
  C   C123      1.0  0.82154  0.16412  0.08219  1.0000
  C   C124      1.0  0.20379000000000003  0.48007999999999995  0.52853  1.0000
  C   C125      1.0  0.010799999999999966  0.43242  0.96994  1.0000
  C   C126      1.0  0.2357700000000002  0.9333599999999996  0.08723  1.0000
  C   C127      1.0  0.9708300000000003  0.83267  0.27701  1.0000
  C   C128      1.0  0.1758500000000001  0.6140100000000001  0.9539999999999998  1.0000
  C   C129      1.0  0.56335  0.27437  0.77994  1.0000
  C   C130      1.0  0.33586999999999995  0.67846  0.41783  1.0000
  C   C131      1.0  0.8673000000000001  0.53956  0.43682  1.0000
  C   C132      1.0  0.06756000000000001  0.48922000000000004  0.53  1.0000
  C   C133      1.0  0.6044400000000001  0.51685  0.22281  1.0000
  C   C134      1.0  0.58687  0.010570000000000034  0.9704499999999999  1.0000
  C   C135      1.0  0.19238000000000005  0.6198599999999997  0.41444  1.0000
  C   C136      1.0  0.9654300000000001  0.26822  0.05245  1.0000
  C   C137      1.0  0.38228  0.5626599999999999  0.78051  1.0000
  C   C138      1.0  0.7565700000000001  0.5667599999999999  0.41273  1.0000
  C   C139      1.0  0.8860400000000002  0.32414999999999994  0.54598  1.0000
  C   C140      1.0  0.6641299999999999  0.32154000000000005  0.58217  1.0000
  C   C141      1.0  0.011940000000000128  0.8032099999999999  0.88534  1.0000
  C   C142      1.0  0.3441500000000004  0.3956899999999998  0.77667  1.0000
  C   C143      1.0  0.8437399999999999  0.13292999999999996  0.56305  1.0000
  C   C144      1.0  0.98806  0.19679000000000002  0.11466  1.0000
  C   C145      1.0  0.22601999999999997  0.93704  0.71964  1.0000
  C   C146      1.0  0.15626000000000015  0.8670699999999997  0.43695  1.0000
  C   C147      1.0  0.5396199999999999  0.15630000000000002  0.43721  1.0000
  C   C148      1.0  0.8030099999999998  0.29939  0.8855  1.0000
  C   C149      1.0  0.8358300000000002  0.06778999999999993  0.91777  1.0000
  C   C150      1.0  0.79622  0.51992  0.47147  1.0000
  C   C151      1.0  0.03958000000000008  0.3672599999999999  0.93677  1.0000
  C   C152      1.0  0.66739  0.52926  0.22301  1.0000
  C   C153      1.0  0.06263999999999999  0.88246  0.28043  1.0000
  C   C154      1.0  0.17808999999999994  0.63395  0.61854  1.0000
  C   C155      1.0  0.9373600000000001  0.11755  0.71957  1.0000
  C   C156      1.0  0.2142199999999999  0.7683200000000001  0.55217  1.0000
  N   N1        1.0  0.5818599999999999  0.79438  0.32108  1.0000
  N   N2        1.0  0.7056100000000003  0.9181999999999997  0.1789  1.0000
  N   N3        1.0  0.7776700000000002  0.23678999999999997  0.33769  1.0000
  N   N4        1.0  0.13197000000000003  0.40594  0.6373  1.0000
  N   N5        1.0  0.09405000000000008  0.36796999999999996  0.86263  1.0000
  N   N6        1.0  0.6970400000000001  0.4184  0.67885  1.0000
  N   N7        1.0  0.26316  0.72235  0.16231  1.0000
  N   N8        1.0  0.6753199999999999  0.09408  0.86303  1.0000
  N   N9        1.0  0.19720000000000001  0.70586  0.1785  1.0000
  N   N10       1.0  0.23696000000000006  0.64797  0.33728  1.0000
  N   N11       1.0  0.9059500000000001  0.6320299999999998  0.13737  1.0000
  N   N12       1.0  0.8875200000000001  0.6995399999999998  0.15289  1.0000
  N   N13       1.0  0.29439  0.08179999999999998  0.8211  1.0000
  N   N14       1.0  0.9184000000000002  0.19699999999999993  0.17881  1.0000
  N   N15       1.0  0.2599400000000004  0.8875599999999996  0.15269  1.0000
  N   N16       1.0  0.4181399999999999  0.20562000000000002  0.67892  1.0000
  N   N17       1.0  0.8028  0.29414  0.8215  1.0000
  N   N18       1.0  0.69998  0.2604099999999999  0.15256  1.0000
  N   N19       1.0  0.40592000000000017  0.8247499999999999  0.63697  1.0000
  N   N20       1.0  0.2777400000000001  0.14813000000000004  0.8372099999999999  1.0000
  N   N21       1.0  0.8520000000000001  0.26299  0.16272  1.0000
  N   N22       1.0  0.3518100000000001  0.22228  0.66279  1.0000
  N   N23       1.0  0.5940800000000002  0.17525  0.36303  1.0000
  N   N24       1.0  0.76305  0.35203  0.66272  1.0000
  N   N25       1.0  0.17489000000000005  0.86756  0.36308  1.0000
  N   N26       1.0  0.8005400000000001  0.61248  0.34714  1.0000
  N   N27       1.0  0.14799999999999988  0.73701  0.83728  1.0000
  N   N28       1.0  0.08159999999999999  0.8030099999999999  0.82119  1.0000
  N   N29       1.0  0.72226  0.85187  0.16279  1.0000
  N   N30       1.0  0.30295999999999995  0.5816  0.32114  1.0000
  N   N31       1.0  0.8680300000000003  0.5940699999999999  0.3627  1.0000
  N   N32       1.0  0.3675600000000001  0.6748199999999999  0.86307  1.0000
  N   N33       1.0  0.30002  0.73959  0.84743  1.0000
  N   N34       1.0  0.64819  0.77772  0.33721  1.0000
  N   N35       1.0  0.38755  0.76  0.65273  1.0000
  N   N36       1.0  0.2396199999999999  0.80001  0.34745  1.0000
  N   N37       1.0  0.6324399999999999  0.3251899999999999  0.13693  1.0000
  N   N38       1.0  0.20587  0.69724  0.67851  1.0000
  N   N39       1.0  0.74006  0.11245000000000001  0.84731  1.0000
  N   N40       1.0  0.19946000000000003  0.38752000000000003  0.65286  1.0000
  N   N41       1.0  0.82511  0.13244999999999998  0.63692  1.0000
  N   N42       1.0  0.7368400000000003  0.27765999999999996  0.83769  1.0000
  N   N43       1.0  0.76038  0.19999  0.65255  1.0000
  N   N44       1.0  0.6124500000000002  0.23999999999999994  0.34727  1.0000
  N   N45       1.0  0.3246800000000002  0.9059199999999998  0.13697  1.0000
  N   N46       1.0  0.22233000000000006  0.76321  0.66231  1.0000
  N   N47       1.0  0.11248000000000008  0.30045999999999995  0.84711  1.0000
  N   N48       1.0  0.7941300000000002  0.30276  0.32149  1.0000
  O   O1        1.0  0.8125200000000001  0.78996  0.27857  1.0000
  O   O2        1.0  0.8815300000000001  0.18796000000000002  0.72001  1.0000
  O   O3        1.0  0.20621999999999993  0.4407499999999999  0.78315  1.0000
  O   O4        1.0  0.6879999999999998  0.38137  0.2202  1.0000
  O   O5        1.0  0.42977000000000015  0.79398  0.21662  1.0000
  O   O6        1.0  0.18747999999999995  0.21004  0.72143  1.0000
  O   O7        1.0  0.7937800000000002  0.55925  0.21685  1.0000
  O   O8        1.0  0.6189400000000002  0.28944  0.77965  1.0000
  O   O9        1.0  0.70569  0.06962000000000002  0.28385  1.0000
  O   O10       1.0  0.5596900000000002  0.4310099999999999  0.21551  1.0000
  O   O11       1.0  0.7102200000000001  0.68756  0.22133  1.0000
  O   O12       1.0  0.05910000000000001  0.29370999999999997  0.71708  1.0000
  O   O13       1.0  0.44031000000000003  0.56899  0.78449  1.0000
  O   O14       1.0  0.5702300000000002  0.20601999999999995  0.78338  1.0000
  O   O15       1.0  0.31200000000000006  0.6186299999999999  0.77979  1.0000
  O   O16       1.0  0.11847000000000006  0.8120499999999999  0.27999  1.0000
  O   O17       1.0  0.21128999999999992  0.88128  0.71982  1.0000
  O   O18       1.0  0.0692100000000001  0.9405  0.28409  1.0000
  O   O19       1.0  0.28978  0.31245  0.77867  1.0000
  O   O20       1.0  0.38106000000000007  0.71056  0.22035  1.0000
  O   O21       1.0  0.9409  0.70629  0.28292  1.0000
  O   O22       1.0  0.7887200000000001  0.11871999999999999  0.28017  1.0000
  O   O23       1.0  0.9307900000000001  0.05950000000000002  0.7159  1.0000
  O   O24       1.0  0.29430999999999996  0.9303800000000001  0.71615  1.0000
