data_image0
_chemical_formula_structural       Ni8H160C212N16O56
_chemical_formula_sum              "Ni8 H160 C212 N16 O56"
_cell_length_a       10.44663
_cell_length_b       23.890150000000002
_cell_length_c       23.20933
_cell_angle_alpha    94.80769
_cell_angle_beta     102.97695999999999
_cell_angle_gamma    89.88876

_symmetry_space_group_name_H-M    'P 1'
_symmetry_Int_Tables_number       1

loop_
  _symmetry_equiv_pos_as_xyz
  'x,y,z'

loop_
  _atom_site_type_symbol
  _atom_site_label
  _atom_site_symmetry_multiplicity
  _atom_site_fract_x
  _atom_site_fract_y
  _atom_site_fract_z
  _atom_site_occupancy
  Ni  Ni1       1.0  0.05827  0.07595999999999999  0.4304  1.0000
  Ni  Ni2       1.0  0.8398100000000002  0.9323699999999999  0.9807700000000001  1.0000
  Ni  Ni3       1.0  0.6284  0.42231999999999986  0.56953  1.0000
  Ni  Ni4       1.0  0.8546300000000001  0.5674299999999999  0.01904  1.0000
  Ni  Ni5       1.0  0.94165  0.9240699999999997  0.56961  1.0000
  Ni  Ni6       1.0  0.16018  0.06762  0.01923  1.0000
  Ni  Ni7       1.0  0.3716  0.5776799999999999  0.43047  1.0000
  Ni  Ni8       1.0  0.14537  0.43257  0.98096  1.0000
  H   H1        1.0  0.23713  0.12684  0.29742  1.0000
  H   H2        1.0  0.39505999999999997  0.15878  0.23914  1.0000
  H   H3        1.0  0.68034  0.044239999999999995  0.32255  1.0000
  H   H4        1.0  0.51782  0.008799999999999992  0.37742  1.0000
  H   H5        1.0  0.51228  0.03203  0.19162000000000004  1.0000
  H   H6        1.0  0.58648  0.97567  0.11014000000000002  1.0000
  H   H7        1.0  0.9329199999999999  0.07962  0.13908  1.0000
  H   H8        1.0  0.85708  0.13789  0.22099000000000002  1.0000
  H   H9        1.0  0.14578  0.2084  0.58658  1.0000
  H   H10       1.0  0.08931999999999998  0.2645799999999999  0.67453  1.0000
  H   H11       1.0  0.7957099999999999  0.13999  0.67892  1.0000
  H   H12       1.0  0.84773  0.08566999999999998  0.59081  1.0000
  H   H13       1.0  0.03261000000000001  0.14219  0.76057  1.0000
  H   H14       1.0  0.06565000000000015  0.10880999999999998  0.8619400000000003  1.0000
  H   H15       1.0  0.8548200000000001  0.24913999999999994  0.91828  1.0000
  H   H16       1.0  0.8231100000000001  0.2844  0.81675  1.0000
  H   H17       1.0  0.11212  0.16609  0.36078  1.0000
  H   H18       1.0  0.9903700000000001  0.23926999999999995  0.30212  1.0000
  H   H19       1.0  0.65657  0.20079999999999995  0.37512  1.0000
  H   H20       1.0  0.79508  0.12804000000000001  0.43045000000000005  1.0000
  H   H21       1.0  0.57651  0.4927  0.4379  1.0000
  H   H22       1.0  0.65449  0.42138  0.37108  1.0000
  H   H23       1.0  0.34647  0.4730699999999999  0.22752  1.0000
  H   H24       1.0  0.27712  0.54086  0.30294  1.0000
  H   H25       1.0  0.14419  0.17992999999999998  0.0896  1.0000
  H   H26       1.0  0.29983  0.25341  0.14688  1.0000
  H   H27       1.0  0.61599  0.15194999999999997  0.10438000000000001  1.0000
  H   H28       1.0  0.44551  0.08055999999999999  0.05161  1.0000
  H   H29       1.0  0.94622  0.55996  0.15252  1.0000
  H   H30       1.0  0.9248699999999997  0.4912999999999999  0.22495  1.0000
  H   H31       1.0  0.7636  0.37289999999999995  0.07417  1.0000
  H   H32       1.0  0.79786  0.44445  0.00968  1.0000
  H   H33       1.0  0.74254  0.31748  0.14443  1.0000
  H   H34       1.0  0.62332  0.37094999999999995  0.14644  1.0000
  H   H35       1.0  0.50048  0.27367  0.23447000000000004  1.0000
  H   H36       1.0  0.46369  0.31723  0.17403  1.0000
  H   H37       1.0  0.62497  0.34622  0.3102  1.0000
  H   H38       1.0  0.73604  0.3938099999999999  0.28952  1.0000
  H   H39       1.0  0.79558  0.25292  0.22166  1.0000
  H   H40       1.0  0.8665  0.311  0.27258  1.0000
  H   H41       1.0  0.9427199999999999  0.37089  0.7018  1.0000
  H   H42       1.0  0.15974000000000005  0.33998  0.7606  1.0000
  H   H43       1.0  0.35875999999999997  0.45475  0.67652  1.0000
  H   H44       1.0  0.14021  0.48915  0.6212  1.0000
  H   H45       1.0  0.32058000000000003  0.4674499999999999  0.8074600000000001  1.0000
  H   H46       1.0  0.4744100000000001  0.5240700000000001  0.8892000000000001  1.0000
  H   H47       1.0  0.79434  0.42034  0.86145  1.0000
  H   H48       1.0  0.63846  0.3617499999999999  0.77933  1.0000
  H   H49       1.0  0.5561  0.28927  0.41196000000000005  1.0000
  H   H50       1.0  0.40901999999999994  0.23428999999999994  0.32411  1.0000
  H   H51       1.0  0.11452000000000001  0.36063  0.32301  1.0000
  H   H52       1.0  0.25754000000000005  0.41381  0.41072000000000003  1.0000
  H   H53       1.0  0.26923  0.35756999999999994  0.2405  1.0000
  H   H54       1.0  0.20553000000000002  0.39074  0.1389  1.0000
  H   H55       1.0  0.93507  0.25208  0.08138  1.0000
  H   H56       1.0  0.0006299999999999928  0.21695  0.18308  1.0000
  H   H57       1.0  0.7527  0.33178  0.63852  1.0000
  H   H58       1.0  0.68983  0.25926999999999994  0.69789  1.0000
  H   H59       1.0  0.28318  0.29832999999999993  0.62545  1.0000
  H   H60       1.0  0.36595  0.37069  0.56955  1.0000
  H   H61       1.0  0.14247  0.007799999999999991  0.56323  1.0000
  H   H62       1.0  0.28367  0.07998999999999998  0.62996  1.0000
  H   H63       1.0  0.1142600000000001  0.029830000000000006  0.7726500000000001  1.0000
  H   H64       1.0  0.9733  0.9610499999999998  0.69731  1.0000
  H   H65       1.0  0.05907999999999995  0.32111  0.91035  1.0000
  H   H66       1.0  0.15966000000000005  0.24716  0.85435  1.0000
  H   H67       1.0  0.5176299999999999  0.3486899999999999  0.8975700000000001  1.0000
  H   H68       1.0  0.39702  0.42054  0.94885  1.0000
  H   H69       1.0  0.7933  0.9377599999999998  0.8471500000000001  1.0000
  H   H70       1.0  0.69688  0.00569  0.77432  1.0000
  H   H71       1.0  0.69059  0.12567  0.9245500000000001  1.0000
  H   H72       1.0  0.79206  0.05488  0.98936  1.0000
  H   H73       1.0  0.60253  0.18033  0.85522  1.0000
  H   H74       1.0  0.47788000000000014  0.12870999999999996  0.85401  1.0000
  H   H75       1.0  0.2720499999999999  0.22892999999999994  0.76804  1.0000
  H   H76       1.0  0.29300000000000004  0.18415  0.82732  1.0000
  H   H77       1.0  0.31541  0.15562  0.69057  1.0000
  H   H78       1.0  0.44303000000000003  0.1059  0.71105  1.0000
  H   H79       1.0  0.5778  0.24603  0.7782900000000001  1.0000
  H   H80       1.0  0.59432  0.18754  0.72699  1.0000
  H   H81       1.0  0.76287  0.8731599999999999  0.70259  1.0000
  H   H82       1.0  0.60493  0.84121  0.76086  1.0000
  H   H83       1.0  0.31965  0.95575  0.67744  1.0000
  H   H84       1.0  0.48217000000000004  0.9912  0.62258  1.0000
  H   H85       1.0  0.48772  0.96797  0.80838  1.0000
  H   H86       1.0  0.41351  0.024330000000000004  0.88986  1.0000
  H   H87       1.0  0.06706999999999991  0.92037  0.86091  1.0000
  H   H88       1.0  0.14292000000000005  0.8620999999999998  0.7790100000000001  1.0000
  H   H89       1.0  0.85421  0.7916199999999998  0.41344  1.0000
  H   H90       1.0  0.91067  0.73543  0.3255  1.0000
  H   H91       1.0  0.20428000000000002  0.86002  0.32110000000000005  1.0000
  H   H92       1.0  0.15225  0.91436  0.40918  1.0000
  H   H93       1.0  0.96739  0.8578199999999999  0.23944000000000001  1.0000
  H   H94       1.0  0.93433  0.89119  0.13806  1.0000
  H   H95       1.0  0.14516000000000004  0.7508599999999999  0.08172000000000001  1.0000
  H   H96       1.0  0.1769  0.7156  0.18326  1.0000
  H   H97       1.0  0.88787  0.83391  0.63921  1.0000
  H   H98       1.0  0.009620000000000076  0.76073  0.6978700000000001  1.0000
  H   H99       1.0  0.34342  0.7991899999999998  0.62487  1.0000
  H   H100      1.0  0.20492  0.8719599999999998  0.56954  1.0000
  H   H101      1.0  0.42349  0.5072999999999999  0.5621  1.0000
  H   H102      1.0  0.3455  0.57861  0.62891  1.0000
  H   H103      1.0  0.65352  0.52693  0.77248  1.0000
  H   H104      1.0  0.72287  0.4591399999999999  0.69706  1.0000
  H   H105      1.0  0.8558100000000002  0.8200599999999998  0.9104000000000001  1.0000
  H   H106      1.0  0.70017  0.7465899999999998  0.85312  1.0000
  H   H107      1.0  0.38400999999999996  0.84805  0.89562  1.0000
  H   H108      1.0  0.5545000000000001  0.91943  0.9483900000000001  1.0000
  H   H109      1.0  0.053770000000000054  0.4400399999999999  0.84747  1.0000
  H   H110      1.0  0.07511  0.5087  0.77504  1.0000
  H   H111      1.0  0.23638000000000012  0.6271  0.92583  1.0000
  H   H112      1.0  0.2021400000000001  0.55554  0.9903100000000002  1.0000
  H   H113      1.0  0.25744000000000006  0.6825099999999997  0.8555600000000001  1.0000
  H   H114      1.0  0.37667000000000006  0.62905  0.8535500000000001  1.0000
  H   H115      1.0  0.49952  0.7263199999999999  0.76553  1.0000
  H   H116      1.0  0.5362900000000002  0.6827599999999999  0.8259600000000001  1.0000
  H   H117      1.0  0.37502000000000013  0.65378  0.6897900000000001  1.0000
  H   H118      1.0  0.26395  0.6061799999999999  0.71047  1.0000
  H   H119      1.0  0.2044100000000001  0.74708  0.77833  1.0000
  H   H120      1.0  0.13349  0.6889999999999997  0.72741  1.0000
  H   H121      1.0  0.05727  0.6291099999999998  0.2982  1.0000
  H   H122      1.0  0.84025  0.66001  0.2394  1.0000
  H   H123      1.0  0.6412300000000001  0.54524  0.32348000000000005  1.0000
  H   H124      1.0  0.85979  0.51085  0.37879  1.0000
  H   H125      1.0  0.67942  0.53255  0.19254  1.0000
  H   H126      1.0  0.52558  0.4759299999999999  0.1108  1.0000
  H   H127      1.0  0.20566  0.57965  0.13854  1.0000
  H   H128      1.0  0.36153  0.63825  0.22067000000000003  1.0000
  H   H129      1.0  0.4439  0.71072  0.58804  1.0000
  H   H130      1.0  0.59098  0.76571  0.67589  1.0000
  H   H131      1.0  0.88547  0.63936  0.67699  1.0000
  H   H132      1.0  0.74245  0.5861899999999999  0.58927  1.0000
  H   H133      1.0  0.7307600000000001  0.64243  0.7595000000000001  1.0000
  H   H134      1.0  0.7944599999999999  0.6092599999999999  0.8611  1.0000
  H   H135      1.0  0.06493  0.7479199999999999  0.91862  1.0000
  H   H136      1.0  0.99936  0.78305  0.81691  1.0000
  H   H137      1.0  0.24729  0.66822  0.36148  1.0000
  H   H138      1.0  0.31016  0.7407299999999998  0.30211  1.0000
  H   H139      1.0  0.71681  0.70167  0.37455000000000005  1.0000
  H   H140      1.0  0.63404  0.6293  0.43045000000000005  1.0000
  H   H141      1.0  0.8575000000000002  0.9922099999999999  0.43677  1.0000
  H   H142      1.0  0.71629  0.9200199999999998  0.37004  1.0000
  H   H143      1.0  0.88572  0.97018  0.22735000000000002  1.0000
  H   H144      1.0  0.02669999999999999  0.03894999999999999  0.30269  1.0000
  H   H145      1.0  0.94091  0.67888  0.08965000000000001  1.0000
  H   H146      1.0  0.84034  0.7528399999999998  0.14564  1.0000
  H   H147      1.0  0.48236000000000007  0.6513099999999998  0.10243000000000001  1.0000
  H   H148      1.0  0.60298  0.57945  0.05115  1.0000
  H   H149      1.0  0.20671  0.062229999999999994  0.15285  1.0000
  H   H150      1.0  0.3031  0.9943099999999998  0.22568  1.0000
  H   H151      1.0  0.3094  0.8743199999999998  0.07545  1.0000
  H   H152      1.0  0.20794000000000004  0.94512  0.01063  1.0000
  H   H153      1.0  0.3974599999999999  0.81966  0.14478  1.0000
  H   H154      1.0  0.52211  0.8712799999999999  0.14599  1.0000
  H   H155      1.0  0.72795  0.77107  0.23196  1.0000
  H   H156      1.0  0.70699  0.81584  0.17268  1.0000
  H   H157      1.0  0.68459  0.84438  0.30942  1.0000
  H   H158      1.0  0.55695  0.89409  0.28896  1.0000
  H   H159      1.0  0.42219000000000007  0.7539599999999997  0.2217  1.0000
  H   H160      1.0  0.40567  0.8124599999999997  0.273  1.0000
  C   C1        1.0  0.27429000000000003  0.04707999999999999  0.37664000000000003  1.0000
  C   C2        1.0  0.36769  0.0655  0.34064  1.0000
  C   C3        1.0  0.33346  0.10816  0.30214  1.0000
  C   C4        1.0  0.4214  0.1268  0.27029  1.0000
  C   C5        1.0  0.54584  0.10346999999999999  0.27899  1.0000
  C   C6        1.0  0.58222  0.06107999999999999  0.31704  1.0000
  C   C7        1.0  0.49229  0.041639999999999996  0.34722  1.0000
  C   C8        1.0  0.68031  0.08853999999999997  0.20993  1.0000
  C   C9        1.0  0.60458  0.0421  0.18047  1.0000
  C   C10       1.0  0.64619  0.01068  0.13513  1.0000
  C   C11       1.0  0.76399  0.024349999999999993  0.11977  1.0000
  C   C12       1.0  0.84137  0.06981999999999998  0.15129  1.0000
  C   C13       1.0  0.7998600000000001  0.10208999999999999  0.19629  1.0000
  C   C14       1.0  0.8024800000000001  0.99243  0.06884  1.0000
  C   C15       1.0  0.00017999999999997236  0.14419999999999997  0.5834  1.0000
  C   C16       1.0  0.06905999999999994  0.19429  0.60716  1.0000
  C   C17       1.0  0.03887000000000007  0.22517000000000004  0.6559300000000001  1.0000
  C   C18       1.0  0.9403500000000001  0.20523  0.6811300000000001  1.0000
  C   C19       1.0  0.87094  0.15526999999999996  0.65817  1.0000
  C   C20       1.0  0.90061  0.12483999999999998  0.60896  1.0000
  C   C21       1.0  0.9243599999999998  0.21499  0.78279  1.0000
  C   C22       1.0  0.99247  0.16526999999999997  0.7946100000000001  1.0000
  C   C23       1.0  0.010240000000000004  0.14655  0.85102  1.0000
  C   C24       1.0  0.96016  0.17607999999999993  0.89577  1.0000
  C   C25       1.0  0.8903799999999998  0.22539  0.8829600000000001  1.0000
  C   C26       1.0  0.87292  0.24510999999999994  0.8266500000000001  1.0000
  C   C27       1.0  0.98713  0.15441  0.9566500000000002  1.0000
  C   C28       1.0  0.010810000000000023  0.17518  0.36208000000000007  1.0000
  C   C29       1.0  0.94126  0.21594  0.32932  1.0000
  C   C30       1.0  0.81074  0.22483999999999996  0.33273  1.0000
  C   C31       1.0  0.75736  0.19441999999999998  0.37117000000000006  1.0000
  C   C32       1.0  0.8331099999999999  0.15391  0.40143000000000006  1.0000
  C   C33       1.0  0.5272  0.48624  0.39121  1.0000
  C   C34       1.0  0.57075  0.44650999999999996  0.35304  1.0000
  C   C35       1.0  0.50453  0.44073999999999997  0.2931  1.0000
  C   C36       1.0  0.39737  0.47533999999999993  0.27401  1.0000
  C   C37       1.0  0.3597600000000001  0.5132199999999999  0.3153000000000001  1.0000
  C   C38       1.0  0.24972  0.17441999999999996  0.09563000000000002  1.0000
  C   C39       1.0  0.33768  0.21589  0.12717  1.0000
  C   C40       1.0  0.47212  0.20791999999999994  0.13088  1.0000
  C   C41       1.0  0.51236  0.15902999999999998  0.10239000000000001  1.0000
  C   C42       1.0  0.41823000000000005  0.11939999999999998  0.07342  1.0000
  C   C43       1.0  0.90633  0.51798  0.13695  1.0000
  C   C44       1.0  0.89397  0.4798399999999999  0.17744  1.0000
  C   C45       1.0  0.83423  0.42727999999999977  0.15584  1.0000
  C   C46       1.0  0.8004100000000001  0.41408  0.09437  1.0000
  C   C47       1.0  0.8198899999999999  0.4545  0.057370000000000004  1.0000
  C   C48       1.0  0.70806  0.35041999999999995  0.17302  1.0000
  C   C49       1.0  0.53831  0.29035999999999995  0.1987  1.0000
  C   C50       1.0  0.64622  0.36795  0.27348  1.0000
  C   C51       1.0  0.7760400000000001  0.2861  0.25407  1.0000
  C   C52       1.0  0.032089999999999966  0.11286999999999997  0.53043  1.0000
  C   C53       1.0  0.66657  0.32423  0.22446000000000002  1.0000
  C   C54       1.0  0.8991  0.4501699999999999  0.62191  1.0000
  C   C55       1.0  0.028630000000000003  0.4322299999999999  0.65827  1.0000
  C   C56       1.0  0.03390000000000001  0.3898499999999999  0.69713  1.0000
  C   C57       1.0  0.15413000000000002  0.3718299999999999  0.72926  1.0000
  C   C58       1.0  0.2692  0.39553999999999995  0.72049  1.0000
  C   C59       1.0  0.26658  0.43769999999999987  0.68212  1.0000
  C   C60       1.0  0.14601  0.4565099999999999  0.65167  1.0000
  C   C61       1.0  0.4718  0.41104999999999997  0.78987  1.0000
  C   C62       1.0  0.42410999999999993  0.45748  0.81896  1.0000
  C   C63       1.0  0.5099800000000001  0.4890599999999999  0.8643500000000001  1.0000
  C   C64       1.0  0.64321  0.47548999999999997  0.8799900000000003  1.0000
  C   C65       1.0  0.6905  0.43001999999999996  0.84886  1.0000
  C   C66       1.0  0.6051000000000001  0.39757  0.80383  1.0000
  C   C67       1.0  0.73137  0.5075100000000001  0.9309200000000001  1.0000
  C   C68       1.0  0.41619  0.35437999999999986  0.41655  1.0000
  C   C69       1.0  0.45894999999999997  0.30400999999999995  0.39199  1.0000
  C   C70       1.0  0.37821  0.27369999999999994  0.3434  1.0000
  C   C71       1.0  0.25455  0.29445999999999994  0.3193  1.0000
  C   C72       1.0  0.21027000000000007  0.3446499999999999  0.34309000000000006  1.0000
  C   C73       1.0  0.29103000000000007  0.3745399999999999  0.39203000000000005  1.0000
  C   C74       1.0  0.13712000000000002  0.28552999999999995  0.21765000000000007  1.0000
  C   C75       1.0  0.19542000000000004  0.33478  0.20613000000000004  1.0000
  C   C76       1.0  0.15938  0.35339  0.14954  1.0000
  C   C77       1.0  0.06515  0.32426999999999995  0.1043  1.0000
  C   C78       1.0  0.005809999999999982  0.27553  0.11692  1.0000
  C   C79       1.0  0.04215  0.2559  0.17337  1.0000
  C   C80       1.0  0.034069999999999996  0.34577  0.04317  1.0000
  C   C81       1.0  0.65016  0.32303  0.63753  1.0000
  C   C82       1.0  0.61355  0.2826  0.67061  1.0000
  C   C83       1.0  0.47972  0.27426  0.66756  1.0000
  C   C84       1.0  0.38776  0.3045399999999999  0.62904  1.0000
  C   C85       1.0  0.43305000000000005  0.34478  0.59853  1.0000
  C   C86       1.0  0.138  0.01468999999999999  0.60969  1.0000
  C   C87       1.0  0.21794000000000002  0.05482999999999999  0.64784  1.0000
  C   C88       1.0  0.20900999999999997  0.061319999999999986  0.70745  1.0000
  C   C89       1.0  0.12058  0.026919999999999986  0.72635  1.0000
  C   C90       1.0  0.04367  0.9885599999999998  0.68506  1.0000
  C   C91       1.0  0.1589500000000001  0.32643  0.9046600000000001  1.0000
  C   C92       1.0  0.21686999999999992  0.2847  0.87396  1.0000
  C   C93       1.0  0.34816  0.29251  0.87103  1.0000
  C   C94       1.0  0.41578999999999994  0.34158  0.8991700000000001  1.0000
  C   C95       1.0  0.34913  0.3814899999999999  0.92721  1.0000
  C   C96       1.0  0.76946  0.97995  0.8624800000000001  1.0000
  C   C97       1.0  0.7149999999999999  0.017669999999999995  0.82178  1.0000
  C   C98       1.0  0.6773900000000002  0.07047999999999999  0.84324  1.0000
  C   C99       1.0  0.70702  0.08433  0.9046  1.0000
  C   C100      1.0  0.76503  0.04431999999999999  0.94178  1.0000
  C   C101      1.0  0.53639  0.1483  0.8269600000000001  1.0000
  C   C102      1.0  0.3446500000000002  0.21070999999999998  0.8031100000000001  1.0000
  C   C103      1.0  0.37127000000000004  0.13309  0.7271700000000001  1.0000
  C   C104      1.0  0.52411  0.21310999999999994  0.74619  1.0000
  C   C105      1.0  0.50349  0.38496  0.46933  1.0000
  C   C106      1.0  0.444  0.17576  0.7762900000000001  1.0000
  C   C107      1.0  0.7257  0.95292  0.62337  1.0000
  C   C108      1.0  0.6323  0.9344999999999998  0.65936  1.0000
  C   C109      1.0  0.66653  0.89184  0.69786  1.0000
  C   C110      1.0  0.57859  0.8731999999999999  0.72971  1.0000
  C   C111      1.0  0.45415  0.89652  0.72101  1.0000
  C   C112      1.0  0.41777000000000003  0.9389099999999998  0.68296  1.0000
  C   C113      1.0  0.5077  0.9583599999999998  0.65278  1.0000
  C   C114      1.0  0.3196899999999999  0.9114499999999998  0.79007  1.0000
  C   C115      1.0  0.39542  0.9579  0.81952  1.0000
  C   C116      1.0  0.3538100000000001  0.98931  0.86486  1.0000
  C   C117      1.0  0.2360100000000001  0.97564  0.8802300000000001  1.0000
  C   C118      1.0  0.15863  0.9301799999999999  0.84871  1.0000
  C   C119      1.0  0.20013000000000009  0.8978999999999999  0.8037100000000001  1.0000
  C   C120      1.0  0.19752999999999998  0.007560000000000003  0.93116  1.0000
  C   C121      1.0  0.9997900000000001  0.85585  0.41661  1.0000
  C   C122      1.0  0.93094  0.80574  0.39287  1.0000
  C   C123      1.0  0.96113  0.77484  0.3441  1.0000
  C   C124      1.0  0.05964000000000001  0.7947799999999998  0.31888  1.0000
  C   C125      1.0  0.12905  0.84474  0.34185  1.0000
  C   C126      1.0  0.09937000000000003  0.8751899999999998  0.39105  1.0000
  C   C127      1.0  0.07563  0.78501  0.21721  1.0000
  C   C128      1.0  0.007520000000000005  0.8347299999999999  0.20540000000000003  1.0000
  C   C129      1.0  0.9897399999999998  0.8534399999999999  0.14898  1.0000
  C   C130      1.0  0.03982000000000001  0.82391  0.10423  1.0000
  C   C131      1.0  0.10961  0.77461  0.11705000000000002  1.0000
  C   C132      1.0  0.12708  0.75489  0.17336  1.0000
  C   C133      1.0  0.012850000000000004  0.8455799999999998  0.04335  1.0000
  C   C134      1.0  0.98918  0.82482  0.63791  1.0000
  C   C135      1.0  0.05873000000000003  0.78406  0.67067  1.0000
  C   C136      1.0  0.18925000000000003  0.7751599999999998  0.6672700000000001  1.0000
  C   C137      1.0  0.24262  0.80557  0.62882  1.0000
  C   C138      1.0  0.16687  0.84609  0.59856  1.0000
  C   C139      1.0  0.47279  0.5137599999999999  0.60879  1.0000
  C   C140      1.0  0.4292400000000001  0.5534899999999999  0.6469600000000001  1.0000
  C   C141      1.0  0.49546  0.55925  0.7069  1.0000
  C   C142      1.0  0.60262  0.5246499999999998  0.72599  1.0000
  C   C143      1.0  0.64023  0.48676999999999987  0.6847  1.0000
  C   C144      1.0  0.7502800000000001  0.8255699999999999  0.9043700000000001  1.0000
  C   C145      1.0  0.66231  0.7841  0.87283  1.0000
  C   C146      1.0  0.5278799999999999  0.7920799999999999  0.8691200000000001  1.0000
  C   C147      1.0  0.48764  0.84097  0.89761  1.0000
  C   C148      1.0  0.5817700000000001  0.88059  0.9265800000000001  1.0000
  C   C149      1.0  0.09366000000000003  0.48201999999999995  0.8630500000000001  1.0000
  C   C150      1.0  0.10601999999999998  0.5201599999999998  0.82255  1.0000
  C   C151      1.0  0.16575000000000006  0.5727099999999999  0.8441600000000001  1.0000
  C   C152      1.0  0.19958000000000004  0.5859199999999999  0.90563  1.0000
  C   C153      1.0  0.1801000000000001  0.54549  0.9426300000000002  1.0000
  C   C154      1.0  0.29192  0.6495799999999999  0.8269800000000002  1.0000
  C   C155      1.0  0.46169  0.7096299999999998  0.8013  1.0000
  C   C156      1.0  0.35377  0.6320499999999999  0.72652  1.0000
  C   C157      1.0  0.22394999999999998  0.7138999999999999  0.74592  1.0000
  C   C158      1.0  0.9677  0.88723  0.46954  1.0000
  C   C159      1.0  0.3334200000000001  0.6757699999999998  0.77553  1.0000
  C   C160      1.0  0.10089000000000001  0.54982  0.37809000000000004  1.0000
  C   C161      1.0  0.97136  0.56777  0.34173  1.0000
  C   C162      1.0  0.96609  0.6101399999999999  0.30287  1.0000
  C   C163      1.0  0.84587  0.62817  0.27074  1.0000
  C   C164      1.0  0.73079  0.6044499999999999  0.27951  1.0000
  C   C165      1.0  0.73342  0.5623  0.31788  1.0000
  C   C166      1.0  0.8539900000000001  0.5434900000000001  0.34832  1.0000
  C   C167      1.0  0.52819  0.58894  0.21012  1.0000
  C   C168      1.0  0.57588  0.5425199999999999  0.18104000000000003  1.0000
  C   C169      1.0  0.49002  0.51094  0.13565  1.0000
  C   C170      1.0  0.35678  0.5245099999999999  0.12001  1.0000
  C   C171      1.0  0.3095  0.5699699999999999  0.15114  1.0000
  C   C172      1.0  0.3949  0.6024299999999999  0.19617000000000004  1.0000
  C   C173      1.0  0.26862  0.49248999999999993  0.06908  1.0000
  C   C174      1.0  0.58381  0.64562  0.58345  1.0000
  C   C175      1.0  0.54104  0.69598  0.608  1.0000
  C   C176      1.0  0.62178  0.7262999999999997  0.6566  1.0000
  C   C177      1.0  0.74544  0.70554  0.6807  1.0000
  C   C178      1.0  0.7897300000000002  0.65535  0.65691  1.0000
  C   C179      1.0  0.70896  0.62546  0.60797  1.0000
  C   C180      1.0  0.8628799999999999  0.71446  0.7823500000000002  1.0000
  C   C181      1.0  0.80457  0.66521  0.7938700000000001  1.0000
  C   C182      1.0  0.84061  0.64661  0.85045  1.0000
  C   C183      1.0  0.9348400000000001  0.6757299999999999  0.8956900000000001  1.0000
  C   C184      1.0  0.99418  0.72446  0.88308  1.0000
  C   C185      1.0  0.95784  0.7440999999999998  0.82662  1.0000
  C   C186      1.0  0.96592  0.65422  0.95683  1.0000
  C   C187      1.0  0.34983  0.67696  0.36247  1.0000
  C   C188      1.0  0.38644  0.7173999999999998  0.32939  1.0000
  C   C189      1.0  0.52027  0.7257399999999999  0.33243  1.0000
  C   C190      1.0  0.61223  0.6954599999999999  0.37096000000000007  1.0000
  C   C191      1.0  0.56694  0.6552199999999999  0.40146  1.0000
  C   C192      1.0  0.86196  0.9853199999999998  0.39031  1.0000
  C   C193      1.0  0.78203  0.94518  0.35216  1.0000
  C   C194      1.0  0.79097  0.9386799999999997  0.29255  1.0000
  C   C195      1.0  0.8794  0.9730899999999999  0.27366  1.0000
  C   C196      1.0  0.95632  0.011440000000000002  0.31494  1.0000
  C   C197      1.0  0.84105  0.67357  0.09534  1.0000
  C   C198      1.0  0.7831200000000001  0.7152899999999998  0.12604  1.0000
  C   C199      1.0  0.65184  0.7074799999999998  0.12897  1.0000
  C   C200      1.0  0.5842  0.65841  0.10083  1.0000
  C   C201      1.0  0.65086  0.61851  0.07279  1.0000
  C   C202      1.0  0.23054  0.02005  0.13751  1.0000
  C   C203      1.0  0.28499  0.9823199999999999  0.17822  1.0000
  C   C204      1.0  0.3226  0.9295099999999998  0.15676  1.0000
  C   C205      1.0  0.29298  0.91567  0.0954  1.0000
  C   C206      1.0  0.23497  0.9556699999999998  0.058210000000000005  1.0000
  C   C207      1.0  0.4636  0.8516999999999998  0.17303  1.0000
  C   C208      1.0  0.65535  0.7892899999999999  0.19689000000000004  1.0000
  C   C209      1.0  0.62872  0.8669  0.27283  1.0000
  C   C210      1.0  0.47588  0.78688  0.25381  1.0000
  C   C211      1.0  0.49651000000000006  0.61503  0.53067  1.0000
  C   C212      1.0  0.55599  0.8242299999999999  0.22371  1.0000
  N   N1        1.0  0.9575900000000002  0.14341  0.39629000000000003  1.0000
  N   N2        1.0  0.28824  0.12641999999999998  0.07017  1.0000
  N   N3        1.0  0.4231  0.51895  0.37324  1.0000
  N   N4        1.0  0.86688  0.5068  0.07736  1.0000
  N   N5        1.0  0.56262  0.35496  0.60348  1.0000
  N   N6        1.0  0.2221300000000001  0.3745199999999999  0.92987  1.0000
  N   N7        1.0  0.05116  0.98227  0.62735  1.0000
  N   N8        1.0  0.79166  0.9918099999999999  0.92206  1.0000
  N   N9        1.0  0.04239000000000001  0.8565999999999999  0.6037  1.0000
  N   N10       1.0  0.71176  0.8735699999999998  0.92983  1.0000
  N   N11       1.0  0.57689  0.48104  0.62676  1.0000
  N   N12       1.0  0.13311  0.49319  0.92264  1.0000
  N   N13       1.0  0.43737  0.64504  0.39652  1.0000
  N   N14       1.0  0.7778599999999999  0.62548  0.07013  1.0000
  N   N15       1.0  0.94883  0.017729999999999996  0.37266  1.0000
  N   N16       1.0  0.20835  0.00819  0.07794  1.0000
  O   O1        1.0  0.18897  0.0856  0.38303  1.0000
  O   O2        1.0  0.28214  0.0002500000000000035  0.3969500000000001  1.0000
  O   O3        1.0  0.13740999999999995  0.12482999999999998  0.5144  1.0000
  O   O4        1.0  0.95094  0.0752  0.49987  1.0000
  O   O5        1.0  0.08721999999999996  0.12148  0.96346  1.0000
  O   O6        1.0  0.9183900000000002  0.16787  0.9930300000000002  1.0000
  O   O7        1.0  0.9162  0.99786  0.05886000000000001  1.0000
  O   O8        1.0  0.71471  0.9601399999999999  0.03347  1.0000
  O   O9        1.0  0.9102100000000001  0.23856  0.72881  1.0000
  O   O10       1.0  0.63782  0.12493999999999998  0.25091  1.0000
  O   O11       1.0  0.81109  0.3923  0.19627000000000003  1.0000
  O   O12       1.0  0.56979  0.24443  0.15988  1.0000
  O   O13       1.0  0.5375900000000001  0.40352999999999994  0.25134  1.0000
  O   O14       1.0  0.7302  0.26123  0.30058  1.0000
  O   O15       1.0  0.8070200000000001  0.41211  0.61672  1.0000
  O   O16       1.0  0.8872  0.4963799999999999  0.60025  1.0000
  O   O17       1.0  0.62427  0.3721299999999999  0.48501  1.0000
  O   O18       1.0  0.45487  0.42323  0.50025  1.0000
  O   O19       1.0  0.12845  0.37821999999999995  0.03684  1.0000
  O   O20       1.0  0.92983  0.33248  0.00617  1.0000
  O   O21       1.0  0.8552099999999999  0.50218  0.94123  1.0000
  O   O22       1.0  0.6777300000000002  0.5397999999999998  0.9659800000000001  1.0000
  O   O23       1.0  0.17428  0.2619  0.27174  1.0000
  O   O24       1.0  0.38977  0.3746  0.7487200000000002  1.0000
  O   O25       1.0  0.61211  0.10511  0.80288  1.0000
  O   O26       1.0  0.41770000000000007  0.25542  0.84278  1.0000
  O   O27       1.0  0.28171  0.09909  0.74905  1.0000
  O   O28       1.0  0.43122000000000005  0.23855  0.7002000000000002  1.0000
  O   O29       1.0  0.81102  0.9143899999999999  0.61698  1.0000
  O   O30       1.0  0.71787  0.99974  0.60305  1.0000
  O   O31       1.0  0.8625  0.87514  0.48560000000000003  1.0000
  O   O32       1.0  0.048479999999999995  0.92509  0.50004  1.0000
  O   O33       1.0  0.91277  0.87851  0.03654  1.0000
  O   O34       1.0  0.0816  0.83212  0.00697  1.0000
  O   O35       1.0  0.08380999999999998  0.0021299999999999956  0.94114  1.0000
  O   O36       1.0  0.2852900000000001  0.03986  0.96652  1.0000
  O   O37       1.0  0.08975  0.76145  0.2712  1.0000
  O   O38       1.0  0.36217  0.8750599999999997  0.74909  1.0000
  O   O39       1.0  0.18889000000000006  0.60769  0.8037300000000002  1.0000
  O   O40       1.0  0.4302  0.7555699999999999  0.84012  1.0000
  O   O41       1.0  0.46240000000000003  0.5964599999999999  0.74866  1.0000
  O   O42       1.0  0.26979000000000003  0.7387699999999999  0.69941  1.0000
  O   O43       1.0  0.19298  0.5878899999999998  0.38328  1.0000
  O   O44       1.0  0.11279000000000002  0.50362  0.39974  1.0000
  O   O45       1.0  0.37572  0.62787  0.51499  1.0000
  O   O46       1.0  0.54513  0.57677  0.49975  1.0000
  O   O47       1.0  0.87154  0.62178  0.96315  1.0000
  O   O48       1.0  0.07016999999999998  0.66751  0.99383  1.0000
  O   O49       1.0  0.14479000000000003  0.49782  0.05877000000000001  1.0000
  O   O50       1.0  0.32227  0.46019  0.03401  1.0000
  O   O51       1.0  0.82572  0.7380999999999999  0.72826  1.0000
  O   O52       1.0  0.61022  0.62539  0.25127  1.0000
  O   O53       1.0  0.38788999999999996  0.8948799999999998  0.19712  1.0000
  O   O54       1.0  0.5822999999999999  0.74458  0.15722  1.0000
  O   O55       1.0  0.7182700000000001  0.9009099999999998  0.25095  1.0000
  O   O56       1.0  0.56877  0.76144  0.2998  1.0000
