data_image0
_chemical_formula_structural       Zn22H120C252N12O88
_chemical_formula_sum              "Zn22 H120 C252 N12 O88"
_cell_length_a       29.47077
_cell_length_b       29.470260000000003
_cell_length_c       29.47105
_cell_angle_alpha    109.47517
_cell_angle_beta     109.47646999999999
_cell_angle_gamma    109.47413999999999

_symmetry_space_group_name_H-M    'P 1'
_symmetry_Int_Tables_number       1

loop_
  _symmetry_equiv_pos_as_xyz
  'x,y,z'

loop_
  _atom_site_type_symbol
  _atom_site_label
  _atom_site_symmetry_multiplicity
  _atom_site_fract_x
  _atom_site_fract_y
  _atom_site_fract_z
  _atom_site_occupancy
  Zn  Zn1       1.0  0.49601000000000006  0.532  0.57311  1.0000
  Zn  Zn2       1.0  0.50394  0.07715  0.03595  1.0000
  Zn  Zn3       1.0  0.04128000000000006  0.4678899999999999  0.96481  1.0000
  Zn  Zn4       1.0  0.95886  0.92281  0.4268600000000001  1.0000
  Zn  Zn5       1.0  0.92284  0.4268700000000001  0.95887  1.0000
  Zn  Zn6       1.0  0.46786999999999995  0.9648  0.04126  1.0000
  Zn  Zn7       1.0  0.07713000000000002  0.035939999999999986  0.50394  1.0000
  Zn  Zn8       1.0  0.532  0.57311  0.49601000000000006  1.0000
  Zn  Zn9       1.0  0.96472  0.04127000000000001  0.46787  1.0000
  Zn  Zn10      1.0  0.4268600000000001  0.9588600000000002  0.92281  1.0000
  Zn  Zn11      1.0  0.5731199999999997  0.49601  0.53201  1.0000
  Zn  Zn12      1.0  0.03595000000000002  0.50394  0.07715  1.0000
  Zn  Zn13      1.0  0.4452599999999998  0.44526000000000004  0.44527  1.0000
  Zn  Zn14      1.0  0.55489  0.99998  0.99999  1.0000
  Zn  Zn15      1.0  0.99998  0.5549  0.99997  1.0000
  Zn  Zn16      1.0  0.99998  0.9999799999999999  0.55486  1.0000
  Zn  Zn17      1.0  0.038800000000000015  0.53876  0.50003  1.0000
  Zn  Zn18      1.0  0.9611399999999998  0.46111  0.50003  1.0000
  Zn  Zn19      1.0  0.53877  0.50003  0.03879  1.0000
  Zn  Zn20      1.0  0.46112  0.5000300000000001  0.96113  1.0000
  Zn  Zn21      1.0  0.50003  0.96114  0.46112  1.0000
  Zn  Zn22      1.0  0.5000299999999998  0.038799999999999994  0.53877  1.0000
  H   H1        1.0  0.2737  0.40115  0.58618  1.0000
  H   H2        1.0  0.36454  0.44703  0.5893  1.0000
  H   H3        1.0  0.2817700000000001  0.35214000000000006  0.41131  1.0000
  H   H4        1.0  0.1906  0.30774  0.40802  1.0000
  H   H5        1.0  0.16742  0.48937  0.50583  1.0000
  H   H6        1.0  0.21554  0.43411  0.50536  1.0000
  H   H7        1.0  0.02995999999999999  0.3593  0.49002  1.0000
  H   H8        1.0  0.02918999999999998  0.19786  0.48165  1.0000
  H   H9        1.0  0.21830000000000002  0.26668  0.50433  1.0000
  H   H10       1.0  0.17175999999999994  0.17783999999999997  0.50287  1.0000
  H   H11       1.0  0.72641  0.31262  0.12752  1.0000
  H   H12       1.0  0.63543  0.22489999999999996  0.08237  1.0000
  H   H13       1.0  0.7179799999999998  0.1295  0.07012  1.0000
  H   H14       1.0  0.80927  0.21734  0.11708  1.0000
  H   H15       1.0  0.83253  0.33848  0.32203  1.0000
  H   H16       1.0  0.7844199999999997  0.28982  0.21865  1.0000
  H   H17       1.0  0.97002  0.46001000000000003  0.32935  1.0000
  H   H18       1.0  0.9709899999999996  0.45218  0.16869  1.0000
  H   H19       1.0  0.7817199999999997  0.28611  0.04855  1.0000
  H   H20       1.0  0.8280899999999998  0.33099  0.006100000000000001  1.0000
  H   H21       1.0  0.18498000000000003  0.59869  0.87265  1.0000
  H   H22       1.0  0.14212  0.55282  0.91755  1.0000
  H   H23       1.0  0.059209999999999985  0.64788  0.92968  1.0000
  H   H24       1.0  0.10039  0.69224  0.88299  1.0000
  H   H25       1.0  0.01643  0.51055  0.67816  1.0000
  H   H26       1.0  0.07128000000000004  0.56585  0.78155  1.0000
  H   H27       1.0  0.1307100000000001  0.6406300000000001  0.6707500000000002  1.0000
  H   H28       1.0  0.28349  0.80231  0.8312  1.0000
  H   H29       1.0  0.23790000000000006  0.73358  0.9517000000000002  1.0000
  H   H30       1.0  0.32506  0.82256  0.99393  1.0000
  H   H31       1.0  0.81483  0.68738  0.41372  1.0000
  H   H32       1.0  0.85756  0.77511  0.41059  1.0000
  H   H33       1.0  0.94069  0.8704399999999999  0.58855  1.0000
  H   H34       1.0  0.89973  0.78261  0.59197  1.0000
  H   H35       1.0  0.9835900000000001  0.66151  0.49418000000000006  1.0000
  H   H36       1.0  0.9288  0.71011  0.49462000000000006  1.0000
  H   H37       1.0  0.86935  0.53993  0.51006  1.0000
  H   H38       1.0  0.71648  0.54758  0.5187  1.0000
  H   H39       1.0  0.7622499999999999  0.71371  0.49561  1.0000
  H   H40       1.0  0.675  0.66876  0.49722000000000005  1.0000
  H   H41       1.0  0.68738  0.4137100000000001  0.8148500000000001  1.0000
  H   H42       1.0  0.7751200000000003  0.41058000000000006  0.8575700000000002  1.0000
  H   H43       1.0  0.87044  0.58854  0.94069  1.0000
  H   H44       1.0  0.78262  0.59196  0.8997400000000001  1.0000
  H   H45       1.0  0.66152  0.49418000000000006  0.98359  1.0000
  H   H46       1.0  0.71012  0.49462  0.92881  1.0000
  H   H47       1.0  0.53995  0.5100600000000001  0.8693500000000001  1.0000
  H   H48       1.0  0.5476100000000002  0.5187000000000002  0.7164900000000001  1.0000
  H   H49       1.0  0.7137300000000001  0.4956  0.76226  1.0000
  H   H50       1.0  0.6687799999999998  0.49721999999999994  0.67501  1.0000
  H   H51       1.0  0.5986799999999998  0.87264  0.18498  1.0000
  H   H52       1.0  0.5528  0.91754  0.14212  1.0000
  H   H53       1.0  0.64787  0.92968  0.05921000000000001  1.0000
  H   H54       1.0  0.69223  0.88298  0.10038  1.0000
  H   H55       1.0  0.51055  0.67816  0.01643  1.0000
  H   H56       1.0  0.5658399999999999  0.78155  0.07128  1.0000
  H   H57       1.0  0.64062  0.67073  0.1307  1.0000
  H   H58       1.0  0.8023099999999997  0.83119  0.28348  1.0000
  H   H59       1.0  0.73357  0.95169  0.23790000000000006  1.0000
  H   H60       1.0  0.82254  0.99392  0.32506  1.0000
  H   H61       1.0  0.3126099999999999  0.12753  0.72639  1.0000
  H   H62       1.0  0.22487  0.08237000000000005  0.63541  1.0000
  H   H63       1.0  0.1295  0.07013000000000003  0.71799  1.0000
  H   H64       1.0  0.21734999999999993  0.11708999999999994  0.80928  1.0000
  H   H65       1.0  0.3384899999999999  0.32204  0.83253  1.0000
  H   H66       1.0  0.28982  0.21865  0.78442  1.0000
  H   H67       1.0  0.4600099999999999  0.32934  0.97002  1.0000
  H   H68       1.0  0.45215  0.16865  0.97094  1.0000
  H   H69       1.0  0.28607999999999995  0.048540000000000055  0.7816700000000001  1.0000
  H   H70       1.0  0.33096  0.006069999999999983  0.82803  1.0000
  H   H71       1.0  0.40118000000000004  0.5861900000000001  0.2737  1.0000
  H   H72       1.0  0.44703000000000004  0.58931  0.3645500000000001  1.0000
  H   H73       1.0  0.35214  0.41132  0.28178  1.0000
  H   H74       1.0  0.30776  0.40802  0.19061  1.0000
  H   H75       1.0  0.4894  0.50583  0.16743  1.0000
  H   H76       1.0  0.43415  0.50537  0.21554  1.0000
  H   H77       1.0  0.35933  0.49002  0.029970000000000004  1.0000
  H   H78       1.0  0.19786999999999996  0.48162  0.02919  1.0000
  H   H79       1.0  0.26674  0.50434  0.21831  1.0000
  H   H80       1.0  0.17788999999999996  0.50288  0.1718  1.0000
  H   H81       1.0  0.87266  0.18498  0.59868  1.0000
  H   H82       1.0  0.91755  0.14211000000000004  0.55281  1.0000
  H   H83       1.0  0.92967  0.059210000000000026  0.6478900000000001  1.0000
  H   H84       1.0  0.88299  0.10039  0.69224  1.0000
  H   H85       1.0  0.67816  0.016439999999999996  0.51057  1.0000
  H   H86       1.0  0.78156  0.07129000000000002  0.56586  1.0000
  H   H87       1.0  0.6707599999999999  0.13073000000000007  0.64064  1.0000
  H   H88       1.0  0.83121  0.28352  0.80232  1.0000
  H   H89       1.0  0.95171  0.23791  0.73358  1.0000
  H   H90       1.0  0.9939300000000001  0.32508000000000004  0.82255  1.0000
  H   H91       1.0  0.4137199999999998  0.81484  0.68738  1.0000
  H   H92       1.0  0.41058999999999984  0.85756  0.77512  1.0000
  H   H93       1.0  0.58855  0.9407  0.87044  1.0000
  H   H94       1.0  0.59197  0.89974  0.78262  1.0000
  H   H95       1.0  0.4941899999999998  0.98359  0.66152  1.0000
  H   H96       1.0  0.49462000000000006  0.9288  0.7101100000000001  1.0000
  H   H97       1.0  0.51005  0.86934  0.53994  1.0000
  H   H98       1.0  0.5186900000000001  0.7164600000000001  0.54758  1.0000
  H   H99       1.0  0.49561  0.76224  0.71371  1.0000
  H   H100      1.0  0.49722000000000005  0.67499  0.66876  1.0000
  H   H101      1.0  0.58619  0.27371  0.40117  1.0000
  H   H102      1.0  0.5893  0.36455  0.44703  1.0000
  H   H103      1.0  0.4113099999999999  0.28177  0.35214  1.0000
  H   H104      1.0  0.4080199999999999  0.19061  0.30774  1.0000
  H   H105      1.0  0.50583  0.16743  0.48937  1.0000
  H   H106      1.0  0.50536  0.21554  0.43412  1.0000
  H   H107      1.0  0.49002999999999997  0.02996999999999998  0.35931  1.0000
  H   H108      1.0  0.4816599999999999  0.02921000000000003  0.19785000000000005  1.0000
  H   H109      1.0  0.50434  0.21831  0.26671  1.0000
  H   H110      1.0  0.5028900000000001  0.17180000000000004  0.17788  1.0000
  H   H111      1.0  0.12751999999999994  0.7264  0.31261  1.0000
  H   H112      1.0  0.08237  0.63542  0.22489  1.0000
  H   H113      1.0  0.07011999999999997  0.71797  0.1295  1.0000
  H   H114      1.0  0.11707999999999999  0.80927  0.21733  1.0000
  H   H115      1.0  0.32203  0.83254  0.33849  1.0000
  H   H116      1.0  0.21865000000000004  0.78443  0.28982  1.0000
  H   H117      1.0  0.3293400000000001  0.97002  0.46002  1.0000
  H   H118      1.0  0.16861999999999996  0.97093  0.45216  1.0000
  H   H119      1.0  0.048549999999999954  0.78167  0.28607  1.0000
  H   H120      1.0  0.006069999999999909  0.82802  0.33094  1.0000
  C   C1        1.0  0.22747  0.35262  0.49693000000000004  1.0000
  C   C2        1.0  0.27614  0.39061000000000007  0.54834  1.0000
  C   C3        1.0  0.32634  0.41599  0.55005  1.0000
  C   C4        1.0  0.32801  0.40266  0.50049  1.0000
  C   C5        1.0  0.27951999999999994  0.3623600000000001  0.44924000000000003  1.0000
  C   C6        1.0  0.22906000000000004  0.33751  0.44741000000000003  1.0000
  C   C7        1.0  0.09591  0.42838  0.49829  1.0000
  C   C8        1.0  0.14805000000000004  0.44892  0.50225  1.0000
  C   C9        1.0  0.17482  0.4178  0.50171  1.0000
  C   C10       1.0  0.14954000000000006  0.3651700000000001  0.4962500000000001  1.0000
  C   C11       1.0  0.09675000000000002  0.3445  0.49174  1.0000
  C   C12       1.0  0.07052000000000001  0.37572  0.49325  1.0000
  C   C13       1.0  0.09730999999999998  0.18146  0.4914  1.0000
  C   C14       1.0  0.07066  0.21288  0.48694  1.0000
  C   C15       1.0  0.09703  0.26279  0.48899  1.0000
  C   C16       1.0  0.15043999999999996  0.28256  0.4946  1.0000
  C   C17       1.0  0.17705  0.25144  0.49967  1.0000
  C   C18       1.0  0.15096  0.20168  0.4986  1.0000
  C   C19       1.0  0.0684  0.12726  0.4877  1.0000
  C   C20       1.0  0.0666  0.46074  0.49933  1.0000
  C   C21       1.0  0.38122  0.43358  0.50273  1.0000
  C   C22       1.0  0.7724999999999999  0.26945  0.12519  1.0000
  C   C23       1.0  0.72389  0.2723  0.11453  1.0000
  C   C24       1.0  0.67362  0.22383  0.08958000000000003  1.0000
  C   C25       1.0  0.67187  0.17257  0.07448  1.0000
  C   C26       1.0  0.72032  0.16972  0.0827  1.0000
  C   C27       1.0  0.77084  0.21831  0.10844000000000001  1.0000
  C   C28       1.0  0.9041  0.40241000000000005  0.33253000000000005  1.0000
  C   C29       1.0  0.85194  0.35424  0.30096  1.0000
  C   C30       1.0  0.82515  0.32688  0.24306  1.0000
  C   C31       1.0  0.85041  0.34666  0.21567000000000003  1.0000
  C   C32       1.0  0.9031999999999998  0.39493000000000006  0.24776000000000006  1.0000
  C   C33       1.0  0.92945  0.4227  0.30521  1.0000
  C   C34       1.0  0.90279  0.39393  0.08408  1.0000
  C   C35       1.0  0.9294599999999997  0.41606  0.14216  1.0000
  C   C36       1.0  0.90302  0.39185  0.16574  1.0000
  C   C37       1.0  0.8496  0.34412  0.13219  1.0000
  C   C38       1.0  0.8229999999999998  0.32262  0.07449  1.0000
  C   C39       1.0  0.84908  0.34755  0.05075  1.0000
  C   C40       1.0  0.9316999999999999  0.41925  0.05878  1.0000
  C   C41       1.0  0.9335099999999997  0.43287  0.39422  1.0000
  C   C42       1.0  0.6186399999999997  0.12158  0.05215  1.0000
  C   C43       1.0  0.1444  0.64736  0.87499  1.0000
  C   C44       1.0  0.15769  0.60928  0.88561  1.0000
  C   C45       1.0  0.13395999999999997  0.58387  0.9104  1.0000
  C   C46       1.0  0.09776  0.5972  0.92542  1.0000
  C   C47       1.0  0.08688000000000003  0.63756  0.91722  1.0000
  C   C48       1.0  0.10993999999999997  0.66242  0.89165  1.0000
  C   C49       1.0  0.06991  0.57155  0.6676  1.0000
  C   C50       1.0  0.05332  0.55101  0.6992000000000002  1.0000
  C   C51       1.0  0.08391000000000001  0.58214  0.75712  1.0000
  C   C52       1.0  0.13112999999999997  0.6348  0.7845  1.0000
  C   C53       1.0  0.14726000000000003  0.65548  0.75238  1.0000
  C   C54       1.0  0.11754999999999996  0.6242399999999999  0.69491  1.0000
  C   C55       1.0  0.30991  0.81895  0.91589  1.0000
  C   C56       1.0  0.27396  0.7874199999999999  0.85781  1.0000
  C   C57       1.0  0.22619999999999998  0.73739  0.83436  1.0000
  C   C58       1.0  0.21210999999999994  0.71757  0.86797  1.0000
  C   C59       1.0  0.24833000000000005  0.74883  0.9256700000000001  1.0000
  C   C60       1.0  0.29692999999999997  0.79869  0.94929  1.0000
  C   C61       1.0  0.36046  0.87322  0.94124  1.0000
  C   C62       1.0  0.038649999999999955  0.5391999999999999  0.60588  1.0000
  C   C63       1.0  0.06908000000000009  0.5664200000000001  0.9478700000000001  1.0000
  C   C64       1.0  0.85567  0.73045  0.50303  1.0000
  C   C65       1.0  0.84218  0.72766  0.45159  1.0000
  C   C66       1.0  0.86578  0.77615  0.44983  1.0000
  C   C67       1.0  0.9019999999999999  0.82741  0.49937  1.0000
  C   C68       1.0  0.91301  0.83022  0.55065  1.0000
  C   C69       1.0  0.89009  0.78161  0.55254  1.0000
  C   C70       1.0  0.93015  0.59759  0.50178  1.0000
  C   C71       1.0  0.94673  0.6457400000000001  0.49778  1.0000
  C   C72       1.0  0.91616  0.6730500000000001  0.4983  1.0000
  C   C73       1.0  0.86898  0.6532599999999998  0.50378  1.0000
  C   C74       1.0  0.8528399999999998  0.6049999999999999  0.50832  1.0000
  C   C75       1.0  0.88253  0.57726  0.50682  1.0000
  C   C76       1.0  0.69013  0.60585  0.50886  1.0000
  C   C77       1.0  0.7260799999999997  0.58374  0.51336  1.0000
  C   C78       1.0  0.77387  0.60803  0.51118  1.0000
  C   C79       1.0  0.788  0.65575  0.50547  1.0000
  C   C80       1.0  0.75176  0.67722  0.5004  1.0000
  C   C81       1.0  0.7031199999999999  0.65224  0.50156  1.0000
  C   C82       1.0  0.63956  0.58058  0.51251  1.0000
  C   C83       1.0  0.96147  0.56723  0.50075  1.0000
  C   C84       1.0  0.9306999999999997  0.8784  0.49713  1.0000
  C   C85       1.0  0.73045  0.50302  0.85567  1.0000
  C   C86       1.0  0.72766  0.45158  0.84219  1.0000
  C   C87       1.0  0.7761500000000001  0.44982000000000005  0.8657800000000001  1.0000
  C   C88       1.0  0.82741  0.49936  0.90199  1.0000
  C   C89       1.0  0.83022  0.55064  0.913  1.0000
  C   C90       1.0  0.7816099999999998  0.55253  0.89009  1.0000
  C   C91       1.0  0.5976  0.50178  0.93015  1.0000
  C   C92       1.0  0.64576  0.49779  0.94673  1.0000
  C   C93       1.0  0.6730699999999997  0.49829999999999997  0.91616  1.0000
  C   C94       1.0  0.6532699999999998  0.50378  0.86899  1.0000
  C   C95       1.0  0.60501  0.50832  0.8528400000000002  1.0000
  C   C96       1.0  0.57727  0.50682  0.88254  1.0000
  C   C97       1.0  0.6058699999999998  0.50887  0.6901400000000001  1.0000
  C   C98       1.0  0.58376  0.51336  0.72609  1.0000
  C   C99       1.0  0.6080499999999998  0.51117  0.77388  1.0000
  C   C100      1.0  0.6557699999999999  0.50547  0.788  1.0000
  C   C101      1.0  0.6772400000000001  0.5003900000000001  0.7517700000000002  1.0000
  C   C102      1.0  0.65226  0.50156  0.70313  1.0000
  C   C103      1.0  0.58059  0.5125099999999999  0.63957  1.0000
  C   C104      1.0  0.56724  0.50075  0.9614600000000001  1.0000
  C   C105      1.0  0.8783999999999998  0.49712000000000006  0.9307000000000001  1.0000
  C   C106      1.0  0.64735  0.8749799999999999  0.1444  1.0000
  C   C107      1.0  0.6092699999999998  0.8856  0.15769  1.0000
  C   C108      1.0  0.5838599999999999  0.91039  0.13396  1.0000
  C   C109      1.0  0.59719  0.92541  0.09775  1.0000
  C   C110      1.0  0.63754  0.91722  0.08688  1.0000
  C   C111      1.0  0.66241  0.89164  0.10994  1.0000
  C   C112      1.0  0.57154  0.6676000000000001  0.06991  1.0000
  C   C113      1.0  0.55101  0.6992  0.05331  1.0000
  C   C114      1.0  0.5821399999999999  0.75711  0.0839  1.0000
  C   C115      1.0  0.63479  0.7845  0.13112  1.0000
  C   C116      1.0  0.65547  0.75237  0.14725  1.0000
  C   C117      1.0  0.62423  0.6949  0.11754000000000002  1.0000
  C   C118      1.0  0.8189399999999997  0.9158799999999999  0.3099  1.0000
  C   C119      1.0  0.78742  0.8578  0.27395  1.0000
  C   C120      1.0  0.73738  0.83435  0.2262  1.0000
  C   C121      1.0  0.71756  0.86796  0.21210000000000004  1.0000
  C   C122      1.0  0.74882  0.92566  0.24833  1.0000
  C   C123      1.0  0.79868  0.94928  0.29693  1.0000
  C   C124      1.0  0.87321  0.9412300000000001  0.36044  1.0000
  C   C125      1.0  0.5392  0.60588  0.03864  1.0000
  C   C126      1.0  0.5664  0.94785  0.06907  1.0000
  C   C127      1.0  0.26944  0.1252  0.77248  1.0000
  C   C128      1.0  0.27229  0.11453999999999993  0.72387  1.0000
  C   C129      1.0  0.22382  0.08958  0.67361  1.0000
  C   C130      1.0  0.17256  0.07447999999999999  0.67186  1.0000
  C   C131      1.0  0.16970999999999997  0.08269999999999993  0.72031  1.0000
  C   C132      1.0  0.21831  0.10843999999999995  0.77084  1.0000
  C   C133      1.0  0.40241  0.33253  0.9041  1.0000
  C   C134      1.0  0.35425000000000006  0.30096  0.85194  1.0000
  C   C135      1.0  0.32688  0.24307  0.82514  1.0000
  C   C136      1.0  0.34666  0.21566999999999997  0.8504  1.0000
  C   C137      1.0  0.39493  0.24775000000000005  0.9031900000000002  1.0000
  C   C138      1.0  0.42269  0.3052  0.92945  1.0000
  C   C139      1.0  0.39390999999999987  0.08405999999999994  0.90275  1.0000
  C   C140      1.0  0.41602999999999996  0.14213999999999988  0.92941  1.0000
  C   C141      1.0  0.39183999999999986  0.1657299999999999  0.90299  1.0000
  C   C142      1.0  0.3441000000000001  0.13218000000000002  0.8495700000000002  1.0000
  C   C143      1.0  0.3225899999999999  0.07447  0.82296  1.0000
  C   C144      1.0  0.34752  0.05071999999999997  0.84902  1.0000
  C   C145      1.0  0.41925  0.05877999999999999  0.93166  1.0000
  C   C146      1.0  0.43288  0.39422  0.9335  1.0000
  C   C147      1.0  0.12157000000000004  0.05215000000000006  0.61863  1.0000
  C   C148      1.0  0.3526499999999999  0.49693  0.22747  1.0000
  C   C149      1.0  0.3906299999999999  0.54834  0.27614  1.0000
  C   C150      1.0  0.416  0.55006  0.32635  1.0000
  C   C151      1.0  0.40266999999999986  0.5005  0.32802  1.0000
  C   C152      1.0  0.36237999999999987  0.44925  0.27953  1.0000
  C   C153      1.0  0.33754  0.44741  0.22906  1.0000
  C   C154      1.0  0.4284  0.49829  0.09592  1.0000
  C   C155      1.0  0.44894999999999996  0.50225  0.14806  1.0000
  C   C156      1.0  0.41784000000000004  0.5017100000000001  0.17482  1.0000
  C   C157      1.0  0.36519999999999997  0.49625  0.14954  1.0000
  C   C158      1.0  0.34453  0.49174  0.09675  1.0000
  C   C159      1.0  0.37575  0.49325  0.07053  1.0000
  C   C160      1.0  0.18149  0.4914  0.09734  1.0000
  C   C161      1.0  0.21289  0.48692  0.07067  1.0000
  C   C162      1.0  0.26281  0.4889799999999999  0.09703  1.0000
  C   C163      1.0  0.28259  0.4945899999999999  0.15044  1.0000
  C   C164      1.0  0.25149000000000005  0.49966000000000005  0.17706  1.0000
  C   C165      1.0  0.20173  0.49860000000000004  0.15099  1.0000
  C   C166      1.0  0.12728999999999993  0.48772  0.06844  1.0000
  C   C167      1.0  0.46076  0.49933  0.0666  1.0000
  C   C168      1.0  0.4335800000000001  0.50273  0.3812300000000001  1.0000
  C   C169      1.0  0.87499  0.14440999999999993  0.64736  1.0000
  C   C170      1.0  0.88561  0.15769  0.60928  1.0000
  C   C171      1.0  0.9103899999999998  0.13394999999999996  0.58387  1.0000
  C   C172      1.0  0.92541  0.09774000000000001  0.5972  1.0000
  C   C173      1.0  0.91722  0.08686999999999998  0.63756  1.0000
  C   C174      1.0  0.89164  0.10995  0.66243  1.0000
  C   C175      1.0  0.66761  0.06992000000000001  0.57156  1.0000
  C   C176      1.0  0.69921  0.05333000000000003  0.55102  1.0000
  C   C177      1.0  0.7571199999999998  0.08391999999999993  0.58215  1.0000
  C   C178      1.0  0.78451  0.13113999999999995  0.63481  1.0000
  C   C179      1.0  0.75238  0.14726999999999996  0.65548  1.0000
  C   C180      1.0  0.69492  0.11755999999999998  0.62425  1.0000
  C   C181      1.0  0.91589  0.30993  0.81893  1.0000
  C   C182      1.0  0.8578099999999997  0.27398  0.78742  1.0000
  C   C183      1.0  0.83436  0.22622000000000014  0.7373900000000002  1.0000
  C   C184      1.0  0.8679700000000001  0.21212  0.71757  1.0000
  C   C185      1.0  0.92567  0.24834999999999996  0.74883  1.0000
  C   C186      1.0  0.94929  0.29696  0.79868  1.0000
  C   C187      1.0  0.94123  0.36047999999999997  0.87321  1.0000
  C   C188      1.0  0.6058899999999999  0.038660000000000014  0.53921  1.0000
  C   C189      1.0  0.9478499999999995  0.06906  0.56641  1.0000
  C   C190      1.0  0.50303  0.85567  0.7304500000000002  1.0000
  C   C191      1.0  0.4515899999999999  0.8421899999999999  0.7276600000000001  1.0000
  C   C192      1.0  0.44983  0.86579  0.77615  1.0000
  C   C193      1.0  0.4993800000000001  0.902  0.82742  1.0000
  C   C194      1.0  0.55065  0.91301  0.83022  1.0000
  C   C195      1.0  0.5525499999999998  0.89009  0.78162  1.0000
  C   C196      1.0  0.50178  0.93015  0.59759  1.0000
  C   C197      1.0  0.49778  0.9467199999999999  0.64575  1.0000
  C   C198      1.0  0.4983100000000001  0.9161500000000002  0.6730600000000001  1.0000
  C   C199      1.0  0.50378  0.86898  0.65327  1.0000
  C   C200      1.0  0.50832  0.8528300000000001  0.60501  1.0000
  C   C201      1.0  0.50681  0.88253  0.57726  1.0000
  C   C202      1.0  0.5088600000000002  0.69012  0.60585  1.0000
  C   C203      1.0  0.51336  0.72607  0.58374  1.0000
  C   C204      1.0  0.51117  0.77387  0.60803  1.0000
  C   C205      1.0  0.50547  0.78799  0.65575  1.0000
  C   C206      1.0  0.50039  0.75176  0.67722  1.0000
  C   C207      1.0  0.50155  0.70311  0.65223  1.0000
  C   C208      1.0  0.51252  0.63956  0.58058  1.0000
  C   C209      1.0  0.50074  0.96146  0.56723  1.0000
  C   C210      1.0  0.49712999999999985  0.9307  0.8784  1.0000
  C   C211      1.0  0.49693  0.22747000000000003  0.35263  1.0000
  C   C212      1.0  0.54834  0.27614  0.39062  1.0000
  C   C213      1.0  0.55005  0.32635  0.416  1.0000
  C   C214      1.0  0.50049  0.32802  0.40267  1.0000
  C   C215      1.0  0.44924  0.27952  0.36237  1.0000
  C   C216      1.0  0.44741  0.22906  0.33752  1.0000
  C   C217      1.0  0.49829  0.09592000000000002  0.42838  1.0000
  C   C218      1.0  0.50225  0.14806000000000005  0.44892  1.0000
  C   C219      1.0  0.50171  0.17482  0.41781  1.0000
  C   C220      1.0  0.4962500000000001  0.14954000000000003  0.36518000000000006  1.0000
  C   C221      1.0  0.49174  0.09674999999999997  0.34451  1.0000
  C   C222      1.0  0.49326  0.07053  0.37573  1.0000
  C   C223      1.0  0.49141999999999997  0.09734000000000002  0.18148000000000003  1.0000
  C   C224      1.0  0.48695  0.07068  0.21289  1.0000
  C   C225      1.0  0.489  0.09704000000000002  0.2628  1.0000
  C   C226      1.0  0.49460000000000015  0.15044  0.28257  1.0000
  C   C227      1.0  0.4996699999999998  0.17706  0.25147  1.0000
  C   C228      1.0  0.49862  0.15099  0.20171000000000003  1.0000
  C   C229      1.0  0.48772  0.06843  0.12728  1.0000
  C   C230      1.0  0.49933999999999995  0.06660999999999999  0.46075  1.0000
  C   C231      1.0  0.50272  0.38123000000000007  0.43358  1.0000
  C   C232      1.0  0.1252  0.77249  0.26944  1.0000
  C   C233      1.0  0.11453000000000006  0.72388  0.2723  1.0000
  C   C234      1.0  0.08957999999999999  0.67362  0.22383  1.0000
  C   C235      1.0  0.07447999999999999  0.67187  0.17257  1.0000
  C   C236      1.0  0.0827  0.72032  0.16972  1.0000
  C   C237      1.0  0.10844000000000001  0.77084  0.21831  1.0000
  C   C238      1.0  0.33252999999999994  0.90411  0.40242  1.0000
  C   C239      1.0  0.30096  0.85195  0.35425  1.0000
  C   C240      1.0  0.24306000000000005  0.82515  0.32689  1.0000
  C   C241      1.0  0.21566000000000002  0.8504100000000001  0.3466600000000001  1.0000
  C   C242      1.0  0.24775  0.9032  0.39493000000000006  1.0000
  C   C243      1.0  0.30519999999999997  0.9294600000000001  0.4227  1.0000
  C   C244      1.0  0.08404999999999999  0.90273  0.39391  1.0000
  C   C245      1.0  0.14212999999999998  0.92941  0.41604  1.0000
  C   C246      1.0  0.16573000000000002  0.9029899999999998  0.3918400000000001  1.0000
  C   C247      1.0  0.13218000000000008  0.84958  0.3441000000000001  1.0000
  C   C248      1.0  0.07446999999999993  0.82296  0.32258  1.0000
  C   C249      1.0  0.050720000000000064  0.8490100000000002  0.34752  1.0000
  C   C250      1.0  0.05878  0.93166  0.41926  1.0000
  C   C251      1.0  0.39421  0.93351  0.43288  1.0000
  C   C252      1.0  0.05215999999999998  0.61865  0.12158000000000002  1.0000
  N   N1        1.0  0.17486000000000004  0.33227000000000007  0.49475000000000013  1.0000
  N   N2        1.0  0.82513  0.31983000000000006  0.15746  1.0000
  N   N3        1.0  0.16262000000000001  0.66771  0.84274  1.0000
  N   N4        1.0  0.83754  0.68004  0.50525  1.0000
  N   N5        1.0  0.68005  0.50524  0.83755  1.0000
  N   N6        1.0  0.6677  0.84273  0.16262  1.0000
  N   N7        1.0  0.3198199999999999  0.15746  0.82511  1.0000
  N   N8        1.0  0.33231  0.49474  0.17487  1.0000
  N   N9        1.0  0.84275  0.16264  0.66771  1.0000
  N   N10       1.0  0.50525  0.83754  0.68004  1.0000
  N   N11       1.0  0.49475  0.17487000000000003  0.3322800000000001  1.0000
  N   N12       1.0  0.15745999999999993  0.82513  0.31982  1.0000
  O   O1        1.0  0.01697000000000004  0.10806000000000007  0.47382000000000013  1.0000
  O   O2        1.0  0.09694  0.10361  0.49835  1.0000
  O   O3        1.0  0.08857999999999994  0.50741  0.50047  1.0000
  O   O4        1.0  0.020840000000000043  0.43984  0.4989000000000001  1.0000
  O   O5        1.0  0.06850000000000003  0.29179  0.4842900000000001  1.0000
  O   O6        1.0  0.4207999999999999  0.47529999999999994  0.54991  1.0000
  O   O7        1.0  0.38214000000000004  0.41617000000000004  0.4572400000000001  1.0000
  O   O8        1.0  0.9831800000000002  0.45667000000000013  0.09092000000000001  1.0000
  O   O9        1.0  0.9029799999999999  0.40155  0.00667  1.0000
  O   O10       1.0  0.9115600000000005  0.41201  0.41893  1.0000
  O   O11       1.0  0.97922  0.4782400000000001  0.4190400000000001  1.0000
  O   O12       1.0  0.93147  0.41572  0.2233  1.0000
  O   O13       1.0  0.57913  0.12921  0.05445  1.0000
  O   O14       1.0  0.61773  0.07522  0.03377  1.0000
  O   O15       1.0  0.36577000000000004  0.8924  0.90901  1.0000
  O   O16       1.0  0.39476000000000006  0.8968700000000001  0.9934600000000002  1.0000
  O   O17       1.0  0.9930700000000001  0.49252  0.58114  1.0000
  O   O18       1.0  0.05914999999999998  0.56005  0.58103  1.0000
  O   O19       1.0  0.19249000000000002  0.70821  0.77681  1.0000
  O   O20       1.0  0.07432000000000005  0.5246600000000001  0.9459100000000001  1.0000
  O   O21       1.0  0.041170000000000026  0.58413  0.9661900000000001  1.0000
  O   O22       1.0  0.63426  0.54319  0.52661  1.0000
  O   O23       1.0  0.60518  0.5983200000000001  0.50152  1.0000
  O   O24       1.0  0.007019999999999958  0.5881  0.49966  1.0000
  O   O25       1.0  0.9409599999999999  0.52186  0.50112  1.0000
  O   O26       1.0  0.80759  0.58421  0.51579  1.0000
  O   O27       1.0  0.9253900000000002  0.8707500000000002  0.4500000000000001  1.0000
  O   O28       1.0  0.9586700000000001  0.92479  0.54257  1.0000
  O   O29       1.0  0.5431999999999999  0.5266  0.63426  1.0000
  O   O30       1.0  0.59834  0.50152  0.60519  1.0000
  O   O31       1.0  0.5881099999999999  0.49966  0.007020000000000001  1.0000
  O   O32       1.0  0.52187  0.50111  0.94095  1.0000
  O   O33       1.0  0.5842299999999999  0.51579  0.80759  1.0000
  O   O34       1.0  0.87076  0.45  0.92541  1.0000
  O   O35       1.0  0.92479  0.5425700000000001  0.9586500000000001  1.0000
  O   O36       1.0  0.8924299999999998  0.90902  0.36574  1.0000
  O   O37       1.0  0.89683  0.99344  0.39476  1.0000
  O   O38       1.0  0.49252  0.58114  0.99306  1.0000
  O   O39       1.0  0.56005  0.58103  0.05915000000000001  1.0000
  O   O40       1.0  0.7082  0.7768000000000002  0.19249  1.0000
  O   O41       1.0  0.52462  0.94586  0.07427  1.0000
  O   O42       1.0  0.58413  0.9662  0.04118  1.0000
  O   O43       1.0  0.45669000000000015  0.09093000000000005  0.9831400000000002  1.0000
  O   O44       1.0  0.40152999999999994  0.00665000000000003  0.90295  1.0000
  O   O45       1.0  0.41202  0.41893  0.91155  1.0000
  O   O46       1.0  0.47824000000000005  0.4190400000000001  0.97921  1.0000
  O   O47       1.0  0.41570999999999997  0.22329000000000004  0.9314500000000001  1.0000
  O   O48       1.0  0.12918999999999994  0.05443999999999999  0.57912  1.0000
  O   O49       1.0  0.07520000000000004  0.033770000000000064  0.61772  1.0000
  O   O50       1.0  0.10810000000000002  0.47385  0.01702  1.0000
  O   O51       1.0  0.10363999999999998  0.49838  0.09696000000000002  1.0000
  O   O52       1.0  0.50743  0.50048  0.08858000000000002  1.0000
  O   O53       1.0  0.4398599999999999  0.49891  0.020840000000000004  1.0000
  O   O54       1.0  0.29182  0.48428  0.0685  1.0000
  O   O55       1.0  0.47531  0.54991  0.4208  1.0000
  O   O56       1.0  0.41616  0.45725  0.38215  1.0000
  O   O57       1.0  0.90903  0.36575  0.89243  1.0000
  O   O58       1.0  0.9934299999999999  0.39482  0.89682  1.0000
  O   O59       1.0  0.58115  0.9930699999999999  0.49253000000000013  1.0000
  O   O60       1.0  0.58104  0.05915999999999999  0.56007  1.0000
  O   O61       1.0  0.77681  0.1925  0.70821  1.0000
  O   O62       1.0  0.94586  0.07429000000000001  0.52464  1.0000
  O   O63       1.0  0.96619  0.041159999999999995  0.58411  1.0000
  O   O64       1.0  0.52664  0.63427  0.54322  1.0000
  O   O65       1.0  0.5015  0.60516  0.59831  1.0000
  O   O66       1.0  0.49966  0.00701000000000006  0.5881  1.0000
  O   O67       1.0  0.50111  0.94095  0.52187  1.0000
  O   O68       1.0  0.51579  0.80759  0.58422  1.0000
  O   O69       1.0  0.4500099999999998  0.92539  0.87075  1.0000
  O   O70       1.0  0.5425800000000002  0.9586700000000002  0.9248000000000002  1.0000
  O   O71       1.0  0.47384  0.017010000000000004  0.10809  1.0000
  O   O72       1.0  0.49837  0.09696  0.10363000000000001  1.0000
  O   O73       1.0  0.50048  0.08858999999999999  0.50741  1.0000
  O   O74       1.0  0.4989100000000001  0.020840000000000004  0.43984  1.0000
  O   O75       1.0  0.48429  0.06850000000000003  0.2918  1.0000
  O   O76       1.0  0.5499  0.42081  0.4753  1.0000
  O   O77       1.0  0.45724  0.38214  0.41617  1.0000
  O   O78       1.0  0.09093000000000004  0.98313  0.45671000000000006  1.0000
  O   O79       1.0  0.006659999999999956  0.90295  0.40154000000000006  1.0000
  O   O80       1.0  0.41892  0.91156  0.41202  1.0000
  O   O81       1.0  0.41903  0.97922  0.47824  1.0000
  O   O82       1.0  0.22328000000000006  0.93146  0.4157100000000001  1.0000
  O   O83       1.0  0.054469999999999984  0.57914  0.12921  1.0000
  O   O84       1.0  0.033780000000000004  0.61774  0.07522  1.0000
  O   O85       1.0  0.51152  0.51151  0.51152  1.0000
  O   O86       1.0  0.48864  0.00014000000000007534  0.9998600000000001  1.0000
  O   O87       1.0  0.99987  0.48866  0.00014  1.0000
  O   O88       1.0  0.00010999999999994443  0.99988  0.4886  1.0000
