data_image0
_chemical_formula_structural       Cd24H144C240N96O96
_chemical_formula_sum              "Cd24 H144 C240 N96 O96"
_cell_length_a       26.64817
_cell_length_b       26.64717
_cell_length_c       26.64729
_cell_angle_alpha    109.49534
_cell_angle_beta     109.50455
_cell_angle_gamma    109.50463999999998

_space_group_name_H-M_alt    "P 1"
_space_group_IT_number       1

loop_
  _space_group_symop_operation_xyz
  'x, y, z'

loop_
  _atom_site_type_symbol
  _atom_site_label
  _atom_site_symmetry_multiplicity
  _atom_site_fract_x
  _atom_site_fract_y
  _atom_site_fract_z
  _atom_site_occupancy
  Cd  Cd1       1.0  0.14518999999999999  0.85481  0.5  1.0000
  Cd  Cd2       1.0  0.85482  0.35483  0.70965  1.0000
  Cd  Cd3       1.0  0.35482  0.64518  0.5  1.0000
  Cd  Cd4       1.0  0.64517  0.14518  0.29034  1.0000
  Cd  Cd5       1.0  0.70966  0.85482  0.35483  1.0000
  Cd  Cd6       1.0  0.5  0.14519  0.85481  1.0000
  Cd  Cd7       1.0  0.29035  0.64517  0.14518  1.0000
  Cd  Cd8       1.0  0.5  0.3548200000000001  0.64518  1.0000
  Cd  Cd9       1.0  0.14518  0.29034  0.64517  1.0000
  Cd  Cd10      1.0  0.64518  0.5000000000000002  0.35482  1.0000
  Cd  Cd11      1.0  0.35483  0.70965  0.8548200000000001  1.0000
  Cd  Cd12      1.0  0.85481  0.5  0.14519  1.0000
  Cd  Cd13      1.0  0.85481  0.14519  0.5  1.0000
  Cd  Cd14      1.0  0.14518  0.64517  0.29034  1.0000
  Cd  Cd15      1.0  0.64518  0.3548200000000001  0.5  1.0000
  Cd  Cd16      1.0  0.35483  0.85482  0.70965  1.0000
  Cd  Cd17      1.0  0.29034  0.14518  0.64517  1.0000
  Cd  Cd18      1.0  0.5  0.85481  0.14519  1.0000
  Cd  Cd19      1.0  0.70966  0.3548300000000001  0.8548200000000001  1.0000
  Cd  Cd20      1.0  0.5  0.64518  0.35482  1.0000
  Cd  Cd21      1.0  0.85482  0.70966  0.35483  1.0000
  Cd  Cd22      1.0  0.35482  0.5000000000000002  0.64518  1.0000
  Cd  Cd23      1.0  0.64517  0.29034999999999994  0.14518  1.0000
  Cd  Cd24      1.0  0.14519000000000004  0.5  0.85481  1.0000
  H   H1        1.0  0.27617000000000014  0.91256  0.49462  1.0000
  H   H2        1.0  0.10030000000000001  0.87931  0.38064  1.0000
  H   H3        1.0  0.7238199999999999  0.21844999999999992  0.63638  1.0000
  H   H4        1.0  0.89967  0.28029  0.779  1.0000
  H   H5        1.0  0.41807000000000005  0.78168  0.50546  1.0000
  H   H6        1.0  0.49875  0.71968  0.61945  1.0000
  H   H7        1.0  0.58201  0.08742  0.36361  1.0000
  H   H8        1.0  0.5013  0.12072  0.22094  1.0000
  H   H9        1.0  0.63638  0.72382  0.21846  1.0000
  H   H10       1.0  0.7790099999999999  0.89968  0.2803  1.0000
  H   H11       1.0  0.49462000000000017  0.2761700000000001  0.9125500000000001  1.0000
  H   H12       1.0  0.38065  0.10029000000000006  0.8793  1.0000
  H   H13       1.0  0.36361  0.58201  0.08742  1.0000
  H   H14       1.0  0.22094000000000005  0.50131  0.12073000000000002  1.0000
  H   H15       1.0  0.5054699999999999  0.41806999999999994  0.78167  1.0000
  H   H16       1.0  0.61945  0.49874  0.71967  1.0000
  H   H17       1.0  0.08742000000000001  0.36361000000000004  0.58201  1.0000
  H   H18       1.0  0.12072000000000001  0.22094  0.50129  1.0000
  H   H19       1.0  0.7816799999999999  0.50546  0.41805999999999993  1.0000
  H   H20       1.0  0.71968  0.61946  0.49875  1.0000
  H   H21       1.0  0.21845  0.63637  0.72381  1.0000
  H   H22       1.0  0.2802900000000001  0.77901  0.89966  1.0000
  H   H23       1.0  0.9125600000000003  0.49463000000000007  0.27618  1.0000
  H   H24       1.0  0.87932  0.38064  0.1003  1.0000
  H   H25       1.0  0.72383  0.50538  0.08744  1.0000
  H   H26       1.0  0.8997000000000003  0.61936  0.12069  1.0000
  H   H27       1.0  0.27618  0.36362000000000005  0.78154  1.0000
  H   H28       1.0  0.10032999999999997  0.22098999999999994  0.71971  1.0000
  H   H29       1.0  0.58193  0.49453  0.21832  1.0000
  H   H30       1.0  0.50125  0.38055  0.28032  1.0000
  H   H31       1.0  0.41799  0.63639  0.91257  1.0000
  H   H32       1.0  0.49870000000000003  0.77906  0.8792700000000001  1.0000
  H   H33       1.0  0.36362  0.78154  0.27618  1.0000
  H   H34       1.0  0.22099000000000002  0.7197  0.10032  1.0000
  H   H35       1.0  0.50538  0.08743999999999999  0.72383  1.0000
  H   H36       1.0  0.61935  0.12068999999999999  0.8997  1.0000
  H   H37       1.0  0.63639  0.91258  0.41799  1.0000
  H   H38       1.0  0.77907  0.87927  0.49869  1.0000
  H   H39       1.0  0.4945300000000001  0.21832000000000001  0.58193  1.0000
  H   H40       1.0  0.38055  0.28033  0.50125  1.0000
  H   H41       1.0  0.91258  0.4179899999999999  0.63638  1.0000
  H   H42       1.0  0.8792800000000001  0.49871000000000004  0.7790600000000001  1.0000
  H   H43       1.0  0.21832  0.58193  0.49454  1.0000
  H   H44       1.0  0.28032  0.50125  0.38054  1.0000
  H   H45       1.0  0.78155  0.27619  0.36363  1.0000
  H   H46       1.0  0.71971  0.10033  0.22099  1.0000
  H   H47       1.0  0.08744  0.72382  0.50537  1.0000
  H   H48       1.0  0.12068999999999999  0.8997  0.61936  1.0000
  H   H49       1.0  0.72383  0.08744000000000002  0.50538  1.0000
  H   H50       1.0  0.8997000000000003  0.12068999999999999  0.61935  1.0000
  H   H51       1.0  0.27618  0.7815499999999999  0.36362  1.0000
  H   H52       1.0  0.10033000000000006  0.71971  0.22099  1.0000
  H   H53       1.0  0.5819300000000001  0.21832  0.49453  1.0000
  H   H54       1.0  0.50125  0.28031999999999996  0.38055  1.0000
  H   H55       1.0  0.41799  0.91258  0.63639  1.0000
  H   H56       1.0  0.49870000000000003  0.87928  0.7790600000000001  1.0000
  H   H57       1.0  0.36362  0.27618  0.78154  1.0000
  H   H58       1.0  0.22099000000000005  0.10032000000000006  0.7197  1.0000
  H   H59       1.0  0.5053800000000002  0.7238300000000001  0.08745  1.0000
  H   H60       1.0  0.61935  0.8997099999999999  0.12069  1.0000
  H   H61       1.0  0.63639  0.4179899999999999  0.91257  1.0000
  H   H62       1.0  0.7790600000000003  0.49869000000000013  0.8792700000000001  1.0000
  H   H63       1.0  0.49454000000000004  0.58193  0.21832  1.0000
  H   H64       1.0  0.38055  0.50126  0.28033  1.0000
  H   H65       1.0  0.91258  0.63638  0.41798  1.0000
  H   H66       1.0  0.8792800000000001  0.77906  0.49871  1.0000
  H   H67       1.0  0.21832  0.49454  0.58193  1.0000
  H   H68       1.0  0.28032  0.38054  0.50124  1.0000
  H   H69       1.0  0.78155  0.36363000000000006  0.27619  1.0000
  H   H70       1.0  0.71971  0.22099  0.10033  1.0000
  H   H71       1.0  0.08744000000000003  0.5053700000000001  0.72382  1.0000
  H   H72       1.0  0.12067999999999991  0.6193599999999999  0.8996899999999999  1.0000
  H   H73       1.0  0.2761700000000001  0.49462000000000006  0.9125500000000001  1.0000
  H   H74       1.0  0.10029999999999999  0.38064  0.87931  1.0000
  H   H75       1.0  0.72382  0.63638  0.21845  1.0000
  H   H76       1.0  0.89967  0.77901  0.28029  1.0000
  H   H77       1.0  0.41807000000000005  0.50547  0.78168  1.0000
  H   H78       1.0  0.49875  0.61945  0.71968  1.0000
  H   H79       1.0  0.58201  0.36361000000000004  0.08742  1.0000
  H   H80       1.0  0.5013  0.22094  0.12072  1.0000
  H   H81       1.0  0.63638  0.21846000000000004  0.72382  1.0000
  H   H82       1.0  0.77901  0.2803  0.89967  1.0000
  H   H83       1.0  0.49462  0.91255  0.27617  1.0000
  H   H84       1.0  0.38065  0.8793100000000001  0.10029  1.0000
  H   H85       1.0  0.36361  0.08742  0.58201  1.0000
  H   H86       1.0  0.22092999999999996  0.12072999999999998  0.5013  1.0000
  H   H87       1.0  0.50547  0.78168  0.41807  1.0000
  H   H88       1.0  0.61945  0.7196700000000001  0.49874000000000007  1.0000
  H   H89       1.0  0.08741999999999998  0.58201  0.36361  1.0000
  H   H90       1.0  0.12072000000000001  0.50129  0.22093  1.0000
  H   H91       1.0  0.78168  0.41806999999999994  0.50546  1.0000
  H   H92       1.0  0.71968  0.49875  0.61945  1.0000
  H   H93       1.0  0.21845000000000012  0.7238100000000001  0.63637  1.0000
  H   H94       1.0  0.28029000000000004  0.8996700000000001  0.77901  1.0000
  H   H95       1.0  0.9125599999999999  0.27618  0.49463  1.0000
  H   H96       1.0  0.87932  0.10030000000000003  0.38064  1.0000
  H   H97       1.0  0.3869800000000001  0.93474  0.54777  1.0000
  H   H98       1.0  0.6129300000000003  0.16070000000000007  0.54771  1.0000
  H   H99       1.0  0.38707000000000014  0.8393  0.45229  1.0000
  H   H100      1.0  0.6130200000000002  0.06526000000000001  0.45222000000000007  1.0000
  H   H101      1.0  0.54771  0.61294  0.16071  1.0000
  H   H102      1.0  0.5477800000000002  0.38698000000000005  0.93473  1.0000
  H   H103      1.0  0.45222  0.61302  0.06526  1.0000
  H   H104      1.0  0.4522900000000002  0.38706000000000007  0.83928  1.0000
  H   H105      1.0  0.06525999999999998  0.45222  0.61301  1.0000
  H   H106      1.0  0.8393  0.45229  0.38707  1.0000
  H   H107      1.0  0.1607  0.54771  0.61293  1.0000
  H   H108      1.0  0.9347400000000001  0.54778  0.38699000000000006  1.0000
  H   H109      1.0  0.6130200000000002  0.45222  0.06526  1.0000
  H   H110      1.0  0.38706  0.45229  0.83929  1.0000
  H   H111      1.0  0.61294  0.54771  0.1607  1.0000
  H   H112      1.0  0.38698  0.54778  0.93473  1.0000
  H   H113      1.0  0.45228999999999997  0.8392899999999998  0.38706  1.0000
  H   H114      1.0  0.45222  0.06525999999999997  0.61302  1.0000
  H   H115      1.0  0.54778  0.93474  0.38698  1.0000
  H   H116      1.0  0.54771  0.16071  0.61294  1.0000
  H   H117      1.0  0.9347400000000003  0.38699000000000006  0.54777  1.0000
  H   H118      1.0  0.1607  0.61293  0.54771  1.0000
  H   H119      1.0  0.8393  0.38706999999999997  0.45229  1.0000
  H   H120      1.0  0.06526000000000003  0.61301  0.45222000000000007  1.0000
  H   H121      1.0  0.9999800000000001  0.84565  0.28811  1.0000
  H   H122      1.0  0.99998  0.28811  0.8456499999999999  1.0000
  H   H123      1.0  0.5577  0.712  0.712  1.0000
  H   H124      1.0  0.4424000000000001  0.15433  0.15432  1.0000
  H   H125      1.0  0.84566  0.99999  0.28811  1.0000
  H   H126      1.0  0.2881099999999999  0.99998  0.8456499999999999  1.0000
  H   H127      1.0  0.15431999999999998  0.4423999999999999  0.15433  1.0000
  H   H128      1.0  0.712  0.5577000000000001  0.71199  1.0000
  H   H129      1.0  0.15432000000000004  0.15432999999999994  0.4424  1.0000
  H   H130      1.0  0.712  0.712  0.5577  1.0000
  H   H131      1.0  0.28811  0.84565  0.99998  1.0000
  H   H132      1.0  0.84566  0.28812  0.99999  1.0000
  H   H133      1.0  1.9999999999982397e-05  0.71189  0.15435  1.0000
  H   H134      1.0  9.999999999999532e-06  0.15435  0.71189  1.0000
  H   H135      1.0  0.4423000000000001  0.288  0.288  1.0000
  H   H136      1.0  0.5576  0.84567  0.84567  1.0000
  H   H137      1.0  0.15435000000000004  0.71189  1e-05  1.0000
  H   H138      1.0  0.71189  0.15435  2e-05  1.0000
  H   H139      1.0  0.8456799999999998  0.84567  0.55759  1.0000
  H   H140      1.0  0.288  0.288  0.4423  1.0000
  H   H141      1.0  0.84568  0.5576  0.84567  1.0000
  H   H142      1.0  0.288  0.4423  0.288  1.0000
  H   H143      1.0  0.71189  1.999999999999769e-05  0.15435  1.0000
  H   H144      1.0  0.15434  1.0000000000012107e-05  0.71188  1.0000
  C   C1        1.0  0.29446  0.90502  0.53293  1.0000
  C   C2        1.0  0.05495  0.8521400000000001  0.37349999999999994  1.0000
  C   C3        1.0  0.70553  0.23846  0.61054  1.0000
  C   C4        1.0  0.94504  0.31852  0.79719  1.0000
  C   C5        1.0  0.37216999999999995  0.7616299999999999  0.46712  1.0000
  C   C6        1.0  0.4787199999999999  0.6814899999999999  0.62658  1.0000
  C   C7        1.0  0.62789  0.09498  0.38945  1.0000
  C   C8        1.0  0.5213200000000001  0.14788000000000004  0.20278000000000002  1.0000
  C   C9        1.0  0.61055  0.70553  0.23845999999999998  1.0000
  C   C10       1.0  0.7971899999999998  0.9450400000000001  0.31852  1.0000
  C   C11       1.0  0.53293  0.29446000000000006  0.90501  1.0000
  C   C12       1.0  0.3735000000000001  0.05495000000000005  0.85213  1.0000
  C   C13       1.0  0.38945  0.62789  0.09498  1.0000
  C   C14       1.0  0.20278000000000004  0.52133  0.14788  1.0000
  C   C15       1.0  0.46712000000000004  0.37217  0.76162  1.0000
  C   C16       1.0  0.62658  0.47871  0.68148  1.0000
  C   C17       1.0  0.09498000000000001  0.38946  0.62789  1.0000
  C   C18       1.0  0.14788  0.20277  0.52132  1.0000
  C   C19       1.0  0.76163  0.46712000000000004  0.37216  1.0000
  C   C20       1.0  0.6814900000000003  0.6265800000000001  0.47872  1.0000
  C   C21       1.0  0.23846  0.61054  0.70552  1.0000
  C   C22       1.0  0.31852  0.7971900000000001  0.94503  1.0000
  C   C23       1.0  0.9050200000000003  0.53294  0.29447  1.0000
  C   C24       1.0  0.85214  0.3735  0.05495  1.0000
  C   C25       1.0  0.70554  0.46706999999999993  0.09498  1.0000
  C   C26       1.0  0.94505  0.6265  0.14786  1.0000
  C   C27       1.0  0.2944700000000001  0.38946000000000003  0.7615400000000001  1.0000
  C   C28       1.0  0.05496000000000001  0.20281  0.68148  1.0000
  C   C29       1.0  0.6278300000000003  0.53288  0.23837000000000003  1.0000
  C   C30       1.0  0.52128  0.3734199999999999  0.31851  1.0000
  C   C31       1.0  0.3721100000000001  0.61054  0.90502  1.0000
  C   C32       1.0  0.47868  0.79722  0.85212  1.0000
  C   C33       1.0  0.38946  0.76154  0.29446  1.0000
  C   C34       1.0  0.20281000000000002  0.6814799999999999  0.05496  1.0000
  C   C35       1.0  0.46707  0.09498999999999994  0.70554  1.0000
  C   C36       1.0  0.6265  0.14787000000000008  0.94505  1.0000
  C   C37       1.0  0.61055  0.90502  0.37211000000000005  1.0000
  C   C38       1.0  0.7972300000000001  0.8521200000000002  0.47867000000000004  1.0000
  C   C39       1.0  0.53288  0.23837  0.62783  1.0000
  C   C40       1.0  0.37342  0.31852  0.52128  1.0000
  C   C41       1.0  0.9050200000000003  0.37211  0.61054  1.0000
  C   C42       1.0  0.8521200000000001  0.47868  0.7972200000000002  1.0000
  C   C43       1.0  0.23837000000000005  0.62783  0.53288  1.0000
  C   C44       1.0  0.31851  0.52128  0.37341  1.0000
  C   C45       1.0  0.76154  0.29447  0.38946  1.0000
  C   C46       1.0  0.68148  0.05496  0.20281000000000002  1.0000
  C   C47       1.0  0.09498  0.70553  0.46706  1.0000
  C   C48       1.0  0.14785999999999988  0.94505  0.6265  1.0000
  C   C49       1.0  0.70554  0.09497999999999995  0.46707  1.0000
  C   C50       1.0  0.94505  0.14786  0.6265  1.0000
  C   C51       1.0  0.29447  0.76154  0.38945  1.0000
  C   C52       1.0  0.05496000000000002  0.68148  0.20281000000000002  1.0000
  C   C53       1.0  0.6278300000000002  0.23837  0.53288  1.0000
  C   C54       1.0  0.52128  0.31851  0.37342  1.0000
  C   C55       1.0  0.3721100000000001  0.90502  0.61054  1.0000
  C   C56       1.0  0.4786800000000001  0.8521200000000001  0.7972200000000002  1.0000
  C   C57       1.0  0.3894500000000001  0.2944700000000002  0.7615300000000002  1.0000
  C   C58       1.0  0.20281000000000002  0.05495999999999995  0.68147  1.0000
  C   C59       1.0  0.46707  0.70554  0.09499  1.0000
  C   C60       1.0  0.6265  0.94505  0.14787  1.0000
  C   C61       1.0  0.61055  0.37211  0.90502  1.0000
  C   C62       1.0  0.79722  0.47867  0.85212  1.0000
  C   C63       1.0  0.53288  0.6278300000000001  0.23837000000000003  1.0000
  C   C64       1.0  0.37342  0.52129  0.31851  1.0000
  C   C65       1.0  0.9050300000000001  0.61054  0.37211000000000005  1.0000
  C   C66       1.0  0.8521200000000001  0.7972299999999999  0.47868  1.0000
  C   C67       1.0  0.23837000000000005  0.53288  0.62783  1.0000
  C   C68       1.0  0.31851  0.37341  0.52128  1.0000
  C   C69       1.0  0.76154  0.38946  0.29447  1.0000
  C   C70       1.0  0.68148  0.20281  0.05496  1.0000
  C   C71       1.0  0.09498  0.46706000000000003  0.70553  1.0000
  C   C72       1.0  0.14786000000000007  0.6265  0.94504  1.0000
  C   C73       1.0  0.29446  0.53293  0.90501  1.0000
  C   C74       1.0  0.05495000000000001  0.3735  0.85213  1.0000
  C   C75       1.0  0.70553  0.6105399999999999  0.23845999999999998  1.0000
  C   C76       1.0  0.9450400000000001  0.7971900000000001  0.31852  1.0000
  C   C77       1.0  0.37217000000000006  0.46712000000000004  0.76163  1.0000
  C   C78       1.0  0.4787200000000001  0.6265800000000001  0.68149  1.0000
  C   C79       1.0  0.62789  0.38946  0.09498  1.0000
  C   C80       1.0  0.52132  0.20278  0.14788  1.0000
  C   C81       1.0  0.61055  0.23846  0.70553  1.0000
  C   C82       1.0  0.79719  0.31852  0.94503  1.0000
  C   C83       1.0  0.53293  0.90501  0.29446  1.0000
  C   C84       1.0  0.3735000000000001  0.85213  0.05495  1.0000
  C   C85       1.0  0.38945  0.09498  0.62788  1.0000
  C   C86       1.0  0.20278000000000002  0.14787999999999996  0.52133  1.0000
  C   C87       1.0  0.46711999999999987  0.7616299999999999  0.37216999999999995  1.0000
  C   C88       1.0  0.62658  0.68148  0.47871  1.0000
  C   C89       1.0  0.09498  0.62789  0.38946  1.0000
  C   C90       1.0  0.14788  0.52132  0.20277  1.0000
  C   C91       1.0  0.76163  0.37217  0.46711  1.0000
  C   C92       1.0  0.6814900000000003  0.47872  0.62658  1.0000
  C   C93       1.0  0.23846  0.70553  0.61054  1.0000
  C   C94       1.0  0.31852  0.94504  0.79719  1.0000
  C   C95       1.0  0.9050200000000003  0.29447  0.53293  1.0000
  C   C96       1.0  0.85214  0.05494999999999997  0.37349999999999994  1.0000
  C   C97       1.0  0.22878999999999994  0.84613  0.61733  1.0000
  C   C98       1.0  0.27469  0.87231  0.59761  1.0000
  C   C99       1.0  0.35474000000000006  0.9169000000000002  0.56217  1.0000
  C   C100      1.0  0.7712700000000002  0.3886  0.61737  1.0000
  C   C101      1.0  0.72534  0.32295  0.59764  1.0000
  C   C102      1.0  0.6452000000000001  0.20738  0.56212  1.0000
  C   C103      1.0  0.22873  0.6114  0.38263  1.0000
  C   C104      1.0  0.27465999999999996  0.6770499999999999  0.40235999999999994  1.0000
  C   C105      1.0  0.3548  0.79262  0.43788  1.0000
  C   C106      1.0  0.77121  0.15387  0.38267000000000007  1.0000
  C   C107      1.0  0.72531  0.12769  0.40239  1.0000
  C   C108      1.0  0.64526  0.08310000000000001  0.43782  1.0000
  C   C109      1.0  0.61737  0.77126  0.38859000000000005  1.0000
  C   C110      1.0  0.59764  0.72534  0.32294  1.0000
  C   C111      1.0  0.56212  0.64521  0.20739  1.0000
  C   C112      1.0  0.61733  0.22878999999999994  0.8461299999999999  1.0000
  C   C113      1.0  0.59761  0.27469  0.87231  1.0000
  C   C114      1.0  0.5621800000000001  0.35474000000000006  0.9168900000000001  1.0000
  C   C115      1.0  0.38268  0.77121  0.15387  1.0000
  C   C116      1.0  0.40239  0.72531  0.12769  1.0000
  C   C117      1.0  0.4378200000000001  0.64526  0.0831  1.0000
  C   C118      1.0  0.38263  0.22873999999999997  0.6114  1.0000
  C   C119      1.0  0.4023600000000001  0.27466  0.67705  1.0000
  C   C120      1.0  0.43788000000000005  0.35479  0.79261  1.0000
  C   C121      1.0  0.15387000000000012  0.3826700000000001  0.7712100000000001  1.0000
  C   C122      1.0  0.12769  0.40239  0.72531  1.0000
  C   C123      1.0  0.08310000000000002  0.43782  0.64525  1.0000
  C   C124      1.0  0.6114  0.3826300000000001  0.22873  1.0000
  C   C125      1.0  0.67705  0.40236  0.27466  1.0000
  C   C126      1.0  0.79262  0.43788  0.3548  1.0000
  C   C127      1.0  0.38859999999999995  0.6173699999999999  0.77126  1.0000
  C   C128      1.0  0.32295  0.59764  0.72534  1.0000
  C   C129      1.0  0.20737999999999995  0.56212  0.6452  1.0000
  C   C130      1.0  0.8461300000000003  0.61733  0.22878  1.0000
  C   C131      1.0  0.87231  0.59761  0.27469  1.0000
  C   C132      1.0  0.9169  0.56218  0.35474  1.0000
  C   C133      1.0  0.77121  0.38267000000000007  0.15387  1.0000
  C   C134      1.0  0.72531  0.40239  0.12769  1.0000
  C   C135      1.0  0.64526  0.43783  0.0831  1.0000
  C   C136      1.0  0.22873000000000007  0.3826300000000001  0.61139  1.0000
  C   C137      1.0  0.27466  0.40236  0.67705  1.0000
  C   C138      1.0  0.3548  0.43788  0.79261  1.0000
  C   C139      1.0  0.7712700000000002  0.61737  0.3886  1.0000
  C   C140      1.0  0.72534  0.5976400000000001  0.32295  1.0000
  C   C141      1.0  0.6452000000000001  0.56212  0.20738000000000004  1.0000
  C   C142      1.0  0.22879000000000008  0.6173299999999999  0.84612  1.0000
  C   C143      1.0  0.27469  0.59761  0.87231  1.0000
  C   C144      1.0  0.35474000000000006  0.56217  0.9168900000000001  1.0000
  C   C145      1.0  0.38263  0.6114  0.22874000000000003  1.0000
  C   C146      1.0  0.40235999999999994  0.6770499999999999  0.27466  1.0000
  C   C147      1.0  0.43788000000000005  0.79261  0.35479  1.0000
  C   C148      1.0  0.38267000000000007  0.15387  0.7712000000000001  1.0000
  C   C149      1.0  0.40239  0.12769  0.72531  1.0000
  C   C150      1.0  0.4378200000000001  0.08310000000000008  0.64526  1.0000
  C   C151      1.0  0.61733  0.84613  0.22879  1.0000
  C   C152      1.0  0.59761  0.87231  0.27469  1.0000
  C   C153      1.0  0.56218  0.9168999999999999  0.35474  1.0000
  C   C154      1.0  0.61737  0.3886  0.77126  1.0000
  C   C155      1.0  0.59764  0.32295  0.72534  1.0000
  C   C156      1.0  0.56212  0.20739000000000002  0.6452  1.0000
  C   C157      1.0  0.8461300000000003  0.22878  0.61733  1.0000
  C   C158      1.0  0.87231  0.27469  0.59761  1.0000
  C   C159      1.0  0.9169  0.35475000000000007  0.56217  1.0000
  C   C160      1.0  0.3886  0.77127  0.61737  1.0000
  C   C161      1.0  0.32295  0.72534  0.59764  1.0000
  C   C162      1.0  0.20738000000000006  0.6452  0.56212  1.0000
  C   C163      1.0  0.6114  0.22873  0.38262  1.0000
  C   C164      1.0  0.6770500000000002  0.2746600000000001  0.40235  1.0000
  C   C165      1.0  0.79262  0.35480000000000006  0.43788  1.0000
  C   C166      1.0  0.15386999999999998  0.77121  0.38267000000000007  1.0000
  C   C167      1.0  0.12769  0.72531  0.40239  1.0000
  C   C168      1.0  0.08310000000000002  0.64525  0.43782  1.0000
  C   C169      1.0  9.999999999991198e-06  0.78702  0.46024  1.0000
  C   C170      1.0  1.0000000000057858e-05  0.80313  0.40996000000000005  1.0000
  C   C171      1.0  0.99998  0.8332100000000001  0.32299  1.0000
  C   C172      1.0  9.99999999995787e-06  0.46023999999999987  0.7870199999999999  1.0000
  C   C173      1.0  9.999999999974534e-06  0.40996  0.80312  1.0000
  C   C174      1.0  0.9999800000000001  0.32300000000000006  0.8332000000000002  1.0000
  C   C175      1.0  0.32668  0.53968  0.53968  1.0000
  C   C176      1.0  0.39312  0.59001  0.59001  1.0000
  C   C177      1.0  0.51029  0.67706  0.67706  1.0000
  C   C178      1.0  0.67325  0.21298999999999998  0.21299  1.0000
  C   C179      1.0  0.6068500000000002  0.19688000000000003  0.19688  1.0000
  C   C180      1.0  0.4897699999999999  0.16677999999999998  0.16678  1.0000
  C   C181      1.0  0.7870200000000002  1.0000000000012107e-05  0.46024  1.0000
  C   C182      1.0  0.8031300000000001  1.0000000000012107e-05  0.40996000000000005  1.0000
  C   C183      1.0  0.83321  0.99999  0.323  1.0000
  C   C184      1.0  0.4602399999999999  9.999999999941386e-06  0.7870199999999999  1.0000
  C   C185      1.0  0.40996  1.0000000000012107e-05  0.80313  1.0000
  C   C186      1.0  0.32300000000000023  0.9999800000000001  0.8332000000000002  1.0000
  C   C187      1.0  0.21300000000000005  0.67325  0.21299  1.0000
  C   C188      1.0  0.19688  0.60685  0.19688  1.0000
  C   C189      1.0  0.16678000000000007  0.48977  0.16678  1.0000
  C   C190      1.0  0.53969  0.32668  0.53968  1.0000
  C   C191      1.0  0.59001  0.39312  0.59001  1.0000
  C   C192      1.0  0.67706  0.51029  0.67705  1.0000
  C   C193      1.0  0.21299  0.21298999999999998  0.67325  1.0000
  C   C194      1.0  0.19687999999999997  0.19688000000000003  0.60685  1.0000
  C   C195      1.0  0.16678000000000007  0.16677999999999998  0.48976  1.0000
  C   C196      1.0  0.53969  0.53969  0.32668  1.0000
  C   C197      1.0  0.59001  0.59001  0.39312  1.0000
  C   C198      1.0  0.67706  0.67706  0.51029  1.0000
  C   C199      1.0  0.4602400000000001  0.78702  1e-05  1.0000
  C   C200      1.0  0.40996  0.80313  1e-05  1.0000
  C   C201      1.0  0.32299999999999995  0.8332  0.99998  1.0000
  C   C202      1.0  0.7870200000000003  0.46024  1e-05  1.0000
  C   C203      1.0  0.8031300000000001  0.40996  1e-05  1.0000
  C   C204      1.0  0.83321  0.32299999999999995  0.99999  1.0000
  C   C205      1.0  0.9999900000000003  0.5397600000000001  0.21298000000000003  1.0000
  C   C206      1.0  0.99999  0.59004  0.19687  1.0000
  C   C207      1.0  9.999999999991198e-06  0.677  0.16679  1.0000
  C   C208      1.0  0.9999899999999999  0.21297999999999997  0.53976  1.0000
  C   C209      1.0  0.9999899999999999  0.19687  0.59003  1.0000
  C   C210      1.0  9.999999999991198e-06  0.16679000000000002  0.677  1.0000
  C   C211      1.0  0.67333  0.46031  0.46031  1.0000
  C   C212      1.0  0.60688  0.40999  0.4099900000000001  1.0000
  C   C213      1.0  0.48971  0.32294  0.32294  1.0000
  C   C214      1.0  0.3267500000000001  0.78701  0.787  1.0000
  C   C215      1.0  0.39314999999999994  0.80312  0.80312  1.0000
  C   C216      1.0  0.51023  0.83322  0.8332100000000001  1.0000
  C   C217      1.0  0.21297999999999997  0.53976  0.99999  1.0000
  C   C218      1.0  0.19687000000000002  0.59004  0.99999  1.0000
  C   C219      1.0  0.16679  0.677  1e-05  1.0000
  C   C220      1.0  0.5397599999999999  0.21297999999999995  0.99999  1.0000
  C   C221      1.0  0.59004  0.19686999999999996  0.99999  1.0000
  C   C222      1.0  0.677  0.16680000000000003  2e-05  1.0000
  C   C223      1.0  0.78701  0.78701  0.32675  1.0000
  C   C224      1.0  0.8031200000000002  0.80312  0.39315000000000005  1.0000
  C   C225      1.0  0.83322  0.83322  0.51023  1.0000
  C   C226      1.0  0.46031  0.46031  0.67332  1.0000
  C   C227      1.0  0.40999  0.40999  0.60688  1.0000
  C   C228      1.0  0.32294  0.32294  0.48971  1.0000
  C   C229      1.0  0.78701  0.32674999999999993  0.787  1.0000
  C   C230      1.0  0.8031200000000002  0.39315  0.80312  1.0000
  C   C231      1.0  0.83322  0.51023  0.8332100000000001  1.0000
  C   C232      1.0  0.46031  0.67332  0.46031  1.0000
  C   C233      1.0  0.4099900000000001  0.6068800000000002  0.4099900000000001  1.0000
  C   C234      1.0  0.32294000000000006  0.4897100000000001  0.32294  1.0000
  C   C235      1.0  0.53976  0.99999  0.21297  1.0000
  C   C236      1.0  0.59004  0.99999  0.19687  1.0000
  C   C237      1.0  0.6770000000000005  1.999999999998885e-05  0.1668  1.0000
  C   C238      1.0  0.21298  0.99999  0.53976  1.0000
  C   C239      1.0  0.19687000000000002  0.99999  0.59004  1.0000
  C   C240      1.0  0.16679  1.0000000000012107e-05  0.677  1.0000
  N   N1        1.0  0.25477999999999995  0.8828799999999999  0.5509  1.0000
  N   N2        1.0  0.05457  0.83698  0.41675000000000006  1.0000
  N   N3        1.0  0.74526  0.29616  0.62811  1.0000
  N   N4        1.0  0.94543  0.36216  0.78243  1.0000
  N   N5        1.0  0.33201000000000014  0.70393  0.44911  1.0000
  N   N6        1.0  0.42022  0.63778  0.58326  1.0000
  N   N7        1.0  0.668  0.11712  0.37192  1.0000
  N   N8        1.0  0.57976  0.16304  0.21756  1.0000
  N   N9        1.0  0.62811  0.7452600000000001  0.29616  1.0000
  N   N10       1.0  0.7824400000000005  0.94543  0.36216  1.0000
  N   N11       1.0  0.5509  0.25478  0.88288  1.0000
  N   N12       1.0  0.41675  0.05457000000000001  0.83697  1.0000
  N   N13       1.0  0.37193  0.668  0.11712  1.0000
  N   N14       1.0  0.21756  0.57977  0.16304  1.0000
  N   N15       1.0  0.4491100000000002  0.33201  0.70393  1.0000
  N   N16       1.0  0.58326  0.4202099999999999  0.63778  1.0000
  N   N17       1.0  0.11712000000000006  0.37193  0.668  1.0000
  N   N18       1.0  0.16304000000000002  0.21755  0.57976  1.0000
  N   N19       1.0  0.70393  0.44911  0.332  1.0000
  N   N20       1.0  0.6377800000000001  0.5832700000000002  0.42022  1.0000
  N   N21       1.0  0.29616  0.6281099999999998  0.74526  1.0000
  N   N22       1.0  0.36216000000000004  0.78243  0.94543  1.0000
  N   N23       1.0  0.8828800000000002  0.5509  0.25478  1.0000
  N   N24       1.0  0.83698  0.41675  0.054569999999999994  1.0000
  N   N25       1.0  0.74522  0.4491  0.11712  1.0000
  N   N26       1.0  0.94543  0.58325  0.16302  1.0000
  N   N27       1.0  0.25474  0.37189  0.70384  1.0000
  N   N28       1.0  0.05457  0.21756999999999996  0.63784  1.0000
  N   N29       1.0  0.6679900000000001  0.55089  0.29607  1.0000
  N   N30       1.0  0.57978  0.41674  0.36221  1.0000
  N   N31       1.0  0.3320000000000002  0.6280700000000002  0.88287  1.0000
  N   N32       1.0  0.42024000000000017  0.78244  0.8369500000000001  1.0000
  N   N33       1.0  0.37189  0.70384  0.25474  1.0000
  N   N34       1.0  0.21757  0.63783  0.054569999999999994  1.0000
  N   N35       1.0  0.4491  0.11711999999999999  0.74522  1.0000
  N   N36       1.0  0.5832499999999999  0.16301999999999994  0.94542  1.0000
  N   N37       1.0  0.62807  0.8828799999999999  0.332  1.0000
  N   N38       1.0  0.78245  0.8369600000000003  0.42023000000000005  1.0000
  N   N39       1.0  0.55089  0.29606  0.66799  1.0000
  N   N40       1.0  0.41674000000000005  0.36222  0.57978  1.0000
  N   N41       1.0  0.8828800000000002  0.33199  0.62807  1.0000
  N   N42       1.0  0.83696  0.42024  0.78244  1.0000
  N   N43       1.0  0.29607  0.668  0.55089  1.0000
  N   N44       1.0  0.36222000000000004  0.57978  0.41672999999999993  1.0000
  N   N45       1.0  0.70384  0.25474  0.37189  1.0000
  N   N46       1.0  0.6378400000000002  0.05456999999999998  0.21756  1.0000
  N   N47       1.0  0.11712000000000004  0.7452200000000001  0.44909000000000004  1.0000
  N   N48       1.0  0.16302  0.94543  0.58325  1.0000
  N   N49       1.0  0.74522  0.11712  0.4491  1.0000
  N   N50       1.0  0.94543  0.16302  0.58325  1.0000
  N   N51       1.0  0.25474  0.70384  0.37189  1.0000
  N   N52       1.0  0.05457  0.6378399999999999  0.21757  1.0000
  N   N53       1.0  0.6679900000000001  0.29607  0.55088  1.0000
  N   N54       1.0  0.57978  0.36222  0.41672999999999993  1.0000
  N   N55       1.0  0.332  0.8828799999999999  0.62807  1.0000
  N   N56       1.0  0.42024  0.83696  0.78244  1.0000
  N   N57       1.0  0.37189  0.25474  0.70384  1.0000
  N   N58       1.0  0.21756999999999999  0.05457000000000004  0.63783  1.0000
  N   N59       1.0  0.44910000000000017  0.7452200000000001  0.11712  1.0000
  N   N60       1.0  0.58325  0.94543  0.16302  1.0000
  N   N61       1.0  0.62807  0.3320000000000001  0.88287  1.0000
  N   N62       1.0  0.78244  0.42023  0.8369500000000001  1.0000
  N   N63       1.0  0.5508899999999999  0.6679899999999999  0.29606  1.0000
  N   N64       1.0  0.41674000000000005  0.57979  0.36222  1.0000
  N   N65       1.0  0.8828800000000002  0.62807  0.33199  1.0000
  N   N66       1.0  0.83696  0.78245  0.42024  1.0000
  N   N67       1.0  0.29607  0.55089  0.66799  1.0000
  N   N68       1.0  0.36222000000000004  0.41673  0.57978  1.0000
  N   N69       1.0  0.70384  0.37189  0.25474  1.0000
  N   N70       1.0  0.6378400000000002  0.21756  0.054569999999999994  1.0000
  N   N71       1.0  0.11712  0.4491  0.74521  1.0000
  N   N72       1.0  0.16302  0.58325  0.94542  1.0000
  N   N73       1.0  0.25478  0.5509  0.88288  1.0000
  N   N74       1.0  0.054570000000000014  0.41675  0.83698  1.0000
  N   N75       1.0  0.74527  0.62811  0.29616  1.0000
  N   N76       1.0  0.94543  0.78243  0.36216  1.0000
  N   N77       1.0  0.33201000000000014  0.44911  0.70393  1.0000
  N   N78       1.0  0.42022  0.58326  0.63778  1.0000
  N   N79       1.0  0.668  0.37193  0.11712  1.0000
  N   N80       1.0  0.57976  0.21756  0.16304  1.0000
  N   N81       1.0  0.62811  0.29615999999999987  0.74526  1.0000
  N   N82       1.0  0.78243  0.36216  0.94543  1.0000
  N   N83       1.0  0.5509  0.8828800000000001  0.25478  1.0000
  N   N84       1.0  0.41675  0.83698  0.054569999999999994  1.0000
  N   N85       1.0  0.37193  0.11711999999999996  0.668  1.0000
  N   N86       1.0  0.21756000000000003  0.16304  0.57976  1.0000
  N   N87       1.0  0.44912  0.70393  0.33201  1.0000
  N   N88       1.0  0.58326  0.63778  0.42021  1.0000
  N   N89       1.0  0.11712  0.6680099999999999  0.37193000000000004  1.0000
  N   N90       1.0  0.16304  0.57976  0.21755  1.0000
  N   N91       1.0  0.70393  0.332  0.44911  1.0000
  N   N92       1.0  0.63778  0.4202199999999999  0.58327  1.0000
  N   N93       1.0  0.29616000000000003  0.7452600000000001  0.62811  1.0000
  N   N94       1.0  0.36216000000000004  0.94543  0.78243  1.0000
  N   N95       1.0  0.8828799999999999  0.25478  0.5509  1.0000
  N   N96       1.0  0.83698  0.05457000000000003  0.41674  1.0000
  O   O1        1.0  0.17509999999999998  0.83629  0.58767  1.0000
  O   O2        1.0  0.05203  0.8071  0.50474  1.0000
  O   O3        1.0  0.825  0.41267  0.66122  1.0000
  O   O4        1.0  0.948  0.45270000000000005  0.7551  1.0000
  O   O5        1.0  0.24858000000000005  0.58744  0.41229000000000005  1.0000
  O   O6        1.0  0.30226000000000003  0.54719  0.49521  1.0000
  O   O7        1.0  0.75139  0.16373  0.33887  1.0000
  O   O8        1.0  0.69766  0.19294000000000003  0.24491  1.0000
  O   O9        1.0  0.66123  0.82499  0.41266  1.0000
  O   O10       1.0  0.7551000000000001  0.948  0.4527  1.0000
  O   O11       1.0  0.5876700000000001  0.1751100000000001  0.8362900000000001  1.0000
  O   O12       1.0  0.50474  0.05203999999999999  0.80709  1.0000
  O   O13       1.0  0.33887  0.75138  0.16372  1.0000
  O   O14       1.0  0.24491  0.69766  0.19294  1.0000
  O   O15       1.0  0.4123  0.24859000000000003  0.58744  1.0000
  O   O16       1.0  0.49521  0.3022600000000001  0.54718  1.0000
  O   O17       1.0  0.16372000000000003  0.33887  0.75139  1.0000
  O   O18       1.0  0.19294000000000003  0.2449  0.69765  1.0000
  O   O19       1.0  0.58744  0.41229  0.24858  1.0000
  O   O20       1.0  0.54719  0.4952200000000001  0.30227  1.0000
  O   O21       1.0  0.41267  0.66122  0.8249900000000001  1.0000
  O   O22       1.0  0.45269000000000004  0.75511  0.948  1.0000
  O   O23       1.0  0.83629  0.58768  0.1751  1.0000
  O   O24       1.0  0.8071  0.50473  0.05203000000000001  1.0000
  O   O25       1.0  0.8249  0.41233  0.16371  1.0000
  O   O26       1.0  0.9479700000000001  0.49526  0.1929  1.0000
  O   O27       1.0  0.175  0.33877  0.58732  1.0000
  O   O28       1.0  0.052  0.2449  0.5473  1.0000
  O   O29       1.0  0.75142  0.5877  0.41256000000000004  1.0000
  O   O30       1.0  0.69774  0.50479  0.45281  1.0000
  O   O31       1.0  0.24860999999999994  0.66113  0.83627  1.0000
  O   O32       1.0  0.30234000000000005  0.7550899999999999  0.8070500000000002  1.0000
  O   O33       1.0  0.33877  0.58733  0.17501  1.0000
  O   O34       1.0  0.24490000000000003  0.5473  0.052000000000000005  1.0000
  O   O35       1.0  0.41233000000000003  0.1637099999999999  0.82489  1.0000
  O   O36       1.0  0.49526  0.19290000000000002  0.94796  1.0000
  O   O37       1.0  0.66113  0.8362799999999999  0.24862  1.0000
  O   O38       1.0  0.7550900000000001  0.80706  0.30234  1.0000
  O   O39       1.0  0.5877  0.41255000000000003  0.75141  1.0000
  O   O40       1.0  0.50479  0.45281  0.69774  1.0000
  O   O41       1.0  0.83628  0.24861000000000008  0.66112  1.0000
  O   O42       1.0  0.8070600000000002  0.30235  0.75509  1.0000
  O   O43       1.0  0.4125599999999999  0.7514199999999999  0.58771  1.0000
  O   O44       1.0  0.45281  0.69773  0.50477  1.0000
  O   O45       1.0  0.58733  0.175  0.33877  1.0000
  O   O46       1.0  0.54731  0.051990000000000036  0.24489000000000002  1.0000
  O   O47       1.0  0.16370999999999997  0.8248999999999999  0.41232  1.0000
  O   O48       1.0  0.19290000000000007  0.94797  0.49527  1.0000
  O   O49       1.0  0.8249  0.16371  0.41232  1.0000
  O   O50       1.0  0.9479700000000001  0.19290000000000002  0.49526  1.0000
  O   O51       1.0  0.17499999999999996  0.58733  0.33877  1.0000
  O   O52       1.0  0.052  0.5473  0.2449  1.0000
  O   O53       1.0  0.75142  0.41256000000000004  0.5877  1.0000
  O   O54       1.0  0.69774  0.45281  0.50478  1.0000
  O   O55       1.0  0.24861  0.83627  0.66113  1.0000
  O   O56       1.0  0.30235  0.80706  0.75509  1.0000
  O   O57       1.0  0.3387699999999999  0.17501  0.58733  1.0000
  O   O58       1.0  0.24490000000000003  0.05199999999999998  0.5473  1.0000
  O   O59       1.0  0.41233000000000003  0.82489  0.16371  1.0000
  O   O60       1.0  0.49526  0.9479600000000001  0.1929  1.0000
  O   O61       1.0  0.66113  0.24862000000000006  0.8362800000000001  1.0000
  O   O62       1.0  0.7550900000000001  0.30234000000000005  0.8070500000000002  1.0000
  O   O63       1.0  0.5877  0.75141  0.41255  1.0000
  O   O64       1.0  0.50479  0.69774  0.45281  1.0000
  O   O65       1.0  0.83628  0.66113  0.24861  1.0000
  O   O66       1.0  0.8070600000000002  0.7551  0.30235  1.0000
  O   O67       1.0  0.41256  0.58771  0.75142  1.0000
  O   O68       1.0  0.45281  0.50478  0.69773  1.0000
  O   O69       1.0  0.58733  0.33878  0.175  1.0000
  O   O70       1.0  0.54731  0.24489  0.05199  1.0000
  O   O71       1.0  0.16371  0.41232  0.82489  1.0000
  O   O72       1.0  0.19290000000000004  0.49527  0.94797  1.0000
  O   O73       1.0  0.17510000000000017  0.5876700000000001  0.8362800000000001  1.0000
  O   O74       1.0  0.052029999999999965  0.50474  0.80709  1.0000
  O   O75       1.0  0.825  0.6612299999999999  0.41267  1.0000
  O   O76       1.0  0.948  0.7551  0.4527  1.0000
  O   O77       1.0  0.24858  0.41229  0.58743  1.0000
  O   O78       1.0  0.30226000000000003  0.49521  0.54718  1.0000
  O   O79       1.0  0.75139  0.33887  0.16372  1.0000
  O   O80       1.0  0.69766  0.24491  0.19294  1.0000
  O   O81       1.0  0.66123  0.41267  0.8249900000000001  1.0000
  O   O82       1.0  0.7551000000000002  0.45269999999999994  0.9479899999999999  1.0000
  O   O83       1.0  0.58767  0.83629  0.17511  1.0000
  O   O84       1.0  0.50474  0.8071  0.05204  1.0000
  O   O85       1.0  0.33887  0.16371999999999992  0.75138  1.0000
  O   O86       1.0  0.24491000000000002  0.19293999999999997  0.69765  1.0000
  O   O87       1.0  0.4123  0.58745  0.24859  1.0000
  O   O88       1.0  0.49521  0.54719  0.30226  1.0000
  O   O89       1.0  0.16373000000000004  0.75139  0.33887  1.0000
  O   O90       1.0  0.19295000000000007  0.69765  0.2449  1.0000
  O   O91       1.0  0.58744  0.24858000000000002  0.41229000000000005  1.0000
  O   O92       1.0  0.54719  0.30227  0.49522  1.0000
  O   O93       1.0  0.41267  0.82499  0.66122  1.0000
  O   O94       1.0  0.45269000000000004  0.94801  0.7551  1.0000
  O   O95       1.0  0.83629  0.17509999999999998  0.58768  1.0000
  O   O96       1.0  0.8071  0.052030000000000014  0.50473  1.0000
