data_image0
_chemical_formula_structural       Cu36H216C192I24N48
_chemical_formula_sum              "Cu36 H216 C192 I24 N48"
_cell_length_a       22.39702
_cell_length_b       22.397070000000003
_cell_length_c       22.34005
_cell_angle_alpha    90.0
_cell_angle_beta     90.0
_cell_angle_gamma    120.09005

_space_group_name_H-M_alt    "P 1"
_space_group_IT_number       1

loop_
  _space_group_symop_operation_xyz
  'x, y, z'

loop_
  _atom_site_type_symbol
  _atom_site_label
  _atom_site_symmetry_multiplicity
  _atom_site_fract_x
  _atom_site_fract_y
  _atom_site_fract_z
  _atom_site_occupancy
  Cu  Cu1       1.0  0.47900000000000004  0.762  0.46838  1.0000
  Cu  Cu2       1.0  0.57129  0.8389  0.39112  1.0000
  Cu  Cu3       1.0  0.28305  0.52097  0.13502  1.0000
  Cu  Cu4       1.0  0.26768000000000003  0.42873000000000006  0.05776  1.0000
  Cu  Cu5       1.0  0.23797000000000007  0.71692  0.80165  1.0000
  Cu  Cu6       1.0  0.16109  0.73237  0.72449  1.0000
  Cu  Cu7       1.0  0.5209900000000001  0.238  0.9683799999999999  1.0000
  Cu  Cu8       1.0  0.4287100000000001  0.16109  0.89112  1.0000
  Cu  Cu9       1.0  0.71694  0.47903  0.63502  1.0000
  Cu  Cu10      1.0  0.73232  0.57127  0.55776  1.0000
  Cu  Cu11      1.0  0.76203  0.28308  0.30165  1.0000
  Cu  Cu12      1.0  0.8389100000000002  0.26763  0.22448999999999997  1.0000
  Cu  Cu13      1.0  0.7169200000000001  0.23797  0.19834999999999997  1.0000
  Cu  Cu14      1.0  0.73237  0.16109  0.27551  1.0000
  Cu  Cu15      1.0  0.762  0.47900000000000004  0.5316199999999999  1.0000
  Cu  Cu16      1.0  0.8389  0.57129  0.6088899999999999  1.0000
  Cu  Cu17      1.0  0.52097  0.28305  0.8649799999999999  1.0000
  Cu  Cu18      1.0  0.42873000000000006  0.26768  0.94224  1.0000
  Cu  Cu19      1.0  0.28308  0.76203  0.69835  1.0000
  Cu  Cu20      1.0  0.2676300000000001  0.83891  0.77551  1.0000
  Cu  Cu21      1.0  0.238  0.52099  0.03162  1.0000
  Cu  Cu22      1.0  0.16109000000000004  0.42871000000000004  0.10888  1.0000
  Cu  Cu23      1.0  0.47903  0.71694  0.3649799999999999  1.0000
  Cu  Cu24      1.0  0.5712700000000002  0.73232  0.44224  1.0000
  Cu  Cu25      1.0  0.14084  0.9146399999999999  0.6100299999999999  1.0000
  Cu  Cu26      1.0  0.7736700000000002  0.85908  0.27665999999999996  1.0000
  Cu  Cu27      1.0  0.08549999999999999  0.22618999999999997  0.94327  1.0000
  Cu  Cu28      1.0  0.8591600000000001  0.08535  0.11003  1.0000
  Cu  Cu29      1.0  0.22633  0.14092  0.7766599999999999  1.0000
  Cu  Cu30      1.0  0.9144900000000002  0.77381  0.44326999999999994  1.0000
  Cu  Cu31      1.0  0.22619000000000003  0.0855  0.05673  1.0000
  Cu  Cu32      1.0  0.91464  0.14083  0.38997  1.0000
  Cu  Cu33      1.0  0.85908  0.77367  0.7233399999999998  1.0000
  Cu  Cu34      1.0  0.77381  0.9144899999999999  0.55674  1.0000
  Cu  Cu35      1.0  0.08536  0.85916  0.88998  1.0000
  Cu  Cu36      1.0  0.14092000000000002  0.22633  0.22333999999999998  1.0000
  H   H1        1.0  0.4832400000000001  0.75927  0.60523  1.0000
  H   H2        1.0  0.41889000000000004  0.67758  0.57853  1.0000
  H   H3        1.0  0.42690999999999996  0.8567599999999999  0.51599  1.0000
  H   H4        1.0  0.49360000000000015  0.8632000000000001  0.56289  1.0000
  H   H5        1.0  0.33075  0.67028  0.51386  1.0000
  H   H6        1.0  0.3379500000000001  0.74548  0.48079  1.0000
  H   H7        1.0  0.7091100000000001  0.9265599999999999  0.32827  1.0000
  H   H8        1.0  0.72114  0.97188  0.39658  1.0000
  H   H9        1.0  0.54215  0.91134  0.29679  1.0000
  H   H10       1.0  0.6135300000000001  0.90865  0.26546  1.0000
  H   H11       1.0  0.62829  0.98055  0.4406699999999999  1.0000
  H   H12       1.0  0.5597  0.96948  0.39348  1.0000
  H   H13       1.0  0.27585  0.51661  0.27177  1.0000
  H   H14       1.0  0.25852  0.58088  0.24509999999999998  1.0000
  H   H15       1.0  0.4298900000000001  0.57324  0.18267999999999998  1.0000
  H   H16       1.0  0.36957  0.50649  0.22953999999999994  1.0000
  H   H17       1.0  0.33962  0.66923  0.18051  1.0000
  H   H18       1.0  0.40765000000000007  0.66206  0.14748  1.0000
  H   H19       1.0  0.21732  0.29079  0.9949099999999999  1.0000
  H   H20       1.0  0.2506  0.27882  0.06325  1.0000
  H   H21       1.0  0.36939  0.45780000000000004  0.9633999999999999  1.0000
  H   H22       1.0  0.29521000000000003  0.38638  0.93204  1.0000
  H   H23       1.0  0.35229000000000005  0.37174  0.10733  1.0000
  H   H24       1.0  0.40987000000000007  0.44035  0.06010999999999999  1.0000
  H   H25       1.0  0.24087000000000003  0.7241  0.93854  1.0000
  H   H26       1.0  0.32251  0.74147  0.91179  1.0000
  H   H27       1.0  0.14326  0.56999  0.8493799999999999  1.0000
  H   H28       1.0  0.13680000000000006  0.63022  0.8962799999999999  1.0000
  H   H29       1.0  0.32969  0.6606  0.84714  1.0000
  H   H30       1.0  0.25442  0.5925  0.8141  1.0000
  H   H31       1.0  0.07370999999999998  0.78269  0.66162  1.0000
  H   H32       1.0  0.02838000000000005  0.74941  0.72994  1.0000
  H   H33       1.0  0.08851  0.6308  0.63005  1.0000
  H   H34       1.0  0.09131000000000006  0.70493  0.59876  1.0000
  H   H35       1.0  0.019359999999999992  0.64768  0.77397  1.0000
  H   H36       1.0  0.030319999999999986  0.59013  0.72675  1.0000
  H   H37       1.0  0.51676  0.24073  0.10523  1.0000
  H   H38       1.0  0.58111  0.32242  0.07853  1.0000
  H   H39       1.0  0.5730800000000001  0.14324  0.01598  1.0000
  H   H40       1.0  0.5064  0.1368  0.06289  1.0000
  H   H41       1.0  0.66925  0.32972  0.013859999999999999  1.0000
  H   H42       1.0  0.6620500000000001  0.25451  0.98079  1.0000
  H   H43       1.0  0.29089000000000004  0.07344  0.82827  1.0000
  H   H44       1.0  0.27886  0.028110000000000003  0.8965799999999999  1.0000
  H   H45       1.0  0.45785  0.08866  0.7967899999999999  1.0000
  H   H46       1.0  0.38647  0.09135  0.76547  1.0000
  H   H47       1.0  0.3717100000000001  0.01945  0.94067  1.0000
  H   H48       1.0  0.44029000000000007  0.03052  0.8934799999999998  1.0000
  H   H49       1.0  0.72415  0.48339  0.77177  1.0000
  H   H50       1.0  0.74148  0.41912  0.7450999999999998  1.0000
  H   H51       1.0  0.57011  0.42676  0.68268  1.0000
  H   H52       1.0  0.63043  0.49351  0.7295399999999999  1.0000
  H   H53       1.0  0.6603800000000001  0.33076  0.6805199999999999  1.0000
  H   H54       1.0  0.5923500000000002  0.33794  0.64749  1.0000
  H   H55       1.0  0.78268  0.7092  0.4948999999999999  1.0000
  H   H56       1.0  0.7494000000000001  0.72118  0.56325  1.0000
  H   H57       1.0  0.6306100000000001  0.5422  0.4634  1.0000
  H   H58       1.0  0.70479  0.61362  0.43204  1.0000
  H   H59       1.0  0.6477100000000001  0.62826  0.60733  1.0000
  H   H60       1.0  0.59013  0.55964  0.56011  1.0000
  H   H61       1.0  0.7591300000000002  0.2759  0.43853999999999993  1.0000
  H   H62       1.0  0.67749  0.25853  0.41179  1.0000
  H   H63       1.0  0.8567400000000002  0.43000999999999995  0.34938  1.0000
  H   H64       1.0  0.8632  0.36978  0.39627999999999997  1.0000
  H   H65       1.0  0.67031  0.3394  0.34713  1.0000
  H   H66       1.0  0.74558  0.4075  0.31409  1.0000
  H   H67       1.0  0.9262900000000002  0.21731  0.16162  1.0000
  H   H68       1.0  0.9716200000000003  0.25059  0.22993999999999998  1.0000
  H   H69       1.0  0.9114900000000001  0.3692  0.13005  1.0000
  H   H70       1.0  0.9086900000000002  0.29507  0.09876  1.0000
  H   H71       1.0  0.98064  0.35232  0.27397  1.0000
  H   H72       1.0  0.9696800000000004  0.40987  0.22674999999999998  1.0000
  H   H73       1.0  0.7241000000000002  0.24087000000000003  0.061459999999999994  1.0000
  H   H74       1.0  0.74147  0.32251  0.08821  1.0000
  H   H75       1.0  0.5699900000000001  0.14326  0.15062  1.0000
  H   H76       1.0  0.63022  0.1368  0.10371999999999999  1.0000
  H   H77       1.0  0.6606  0.32969  0.15286999999999998  1.0000
  H   H78       1.0  0.5925000000000002  0.25442  0.18590999999999996  1.0000
  H   H79       1.0  0.7826900000000001  0.07371  0.33838  1.0000
  H   H80       1.0  0.7494100000000002  0.02838  0.27005999999999997  1.0000
  H   H81       1.0  0.6308000000000001  0.08851  0.36995  1.0000
  H   H82       1.0  0.7049300000000001  0.0913  0.40125  1.0000
  H   H83       1.0  0.6476800000000001  0.01936  0.22602999999999998  1.0000
  H   H84       1.0  0.59013  0.03032  0.27325  1.0000
  H   H85       1.0  0.75927  0.48324  0.3947699999999999  1.0000
  H   H86       1.0  0.67758  0.41889  0.42146999999999996  1.0000
  H   H87       1.0  0.8567600000000001  0.42690999999999996  0.4840199999999999  1.0000
  H   H88       1.0  0.8632  0.4936  0.43711  1.0000
  H   H89       1.0  0.67028  0.33075  0.48613999999999996  1.0000
  H   H90       1.0  0.7454800000000001  0.33795  0.51922  1.0000
  H   H91       1.0  0.92656  0.70911  0.67173  1.0000
  H   H92       1.0  0.9718900000000001  0.72114  0.60342  1.0000
  H   H93       1.0  0.9113400000000001  0.54215  0.70321  1.0000
  H   H94       1.0  0.90865  0.61353  0.73454  1.0000
  H   H95       1.0  0.9805500000000001  0.62829  0.55933  1.0000
  H   H96       1.0  0.96948  0.5597  0.60652  1.0000
  H   H97       1.0  0.51661  0.27585  0.72823  1.0000
  H   H98       1.0  0.58088  0.25852  0.75491  1.0000
  H   H99       1.0  0.57324  0.42989  0.8173299999999999  1.0000
  H   H100      1.0  0.50649  0.36957  0.7704599999999998  1.0000
  H   H101      1.0  0.66923  0.33962  0.81949  1.0000
  H   H102      1.0  0.6620600000000001  0.40764  0.85252  1.0000
  H   H103      1.0  0.29079000000000005  0.21732  0.0051  1.0000
  H   H104      1.0  0.27882  0.2506  0.9367499999999999  1.0000
  H   H105      1.0  0.4578  0.36939  0.036599999999999994  1.0000
  H   H106      1.0  0.3863800000000001  0.29521  0.06797  1.0000
  H   H107      1.0  0.37174000000000007  0.35229  0.89268  1.0000
  H   H108      1.0  0.44035  0.40987  0.9399  1.0000
  H   H109      1.0  0.2759000000000001  0.75912  0.56146  1.0000
  H   H110      1.0  0.25853  0.67749  0.58821  1.0000
  H   H111      1.0  0.43001  0.85674  0.6506199999999999  1.0000
  H   H112      1.0  0.3697800000000001  0.8632000000000001  0.60373  1.0000
  H   H113      1.0  0.3394  0.67031  0.65287  1.0000
  H   H114      1.0  0.4075000000000001  0.74558  0.68591  1.0000
  H   H115      1.0  0.21731000000000003  0.92629  0.8383799999999999  1.0000
  H   H116      1.0  0.25059  0.97162  0.77006  1.0000
  H   H117      1.0  0.3692  0.91149  0.86995  1.0000
  H   H118      1.0  0.2950700000000001  0.90869  0.90125  1.0000
  H   H119      1.0  0.3523200000000002  0.9806400000000001  0.72603  1.0000
  H   H120      1.0  0.40986999999999996  0.9696799999999999  0.77325  1.0000
  H   H121      1.0  0.24073  0.51676  0.8947699999999998  1.0000
  H   H122      1.0  0.32242000000000004  0.58111  0.9214699999999998  1.0000
  H   H123      1.0  0.14323999999999998  0.57308  0.9840199999999998  1.0000
  H   H124      1.0  0.13680000000000006  0.5064  0.9371199999999998  1.0000
  H   H125      1.0  0.32972000000000007  0.66924  0.98614  1.0000
  H   H126      1.0  0.25451  0.66205  0.01922  1.0000
  H   H127      1.0  0.07344  0.29089  0.17173  1.0000
  H   H128      1.0  0.028109999999999996  0.27886  0.10341999999999997  1.0000
  H   H129      1.0  0.08866  0.45785  0.20321  1.0000
  H   H130      1.0  0.09134999999999999  0.38647  0.23453999999999994  1.0000
  H   H131      1.0  0.019449999999999985  0.37171  0.05933  1.0000
  H   H132      1.0  0.030519999999999967  0.44029  0.10652  1.0000
  H   H133      1.0  0.48339  0.72414  0.22823  1.0000
  H   H134      1.0  0.41912  0.74148  0.2549  1.0000
  H   H135      1.0  0.42676  0.57011  0.31732999999999995  1.0000
  H   H136      1.0  0.49351000000000006  0.63042  0.27046  1.0000
  H   H137      1.0  0.33077000000000006  0.66038  0.31949  1.0000
  H   H138      1.0  0.33794  0.59235  0.35252  1.0000
  H   H139      1.0  0.7091999999999999  0.78268  0.5051  1.0000
  H   H140      1.0  0.72118  0.7494  0.43675  1.0000
  H   H141      1.0  0.5422000000000001  0.63061  0.5366  1.0000
  H   H142      1.0  0.61362  0.70479  0.56797  1.0000
  H   H143      1.0  0.62826  0.64771  0.39267  1.0000
  H   H144      1.0  0.5596400000000001  0.59013  0.43989  1.0000
  H   H145      1.0  0.09844  0.07724  0.71037  1.0000
  H   H146      1.0  0.36921  0.1993  0.70545  1.0000
  H   H147      1.0  0.45039  0.19596  0.63071  1.0000
  H   H148      1.0  0.4141900000000001  0.0938  0.56594  1.0000
  H   H149      1.0  0.29516  0.99169  0.5732  1.0000
  H   H150      1.0  0.9788100000000002  0.90184  0.37721  1.0000
  H   H151      1.0  0.83013  0.63128  0.37213  1.0000
  H   H152      1.0  0.7456100000000002  0.54986  0.29736  1.0000
  H   H153      1.0  0.67951  0.58576  0.23256  1.0000
  H   H154      1.0  0.69632  0.70459  0.23963  1.0000
  H   H155      1.0  0.9226300000000001  0.02127  0.04364  1.0000
  H   H156      1.0  0.8011800000000001  0.16974  0.03897  1.0000
  H   H157      1.0  0.8043300000000002  0.25421  0.9642  1.0000
  H   H158      1.0  0.9064400000000001  0.32034  0.8993099999999999  1.0000
  H   H159      1.0  0.008440000000000013  0.3035  0.90634  1.0000
  H   H160      1.0  0.9015600000000003  0.92276  0.21037  1.0000
  H   H161      1.0  0.6307900000000001  0.8007  0.20544999999999997  1.0000
  H   H162      1.0  0.5496100000000002  0.80403  0.13071  1.0000
  H   H163      1.0  0.58581  0.9062  0.06593999999999998  1.0000
  H   H164      1.0  0.7048400000000001  0.00831  0.07318999999999999  1.0000
  H   H165      1.0  0.021180000000000015  0.09815  0.8772099999999999  1.0000
  H   H166      1.0  0.16987  0.36872  0.8721299999999997  1.0000
  H   H167      1.0  0.25439  0.45013  0.7973699999999999  1.0000
  H   H168      1.0  0.32049000000000005  0.41424  0.73257  1.0000
  H   H169      1.0  0.30368  0.29541  0.7396299999999999  1.0000
  H   H170      1.0  0.07737  0.97872  0.54364  1.0000
  H   H171      1.0  0.19882000000000002  0.8302599999999999  0.53898  1.0000
  H   H172      1.0  0.19567  0.74579  0.4642  1.0000
  H   H173      1.0  0.09355999999999999  0.67966  0.39930999999999994  1.0000
  H   H174      1.0  0.99156  0.6965  0.40633  1.0000
  H   H175      1.0  0.02127000000000003  0.92263  0.9563699999999998  1.0000
  H   H176      1.0  0.16974  0.80118  0.96103  1.0000
  H   H177      1.0  0.25421  0.80433  0.0358  1.0000
  H   H178      1.0  0.32034  0.90644  0.10069  1.0000
  H   H179      1.0  0.30350000000000005  0.00844  0.09367  1.0000
  H   H180      1.0  0.07724  0.09844  0.28962999999999994  1.0000
  H   H181      1.0  0.1993  0.36921  0.29455  1.0000
  H   H182      1.0  0.1959600000000001  0.45038999999999996  0.36928999999999995  1.0000
  H   H183      1.0  0.09380000000000001  0.41419  0.43407  1.0000
  H   H184      1.0  0.9916900000000001  0.29516  0.42681  1.0000
  H   H185      1.0  0.9018500000000002  0.97881  0.6227899999999998  1.0000
  H   H186      1.0  0.63128  0.83013  0.6278799999999999  1.0000
  H   H187      1.0  0.54986  0.74561  0.70264  1.0000
  H   H188      1.0  0.5857600000000001  0.67951  0.76744  1.0000
  H   H189      1.0  0.70459  0.69632  0.76037  1.0000
  H   H190      1.0  0.97873  0.07737  0.4563599999999999  1.0000
  H   H191      1.0  0.83026  0.19882  0.46102999999999994  1.0000
  H   H192      1.0  0.7457900000000001  0.19567  0.5358  1.0000
  H   H193      1.0  0.6796600000000002  0.09356  0.60069  1.0000
  H   H194      1.0  0.6965000000000002  0.9915600000000001  0.59367  1.0000
  H   H195      1.0  0.9227600000000001  0.90156  0.7896299999999999  1.0000
  H   H196      1.0  0.8007  0.63078  0.79456  1.0000
  H   H197      1.0  0.80404  0.5496  0.8692899999999998  1.0000
  H   H198      1.0  0.9062000000000001  0.58581  0.9340699999999998  1.0000
  H   H199      1.0  0.008309999999999988  0.70484  0.92681  1.0000
  H   H200      1.0  0.09815000000000003  0.02118  0.12279  1.0000
  H   H201      1.0  0.36872  0.16987  0.12788  1.0000
  H   H202      1.0  0.4501300000000001  0.25439  0.20264  1.0000
  H   H203      1.0  0.41424000000000005  0.32049  0.26744  1.0000
  H   H204      1.0  0.29541  0.30368  0.26036999999999993  1.0000
  H   H205      1.0  0.97857  0.02143  0.7499999999999999  1.0000
  H   H206      1.0  0.10677000000000003  0.8932300000000001  0.7499999999999999  1.0000
  H   H207      1.0  0.04292  0.02177  0.41682  1.0000
  H   H208      1.0  0.7862400000000002  0.89319  0.41671  1.0000
  H   H209      1.0  0.97823  0.95708  0.08319  1.0000
  H   H210      1.0  0.10681  0.21376  0.08329  1.0000
  H   H211      1.0  0.021430000000000015  0.97857  0.25  1.0000
  H   H212      1.0  0.8932300000000001  0.10677  0.25  1.0000
  H   H213      1.0  0.95708  0.9782299999999999  0.9168199999999997  1.0000
  H   H214      1.0  0.21376000000000003  0.10681000000000002  0.9167099999999999  1.0000
  H   H215      1.0  0.02177  0.04292  0.5831899999999999  1.0000
  H   H216      1.0  0.8931900000000002  0.78624  0.58329  1.0000
  C   C1        1.0  0.42864  0.72861  0.59263  1.0000
  C   C2        1.0  0.4376800000000001  0.8343300000000001  0.55531  1.0000
  C   C3        1.0  0.34392  0.72367  0.52282  1.0000
  C   C4        1.0  0.7010600000000001  0.96553  0.35084  1.0000
  C   C5        1.0  0.59863  0.93852  0.29447  1.0000
  C   C6        1.0  0.6149100000000001  0.9864300000000001  0.39463  1.0000
  C   C7        1.0  0.29983  0.57121  0.25923  1.0000
  C   C8        1.0  0.39664  0.56241  0.22198999999999997  1.0000
  C   C9        1.0  0.3798200000000001  0.65608  0.18949  1.0000
  C   C10       1.0  0.26436  0.29888  0.0175  1.0000
  C   C11       1.0  0.3400000000000001  0.40132  0.9610999999999998  1.0000
  C   C12       1.0  0.37156000000000006  0.38512  0.061279999999999994  1.0000
  C   C13       1.0  0.27146000000000003  0.70015  0.9259499999999998  1.0000
  C   C14       1.0  0.16567  0.60325  0.8887  1.0000
  C   C15       1.0  0.27627000000000007  0.62031  0.85613  1.0000
  C   C16       1.0  0.03466000000000001  0.73563  0.68419  1.0000
  C   C17       1.0  0.06140000000000002  0.6601  0.62778  1.0000
  C   C18       1.0  0.013459999999999995  0.62842  0.72794  1.0000
  C   C19       1.0  0.57136  0.27138  0.09263  1.0000
  C   C20       1.0  0.56231  0.16567  0.05531  1.0000
  C   C21       1.0  0.65608  0.27633  0.022809999999999997  1.0000
  C   C22       1.0  0.29894  0.03447  0.8508399999999998  1.0000
  C   C23       1.0  0.40137  0.06148  0.7944799999999999  1.0000
  C   C24       1.0  0.38509  0.01357  0.89464  1.0000
  C   C25       1.0  0.70017  0.42878  0.75923  1.0000
  C   C26       1.0  0.6033600000000001  0.43759  0.72199  1.0000
  C   C27       1.0  0.62018  0.34391  0.6895  1.0000
  C   C28       1.0  0.73564  0.70111  0.5175  1.0000
  C   C29       1.0  0.66  0.59868  0.4611  1.0000
  C   C30       1.0  0.62844  0.61488  0.56128  1.0000
  C   C31       1.0  0.72854  0.29985  0.42595  1.0000
  C   C32       1.0  0.83433  0.39675  0.3886999999999999  1.0000
  C   C33       1.0  0.72373  0.37968  0.35613  1.0000
  C   C34       1.0  0.96534  0.26437  0.18419  1.0000
  C   C35       1.0  0.9386000000000001  0.3399  0.12777999999999998  1.0000
  C   C36       1.0  0.98653  0.37158  0.22792999999999997  1.0000
  C   C37       1.0  0.7001500000000002  0.27146  0.07406  1.0000
  C   C38       1.0  0.60325  0.16567  0.1113  1.0000
  C   C39       1.0  0.6203099999999999  0.27627  0.14387  1.0000
  C   C40       1.0  0.7356300000000002  0.03466  0.3158099999999999  1.0000
  C   C41       1.0  0.6601  0.0614  0.37223  1.0000
  C   C42       1.0  0.6284200000000001  0.013460000000000001  0.27207  1.0000
  C   C43       1.0  0.7286200000000002  0.4286400000000001  0.40736999999999995  1.0000
  C   C44       1.0  0.83433  0.43768  0.4446899999999999  1.0000
  C   C45       1.0  0.72367  0.34392  0.47719  1.0000
  C   C46       1.0  0.96553  0.70106  0.64917  1.0000
  C   C47       1.0  0.9385200000000002  0.59862  0.70553  1.0000
  C   C48       1.0  0.9864300000000001  0.61491  0.60537  1.0000
  C   C49       1.0  0.5712100000000001  0.29983  0.74077  1.0000
  C   C50       1.0  0.5624100000000001  0.39664  0.77801  1.0000
  C   C51       1.0  0.6560800000000002  0.37982  0.81051  1.0000
  C   C52       1.0  0.29888  0.26435  0.98251  1.0000
  C   C53       1.0  0.40132  0.34  0.03891  1.0000
  C   C54       1.0  0.38512  0.37156  0.9387199999999999  1.0000
  C   C55       1.0  0.29985000000000006  0.72854  0.57406  1.0000
  C   C56       1.0  0.3967500000000001  0.8343300000000001  0.6113  1.0000
  C   C57       1.0  0.3796800000000001  0.72373  0.64388  1.0000
  C   C58       1.0  0.26437000000000005  0.96534  0.81581  1.0000
  C   C59       1.0  0.3399  0.9386  0.87223  1.0000
  C   C60       1.0  0.37158  0.98653  0.77207  1.0000
  C   C61       1.0  0.27138  0.57136  0.9073699999999999  1.0000
  C   C62       1.0  0.16567000000000004  0.56231  0.9446999999999999  1.0000
  C   C63       1.0  0.27633  0.65608  0.97719  1.0000
  C   C64       1.0  0.03446999999999999  0.29894  0.14917  1.0000
  C   C65       1.0  0.061480000000000035  0.40137  0.20553  1.0000
  C   C66       1.0  0.013570000000000004  0.38508  0.10537  1.0000
  C   C67       1.0  0.42879  0.70017  0.24077  1.0000
  C   C68       1.0  0.43759  0.60336  0.27801  1.0000
  C   C69       1.0  0.34391000000000005  0.62018  0.31050999999999995  1.0000
  C   C70       1.0  0.7011200000000001  0.73564  0.48251  1.0000
  C   C71       1.0  0.5986800000000001  0.66  0.53891  1.0000
  C   C72       1.0  0.61488  0.62844  0.43872  1.0000
  C   C73       1.0  0.11013000000000006  0.98874  0.72735  1.0000
  C   C74       1.0  0.07399  0.02502  0.7282399999999999  1.0000
  C   C75       1.0  0.17967  0.02086  0.7015699999999999  1.0000
  C   C76       1.0  0.26657  0.03837  0.64451  1.0000
  C   C77       1.0  0.2875  0.09684  0.68172  1.0000
  C   C78       1.0  0.35373  0.1545  0.67707  1.0000
  C   C79       1.0  0.39858  0.15185  0.63536  1.0000
  C   C80       1.0  0.37789  0.09358  0.5984  1.0000
  C   C81       1.0  0.31171000000000004  0.03628  0.60221  1.0000
  C   C82       1.0  0.8784800000000001  0.88992  0.39407  1.0000
  C   C83       1.0  0.9510000000000002  0.9262100000000001  0.39501  1.0000
  C   C84       1.0  0.84104  0.8204  0.36823  1.0000
  C   C85       1.0  0.7716800000000003  0.73349  0.31102  1.0000
  C   C86       1.0  0.80922  0.71269  0.3483  1.0000
  C   C87       1.0  0.80075  0.64657  0.34368999999999994  1.0000
  C   C88       1.0  0.75328  0.60162  0.30196  1.0000
  C   C89       1.0  0.71564  0.62216  0.26497  1.0000
  C   C90       1.0  0.72445  0.68825  0.2687  1.0000
  C   C91       1.0  0.011310000000000011  0.12148000000000002  0.06064  1.0000
  C   C92       1.0  0.9748600000000002  0.04899  0.06149  1.0000
  C   C93       1.0  0.9793000000000002  0.15889  0.03487  1.0000
  C   C94       1.0  0.9618700000000002  0.22820000000000001  0.9777199999999999  1.0000
  C   C95       1.0  0.9034800000000001  0.19068  0.015039999999999998  1.0000
  C   C96       1.0  0.84586  0.19915  0.01049  1.0000
  C   C97       1.0  0.84843  0.24659  0.96877  1.0000
  C   C98       1.0  0.9066500000000002  0.28423  0.93173  1.0000
  C   C99       1.0  0.9639100000000003  0.27542  0.93542  1.0000
  C   C100      1.0  0.88987  0.01125  0.22735  1.0000
  C   C101      1.0  0.9260100000000001  0.97498  0.22823  1.0000
  C   C102      1.0  0.8203300000000001  0.97913  0.20156999999999997  1.0000
  C   C103      1.0  0.73343  0.96163  0.14449999999999996  1.0000
  C   C104      1.0  0.7125000000000002  0.90316  0.18172  1.0000
  C   C105      1.0  0.64626  0.8455  0.17707  1.0000
  C   C106      1.0  0.60142  0.84814  0.13536  1.0000
  C   C107      1.0  0.6221100000000002  0.90642  0.09838999999999999  1.0000
  C   C108      1.0  0.68829  0.9637200000000001  0.10221  1.0000
  C   C109      1.0  0.12152000000000002  0.11008  0.8940699999999999  1.0000
  C   C110      1.0  0.049  0.07379  0.89501  1.0000
  C   C111      1.0  0.15896000000000002  0.1796  0.86823  1.0000
  C   C112      1.0  0.22832  0.2665  0.81102  1.0000
  C   C113      1.0  0.19078000000000003  0.28731  0.8482999999999999  1.0000
  C   C114      1.0  0.19925000000000004  0.35343  0.8436899999999999  1.0000
  C   C115      1.0  0.24672000000000005  0.39838  0.8019699999999998  1.0000
  C   C116      1.0  0.28436  0.37784  0.76497  1.0000
  C   C117      1.0  0.27555  0.31175  0.7687  1.0000
  C   C118      1.0  0.98869  0.8785200000000001  0.56064  1.0000
  C   C119      1.0  0.02513000000000002  0.95101  0.5615  1.0000
  C   C120      1.0  0.020700000000000062  0.8411100000000001  0.53487  1.0000
  C   C121      1.0  0.03812999999999994  0.77179  0.47771999999999987  1.0000
  C   C122      1.0  0.09652000000000006  0.80932  0.51504  1.0000
  C   C123      1.0  0.15414  0.80085  0.51049  1.0000
  C   C124      1.0  0.15157000000000007  0.7534  0.4687699999999999  1.0000
  C   C125      1.0  0.09334  0.71576  0.43173  1.0000
  C   C126      1.0  0.03609000000000002  0.72458  0.4354199999999999  1.0000
  C   C127      1.0  0.12148  0.01131  0.93936  1.0000
  C   C128      1.0  0.04899000000000003  0.97486  0.93851  1.0000
  C   C129      1.0  0.15889000000000014  0.9793000000000001  0.96514  1.0000
  C   C130      1.0  0.22821000000000002  0.9618699999999999  0.02228  1.0000
  C   C131      1.0  0.19068  0.90348  0.98496  1.0000
  C   C132      1.0  0.19914999999999994  0.84586  0.98952  1.0000
  C   C133      1.0  0.24659  0.8484300000000001  0.03123  1.0000
  C   C134      1.0  0.28423000000000004  0.90665  0.06826999999999998  1.0000
  C   C135      1.0  0.27542000000000005  0.9639100000000002  0.06457999999999998  1.0000
  C   C136      1.0  0.9887400000000001  0.11013  0.27265  1.0000
  C   C137      1.0  0.02502  0.07399  0.27177  1.0000
  C   C138      1.0  0.020870000000000017  0.17967  0.29843  1.0000
  C   C139      1.0  0.038369999999999994  0.26657  0.3555  1.0000
  C   C140      1.0  0.09684  0.2875  0.31828  1.0000
  C   C141      1.0  0.15450000000000003  0.35373  0.32293  1.0000
  C   C142      1.0  0.15186  0.39858  0.36464  1.0000
  C   C143      1.0  0.09357999999999997  0.37789  0.40161  1.0000
  C   C144      1.0  0.03628  0.31171  0.39779  1.0000
  C   C145      1.0  0.8899200000000002  0.87848  0.60594  1.0000
  C   C146      1.0  0.92621  0.9509899999999999  0.60499  1.0000
  C   C147      1.0  0.8203999999999999  0.8410299999999999  0.63178  1.0000
  C   C148      1.0  0.7335  0.77168  0.68898  1.0000
  C   C149      1.0  0.71269  0.80922  0.6517099999999999  1.0000
  C   C150      1.0  0.64657  0.80074  0.65631  1.0000
  C   C151      1.0  0.60162  0.75328  0.69804  1.0000
  C   C152      1.0  0.6221599999999999  0.71564  0.73503  1.0000
  C   C153      1.0  0.6882500000000001  0.72445  0.7312999999999998  1.0000
  C   C154      1.0  0.8785200000000001  0.98869  0.43936  1.0000
  C   C155      1.0  0.95101  0.02513  0.43851  1.0000
  C   C156      1.0  0.84111  0.02069  0.46514  1.0000
  C   C157      1.0  0.77179  0.03813  0.52228  1.0000
  C   C158      1.0  0.8093200000000003  0.09652  0.4849599999999999  1.0000
  C   C159      1.0  0.80085  0.15414  0.48952  1.0000
  C   C160      1.0  0.7534  0.15157  0.53123  1.0000
  C   C161      1.0  0.71577  0.09334  0.56828  1.0000
  C   C162      1.0  0.72458  0.03608  0.56458  1.0000
  C   C163      1.0  0.011260000000000004  0.8898700000000002  0.77265  1.0000
  C   C164      1.0  0.9749800000000001  0.92601  0.77177  1.0000
  C   C165      1.0  0.9791300000000002  0.82032  0.79843  1.0000
  C   C166      1.0  0.9616300000000001  0.73343  0.8554999999999999  1.0000
  C   C167      1.0  0.90316  0.7125  0.81828  1.0000
  C   C168      1.0  0.8455  0.64626  0.82293  1.0000
  C   C169      1.0  0.8481400000000001  0.60142  0.8646499999999998  1.0000
  C   C170      1.0  0.9064200000000002  0.62211  0.90161  1.0000
  C   C171      1.0  0.9637200000000002  0.68829  0.8977899999999999  1.0000
  C   C172      1.0  0.11008000000000001  0.12152  0.10593  1.0000
  C   C173      1.0  0.07379  0.049  0.10498999999999999  1.0000
  C   C174      1.0  0.1796  0.15896  0.13176999999999997  1.0000
  C   C175      1.0  0.2665  0.22831000000000004  0.18898  1.0000
  C   C176      1.0  0.28731000000000007  0.19078  0.15170999999999998  1.0000
  C   C177      1.0  0.35343  0.19925  0.15631  1.0000
  C   C178      1.0  0.39838  0.24672000000000002  0.19804  1.0000
  C   C179      1.0  0.37784  0.28435  0.23503  1.0000
  C   C180      1.0  0.3117500000000001  0.27555  0.23129999999999998  1.0000
  C   C181      1.0  0.006589999999999991  0.99341  0.7499999999999999  1.0000
  C   C182      1.0  0.07870999999999999  0.92129  0.7499999999999999  1.0000
  C   C183      1.0  0.9868200000000003  0.9936200000000001  0.41677999999999993  1.0000
  C   C184      1.0  0.8424300000000001  0.92124  0.41669999999999996  1.0000
  C   C185      1.0  0.006380000000000001  0.013179999999999999  0.08323  1.0000
  C   C186      1.0  0.07875  0.15757  0.0833  1.0000
  C   C187      1.0  0.9934100000000001  0.0065899999999999995  0.25  1.0000
  C   C188      1.0  0.92129  0.07871  0.25  1.0000
  C   C189      1.0  0.013180000000000004  0.00638  0.91678  1.0000
  C   C190      1.0  0.15757  0.07875  0.9167099999999999  1.0000
  C   C191      1.0  0.9936200000000004  0.9868100000000001  0.58323  1.0000
  C   C192      1.0  0.92125  0.84243  0.5833  1.0000
  I   I1        1.0  0.61226  0.84989  0.50598  1.0000
  I   I2        1.0  0.43548000000000003  0.81178  0.37690999999999997  1.0000
  I   I3        1.0  0.23762  0.38762  0.17254  1.0000
  I   I4        1.0  0.37647  0.56452  0.04343  1.0000
  I   I5        1.0  0.15000999999999995  0.76198  0.83936  1.0000
  I   I6        1.0  0.1877  0.62346  0.71019  1.0000
  I   I7        1.0  0.38773000000000013  0.15011  0.005979999999999999  1.0000
  I   I8        1.0  0.5645100000000001  0.18822  0.8769199999999999  1.0000
  I   I9        1.0  0.76238  0.61237  0.67254  1.0000
  I   I10       1.0  0.62352  0.43548  0.54343  1.0000
  I   I11       1.0  0.8499900000000001  0.23802  0.33936  1.0000
  I   I12       1.0  0.81229  0.37654  0.21018999999999996  1.0000
  I   I13       1.0  0.76198  0.15001  0.16065  1.0000
  I   I14       1.0  0.62346  0.1877  0.28981  1.0000
  I   I15       1.0  0.8498900000000003  0.61226  0.49403  1.0000
  I   I16       1.0  0.81178  0.43548  0.62309  1.0000
  I   I17       1.0  0.38763000000000003  0.23762  0.82747  1.0000
  I   I18       1.0  0.56452  0.37647  0.95657  1.0000
  I   I19       1.0  0.23801999999999995  0.8499899999999999  0.66065  1.0000
  I   I20       1.0  0.3765400000000001  0.81229  0.78981  1.0000
  I   I21       1.0  0.15011  0.38773  0.9940299999999999  1.0000
  I   I22       1.0  0.18822  0.56451  0.12309  1.0000
  I   I23       1.0  0.6123700000000001  0.76238  0.32747  1.0000
  I   I24       1.0  0.43548000000000003  0.62352  0.4565699999999999  1.0000
  N   N1        1.0  0.41856000000000004  0.76232  0.5391099999999999  1.0000
  N   N2        1.0  0.6252600000000003  0.93815  0.35571  1.0000
  N   N3        1.0  0.34374000000000005  0.58143  0.20575  1.0000
  N   N4        1.0  0.3129  0.3747  0.02233  1.0000
  N   N5        1.0  0.23768000000000003  0.65626  0.87245  1.0000
  N   N6        1.0  0.06185000000000008  0.68712  0.68903  1.0000
  N   N7        1.0  0.5814400000000001  0.23766999999999996  0.03911  1.0000
  N   N8        1.0  0.37474  0.06185  0.85571  1.0000
  N   N9        1.0  0.6562600000000001  0.41856000000000004  0.70576  1.0000
  N   N10       1.0  0.6871  0.6253  0.52234  1.0000
  N   N11       1.0  0.76232  0.34374  0.37244999999999995  1.0000
  N   N12       1.0  0.93815  0.31287  0.18902999999999998  1.0000
  N   N13       1.0  0.6562600000000001  0.23767999999999997  0.12755  1.0000
  N   N14       1.0  0.6871200000000001  0.06185  0.31098  1.0000
  N   N15       1.0  0.76232  0.41855  0.4608999999999999  1.0000
  N   N16       1.0  0.93815  0.62525  0.6442999999999999  1.0000
  N   N17       1.0  0.5814300000000001  0.34374  0.79425  1.0000
  N   N18       1.0  0.37470000000000003  0.3129  0.9776699999999999  1.0000
  N   N19       1.0  0.3437400000000001  0.76232  0.62756  1.0000
  N   N20       1.0  0.3128800000000001  0.93815  0.81098  1.0000
  N   N21       1.0  0.23768000000000003  0.58144  0.9609  1.0000
  N   N22       1.0  0.061849999999999974  0.37474  0.1443  1.0000
  N   N23       1.0  0.41857  0.65626  0.29425  1.0000
  N   N24       1.0  0.6253000000000001  0.6871  0.47767  1.0000
  N   N25       1.0  0.1981  0.99096  0.65795  1.0000
  N   N26       1.0  0.23173000000000002  0.08441  0.71777  1.0000
  N   N27       1.0  0.7927500000000001  0.80192  0.32451  1.0000
  N   N28       1.0  0.85253  0.76844  0.38442  1.0000
  N   N29       1.0  0.009190000000000002  0.20715  0.9911399999999998  1.0000
  N   N30       1.0  0.91583  0.14736  0.05113999999999999  1.0000
  N   N31       1.0  0.8019000000000001  0.00904  0.15795  1.0000
  N   N32       1.0  0.76827  0.91558  0.21777  1.0000
  N   N33       1.0  0.20725  0.19808  0.82451  1.0000
  N   N34       1.0  0.14746000000000004  0.23155  0.88442  1.0000
  N   N35       1.0  0.99081  0.79285  0.49113999999999997  1.0000
  N   N36       1.0  0.08416999999999998  0.85264  0.55114  1.0000
  N   N37       1.0  0.20715  0.00919  0.00887  1.0000
  N   N38       1.0  0.1473599999999999  0.9158299999999999  0.94887  1.0000
  N   N39       1.0  0.99096  0.1981  0.34204999999999997  1.0000
  N   N40       1.0  0.08441  0.23173  0.28223  1.0000
  N   N41       1.0  0.8019200000000001  0.79275  0.67549  1.0000
  N   N42       1.0  0.7684500000000002  0.85253  0.6155799999999999  1.0000
  N   N43       1.0  0.79285  0.9908000000000001  0.50887  1.0000
  N   N44       1.0  0.8526400000000002  0.08417  0.44886  1.0000
  N   N45       1.0  0.009040000000000017  0.8019  0.8420499999999999  1.0000
  N   N46       1.0  0.9155800000000001  0.76827  0.78223  1.0000
  N   N47       1.0  0.19807999999999998  0.20723999999999998  0.17549  1.0000
  N   N48       1.0  0.23155000000000003  0.14746  0.11558  1.0000
