data_image0
_chemical_formula_structural       Zn12H144C216N8O48
_chemical_formula_sum              "Zn12 H144 C216 N8 O48"
_cell_length_a       14.67555
_cell_length_b       18.19435
_cell_length_c       25.089999999999996
_cell_angle_alpha    90.05486000000002
_cell_angle_beta     89.80174999999998
_cell_angle_gamma    90.01215

_space_group_name_H-M_alt    "P 1"
_space_group_IT_number       1

loop_
  _space_group_symop_operation_xyz
  'x, y, z'

loop_
  _atom_site_type_symbol
  _atom_site_label
  _atom_site_symmetry_multiplicity
  _atom_site_fract_x
  _atom_site_fract_y
  _atom_site_fract_z
  _atom_site_occupancy
  Zn  Zn1       1.0  0.4616200000000001  0.9392  0.14391000000000004  1.0000
  Zn  Zn2       1.0  0.4939000000000001  0.7462900000000001  0.14501  1.0000
  Zn  Zn3       1.0  0.5338800000000002  0.55115  0.14417000000000002  1.0000
  Zn  Zn4       1.0  0.9617400000000003  0.56105  0.64409  1.0000
  Zn  Zn5       1.0  0.9937700000000003  0.75379  0.64463  1.0000
  Zn  Zn6       1.0  0.03366  0.94792  0.6439300000000002  1.0000
  Zn  Zn7       1.0  0.03826  0.4389500000000001  0.35591  1.0000
  Zn  Zn8       1.0  0.006230000000000002  0.24620000000000003  0.35537  1.0000
  Zn  Zn9       1.0  0.9663300000000002  0.05208  0.35607  1.0000
  Zn  Zn10      1.0  0.53837  0.0608  0.85609  1.0000
  Zn  Zn11      1.0  0.5061  0.25371  0.8550000000000002  1.0000
  Zn  Zn12      1.0  0.46611  0.44884999999999997  0.8558300000000002  1.0000
  H   H1        1.0  0.5384700000000001  0.051430000000000003  0.07196000000000001  1.0000
  H   H2        1.0  0.56325  0.18839  0.0708  1.0000
  H   H3        1.0  0.3583000000000001  0.25822  0.21707  1.0000
  H   H4        1.0  0.45184000000000013  0.23552000000000003  0.25775  1.0000
  H   H5        1.0  0.35529  0.17696  0.25598  1.0000
  H   H6        1.0  0.39136  0.06433  0.21255000000000004  1.0000
  H   H7        1.0  0.4468700000000001  0.43877  0.07585000000000001  1.0000
  H   H8        1.0  0.42420000000000013  0.30143000000000003  0.07552  1.0000
  H   H9        1.0  0.60796  0.22040000000000004  0.22281  1.0000
  H   H10       1.0  0.60301  0.29859  0.26482  1.0000
  H   H11       1.0  0.69198  0.29034  0.21769000000000005  1.0000
  H   H12       1.0  0.61011  0.42694  0.20964  1.0000
  H   H13       1.0  0.16578000000000007  0.91651  0.17163000000000003  1.0000
  H   H14       1.0  0.00723  0.8682600000000001  0.17178  1.0000
  H   H15       1.0  0.10381  0.66572  0.10232000000000002  1.0000
  H   H16       1.0  0.26208  0.71416  0.10403  1.0000
  H   H17       1.0  0.9930300000000002  0.62131  0.15215  1.0000
  H   H18       1.0  0.8369900000000002  0.57066  0.15598000000000004  1.0000
  H   H19       1.0  0.7257900000000003  0.78685  0.13414  1.0000
  H   H20       1.0  0.8827100000000002  0.83752  0.12488  1.0000
  H   H21       1.0  0.61385  0.98204  0.00167  1.0000
  H   H22       1.0  0.7086000000000002  0.9803200000000001  0.92009  1.0000
  H   H23       1.0  0.7598400000000002  0.74916  0.94339  1.0000
  H   H24       1.0  0.6642600000000002  0.7520800000000001  0.025720000000000003  1.0000
  H   H25       1.0  0.8433400000000001  0.97599  0.88482  1.0000
  H   H26       1.0  0.9229300000000003  0.97895  0.7970700000000001  1.0000
  H   H27       1.0  0.84267  0.75669  0.7665000000000001  1.0000
  H   H28       1.0  0.7638400000000002  0.75182  0.85464  1.0000
  H   H29       1.0  0.6546200000000002  0.96982  0.26703  1.0000
  H   H30       1.0  0.7507300000000002  0.96978  0.3478100000000001  1.0000
  H   H31       1.0  0.64974  0.75398  0.38765  1.0000
  H   H32       1.0  0.5590400000000002  0.75305  0.30452  1.0000
  H   H33       1.0  0.77144  0.98255  0.42695  1.0000
  H   H34       1.0  0.8733100000000003  0.9856800000000001  0.50463  1.0000
  H   H35       1.0  0.87395  0.75039  0.5118600000000001  1.0000
  H   H36       1.0  0.77281  0.74525  0.43216  1.0000
  H   H37       1.0  0.03886  0.44884999999999997  0.5724000000000001  1.0000
  H   H38       1.0  0.06320000000000003  0.31186  0.5708400000000001  1.0000
  H   H39       1.0  0.8583100000000002  0.24199  0.71695  1.0000
  H   H40       1.0  0.9516900000000003  0.26468  0.7578200000000002  1.0000
  H   H41       1.0  0.8551600000000003  0.32319  0.7560300000000002  1.0000
  H   H42       1.0  0.89201  0.43594  0.71299  1.0000
  H   H43       1.0  0.9467100000000003  0.06134  0.57557  1.0000
  H   H44       1.0  0.9241300000000002  0.19859  0.5754  1.0000
  H   H45       1.0  0.10818000000000003  0.27957  0.723  1.0000
  H   H46       1.0  0.10289000000000002  0.20126000000000002  0.76474  1.0000
  H   H47       1.0  0.19181999999999996  0.20942000000000005  0.7176000000000001  1.0000
  H   H48       1.0  0.10971  0.07323  0.7094900000000002  1.0000
  H   H49       1.0  0.6658100000000002  0.58361  0.67156  1.0000
  H   H50       1.0  0.5074100000000002  0.63188  0.6718300000000001  1.0000
  H   H51       1.0  0.6039600000000003  0.83427  0.6025  1.0000
  H   H52       1.0  0.76218  0.78592  0.60399  1.0000
  H   H53       1.0  0.49292  0.87869  0.65218  1.0000
  H   H54       1.0  0.33678  0.92915  0.65602  1.0000
  H   H55       1.0  0.22592000000000007  0.71274  0.6341600000000001  1.0000
  H   H56       1.0  0.38285  0.66232  0.6247400000000001  1.0000
  H   H57       1.0  0.11377000000000002  0.518  0.50158  1.0000
  H   H58       1.0  0.20847  0.51982  0.42003  1.0000
  H   H59       1.0  0.25976  0.75094  0.4436700000000001  1.0000
  H   H60       1.0  0.16409000000000004  0.74797  0.52594  1.0000
  H   H61       1.0  0.34316  0.52405  0.38487000000000005  1.0000
  H   H62       1.0  0.42308000000000007  0.52085  0.29726  1.0000
  H   H63       1.0  0.34326  0.74301  0.26659000000000005  1.0000
  H   H64       1.0  0.26408  0.74834  0.35465  1.0000
  H   H65       1.0  0.15272  0.53274  0.7665300000000003  1.0000
  H   H66       1.0  0.24963000000000005  0.53088  0.84722  1.0000
  H   H67       1.0  0.15118000000000006  0.7467  0.88901  1.0000
  H   H68       1.0  0.05977000000000001  0.74947  0.8061200000000001  1.0000
  H   H69       1.0  0.27185  0.5175000000000001  0.9266400000000002  1.0000
  H   H70       1.0  0.3728900000000001  0.514  0.00474  1.0000
  H   H71       1.0  0.37441000000000013  0.74949  0.01216  1.0000
  H   H72       1.0  0.27366  0.7546  0.93238  1.0000
  H   H73       1.0  0.9611400000000002  0.55114  0.4276100000000001  1.0000
  H   H74       1.0  0.9368000000000002  0.68813  0.42916  1.0000
  H   H75       1.0  0.14169  0.75801  0.28305  1.0000
  H   H76       1.0  0.04831000000000001  0.73531  0.24219  1.0000
  H   H77       1.0  0.14484000000000005  0.6768100000000001  0.24397000000000002  1.0000
  H   H78       1.0  0.10799  0.56406  0.28701  1.0000
  H   H79       1.0  0.05328999999999999  0.93866  0.42444  1.0000
  H   H80       1.0  0.07586000000000002  0.80141  0.42460000000000003  1.0000
  H   H81       1.0  0.89181  0.72043  0.277  1.0000
  H   H82       1.0  0.8971  0.79874  0.23526  1.0000
  H   H83       1.0  0.8081800000000002  0.79057  0.2824  1.0000
  H   H84       1.0  0.8902800000000002  0.92677  0.29052000000000006  1.0000
  H   H85       1.0  0.33419  0.41639  0.3284500000000001  1.0000
  H   H86       1.0  0.49258  0.36812000000000006  0.32817000000000013  1.0000
  H   H87       1.0  0.3960300000000001  0.16572  0.39751  1.0000
  H   H88       1.0  0.23782000000000003  0.21408000000000005  0.3960100000000001  1.0000
  H   H89       1.0  0.5070700000000002  0.12131  0.34782  1.0000
  H   H90       1.0  0.6632100000000002  0.07085  0.3439800000000001  1.0000
  H   H91       1.0  0.7740800000000002  0.28726  0.36584000000000005  1.0000
  H   H92       1.0  0.6171500000000002  0.33767  0.37527  1.0000
  H   H93       1.0  0.8862300000000002  0.48200000000000004  0.49843  1.0000
  H   H94       1.0  0.79153  0.48018  0.57997  1.0000
  H   H95       1.0  0.7402400000000002  0.24906  0.55634  1.0000
  H   H96       1.0  0.8359  0.25203  0.47406  1.0000
  H   H97       1.0  0.65684  0.47595000000000004  0.61514  1.0000
  H   H98       1.0  0.57692  0.4791500000000001  0.70274  1.0000
  H   H99       1.0  0.65674  0.25699  0.7334100000000001  1.0000
  H   H100      1.0  0.7359200000000002  0.25166  0.6453500000000001  1.0000
  H   H101      1.0  0.8472700000000002  0.46726000000000006  0.23347  1.0000
  H   H102      1.0  0.7503700000000002  0.46912  0.15278  1.0000
  H   H103      1.0  0.8488200000000002  0.2533000000000001  0.111  1.0000
  H   H104      1.0  0.94023  0.25053  0.19389  1.0000
  H   H105      1.0  0.7281400000000002  0.48250000000000004  0.07336000000000001  1.0000
  H   H106      1.0  0.6271100000000002  0.48599  0.9952600000000003  1.0000
  H   H107      1.0  0.62559  0.25051  0.98785  1.0000
  H   H108      1.0  0.7263300000000003  0.24539  0.06763  1.0000
  H   H109      1.0  0.46153  0.9485700000000001  0.92805  1.0000
  H   H110      1.0  0.43675  0.81161  0.9292100000000002  1.0000
  H   H111      1.0  0.6416900000000001  0.74178  0.78293  1.0000
  H   H112      1.0  0.5481600000000002  0.76448  0.74226  1.0000
  H   H113      1.0  0.6447100000000002  0.82304  0.7440200000000002  1.0000
  H   H114      1.0  0.60863  0.93567  0.7874500000000001  1.0000
  H   H115      1.0  0.55312  0.56123  0.92415  1.0000
  H   H116      1.0  0.5758  0.69857  0.92448  1.0000
  H   H117      1.0  0.39204  0.7796  0.7772  1.0000
  H   H118      1.0  0.3969900000000001  0.70141  0.73518  1.0000
  H   H119      1.0  0.3080200000000001  0.7096600000000002  0.7823100000000001  1.0000
  H   H120      1.0  0.3898800000000001  0.57306  0.7903600000000001  1.0000
  H   H121      1.0  0.83422  0.08348  0.82837  1.0000
  H   H122      1.0  0.9927600000000002  0.13174  0.8282300000000002  1.0000
  H   H123      1.0  0.89619  0.3342800000000001  0.8976800000000003  1.0000
  H   H124      1.0  0.73792  0.28584  0.8959700000000002  1.0000
  H   H125      1.0  0.006969999999999998  0.37869  0.8478600000000001  1.0000
  H   H126      1.0  0.163  0.4293400000000001  0.84403  1.0000
  H   H127      1.0  0.2742100000000001  0.21315  0.8658600000000001  1.0000
  H   H128      1.0  0.11728000000000002  0.16248  0.8751200000000001  1.0000
  H   H129      1.0  0.3861400000000001  0.017960000000000004  0.9983300000000003  1.0000
  H   H130      1.0  0.29139  0.01968  0.07992000000000002  1.0000
  H   H131      1.0  0.24015000000000006  0.25083000000000005  0.05661  1.0000
  H   H132      1.0  0.3357400000000001  0.24792  0.97428  1.0000
  H   H133      1.0  0.15666000000000005  0.02401  0.11518000000000003  1.0000
  H   H134      1.0  0.07707  0.02105  0.20293  1.0000
  H   H135      1.0  0.15732000000000002  0.2433  0.23350000000000007  1.0000
  H   H136      1.0  0.23616  0.24818  0.14537  1.0000
  H   H137      1.0  0.34537  0.030180000000000002  0.73297  1.0000
  H   H138      1.0  0.24927000000000005  0.030209999999999997  0.65219  1.0000
  H   H139      1.0  0.3502500000000001  0.24601000000000003  0.61235  1.0000
  H   H140      1.0  0.44096000000000013  0.24695  0.69548  1.0000
  H   H141      1.0  0.22856000000000004  0.017450000000000004  0.5730500000000001  1.0000
  H   H142      1.0  0.12668  0.01432  0.4953700000000001  1.0000
  H   H143      1.0  0.12605000000000002  0.24960999999999997  0.48815  1.0000
  H   H144      1.0  0.22719000000000006  0.25474  0.56784  1.0000
  C   C1        1.0  0.5125000000000001  0.08693  0.10339000000000002  1.0000
  C   C2        1.0  0.5260400000000002  0.16239000000000003  0.10328  1.0000
  C   C3        1.0  0.49214000000000013  0.20471  0.14552  1.0000
  C   C4        1.0  0.4413700000000001  0.17008  0.18627000000000005  1.0000
  C   C5        1.0  0.3995  0.21210000000000004  0.23162000000000002  1.0000
  C   C6        1.0  0.43054  0.09394  0.18251000000000006  1.0000
  C   C7        1.0  0.47762  0.40335  0.10566000000000002  1.0000
  C   C8        1.0  0.46572000000000013  0.32778  0.10591000000000003  1.0000
  C   C9        1.0  0.50745  0.28531  0.14557  1.0000
  C   C10       1.0  0.56346  0.32025  0.1834  1.0000
  C   C11       1.0  0.61891  0.2799  0.22422  1.0000
  C   C12       1.0  0.5693100000000002  0.39693000000000006  0.1807  1.0000
  C   C13       1.0  0.31821  0.8475200000000003  0.13575  1.0000
  C   C14       1.0  0.22335000000000005  0.81858  0.13732  1.0000
  C   C15       1.0  0.15108000000000002  0.86184  0.15634  1.0000
  C   C16       1.0  0.062410000000000014  0.83464  0.15599000000000002  1.0000
  C   C17       1.0  0.043470000000000016  0.7634  0.13684  1.0000
  C   C18       1.0  0.11681  0.7203700000000001  0.11817000000000003  1.0000
  C   C19       1.0  0.20552000000000006  0.74729  0.11858000000000003  1.0000
  C   C20       1.0  0.94995  0.73344  0.13840000000000002  1.0000
  C   C21       1.0  0.93515  0.65784  0.14689  1.0000
  C   C22       1.0  0.84731  0.6292300000000002  0.14991  1.0000
  C   C23       1.0  0.7715300000000002  0.67585  0.14632000000000003  1.0000
  C   C24       1.0  0.7851500000000002  0.75137  0.13792000000000001  1.0000
  C   C25       1.0  0.87316  0.7793300000000001  0.13309000000000004  1.0000
  C   C26       1.0  0.6766600000000003  0.64681  0.15139  1.0000
  C   C27       1.0  0.5769800000000003  0.8682900000000002  0.06885  1.0000
  C   C28       1.0  0.63349  0.8671600000000002  0.01915  1.0000
  C   C29       1.0  0.64682  0.93135  0.9891600000000003  1.0000
  C   C30       1.0  0.7007100000000003  0.93028  0.94344  1.0000
  C   C31       1.0  0.7414800000000003  0.86457  0.9255700000000002  1.0000
  C   C32       1.0  0.72732  0.80019  0.9557600000000002  1.0000
  C   C33       1.0  0.6744900000000003  0.8014700000000001  0.00202  1.0000
  C   C34       1.0  0.7950900000000002  0.8642600000000003  0.8756200000000002  1.0000
  C   C35       1.0  0.84188  0.9279600000000001  0.859  1.0000
  C   C36       1.0  0.88694  0.9299500000000002  0.81021  1.0000
  C   C37       1.0  0.8857300000000002  0.86882  0.77607  1.0000
  C   C38       1.0  0.8422600000000002  0.80418  0.7929200000000002  1.0000
  C   C39       1.0  0.7984700000000002  0.8019000000000001  0.84229  1.0000
  C   C40       1.0  0.9286700000000002  0.87382  0.72208  1.0000
  C   C41       1.0  0.5433800000000001  0.86221  0.23116000000000003  1.0000
  C   C42       1.0  0.6005700000000003  0.8615500000000001  0.2805000000000001  1.0000
  C   C43       1.0  0.6547600000000002  0.9225  0.29347  1.0000
  C   C44       1.0  0.70787  0.9224500000000001  0.33927  1.0000
  C   C45       1.0  0.7077200000000002  0.86196  0.37438  1.0000
  C   C46       1.0  0.65301  0.8010100000000001  0.36099  1.0000
  C   C47       1.0  0.6010500000000001  0.80032  0.31454  1.0000
  C   C48       1.0  0.7648400000000002  0.86343  0.4228300000000001  1.0000
  C   C49       1.0  0.79346  0.9310400000000001  0.44469000000000003  1.0000
  C   C50       1.0  0.8507500000000002  0.9332400000000001  0.48865  1.0000
  C   C51       1.0  0.8814800000000003  0.86814  0.5124  1.0000
  C   C52       1.0  0.8512000000000002  0.80045  0.49219  1.0000
  C   C53       1.0  0.7938900000000001  0.79825  0.44805  1.0000
  C   C54       1.0  0.9453400000000003  0.87023  0.5585800000000001  1.0000
  C   C55       1.0  0.012940000000000004  0.41333  0.6037600000000001  1.0000
  C   C56       1.0  0.02614  0.33782  0.60343  1.0000
  C   C57       1.0  0.9921800000000002  0.29546  0.64558  1.0000
  C   C58       1.0  0.9415500000000002  0.33015  0.6864100000000002  1.0000
  C   C59       1.0  0.89947  0.2881  0.73164  1.0000
  C   C60       1.0  0.93109  0.40633000000000014  0.6828800000000003  1.0000
  C   C61       1.0  0.97737  0.09668  0.60551  1.0000
  C   C62       1.0  0.9655700000000003  0.17228  0.6058200000000001  1.0000
  C   C63       1.0  0.007300000000000001  0.21482  0.6455100000000001  1.0000
  C   C64       1.0  0.06320000000000003  0.17982000000000006  0.68331  1.0000
  C   C65       1.0  0.11882000000000002  0.22003  0.7242000000000001  1.0000
  C   C66       1.0  0.06889000000000003  0.10311  0.6805400000000001  1.0000
  C   C67       1.0  0.8182000000000003  0.6523  0.6356600000000001  1.0000
  C   C68       1.0  0.7234400000000001  0.68139  0.6372000000000001  1.0000
  C   C69       1.0  0.6511400000000003  0.63822  0.65625  1.0000
  C   C70       1.0  0.5625200000000002  0.66545  0.65598  1.0000
  C   C71       1.0  0.5436000000000002  0.73664  0.63685  1.0000
  C   C72       1.0  0.61699  0.77961  0.61821  1.0000
  C   C73       1.0  0.7056900000000003  0.75269  0.6185100000000001  1.0000
  C   C74       1.0  0.45002  0.76649  0.6384000000000002  1.0000
  C   C75       1.0  0.4350700000000001  0.84208  0.64694  1.0000
  C   C76       1.0  0.3471800000000001  0.87059  0.64993  1.0000
  C   C77       1.0  0.27144  0.82392  0.64626  1.0000
  C   C78       1.0  0.28518  0.74837  0.6379100000000001  1.0000
  C   C79       1.0  0.3732600000000001  0.72051  0.63308  1.0000
  C   C80       1.0  0.1766  0.8530900000000002  0.65129  1.0000
  C   C81       1.0  0.07689000000000003  0.63183  0.56892  1.0000
  C   C82       1.0  0.13325  0.63294  0.5191800000000001  1.0000
  C   C83       1.0  0.14664000000000005  0.56874  0.4891300000000001  1.0000
  C   C84       1.0  0.20050000000000007  0.56987  0.44342  1.0000
  C   C85       1.0  0.24131000000000005  0.63555  0.4256000000000001  1.0000
  C   C86       1.0  0.22718  0.69991  0.4559  1.0000
  C   C87       1.0  0.17434  0.6986  0.50216  1.0000
  C   C88       1.0  0.29501  0.63579  0.37568  1.0000
  C   C89       1.0  0.34174  0.5720200000000001  0.35906  1.0000
  C   C90       1.0  0.3869400000000001  0.56986  0.3103000000000001  1.0000
  C   C91       1.0  0.3858100000000001  0.6310000000000001  0.27624  1.0000
  C   C92       1.0  0.34242  0.69566  0.29308  1.0000
  C   C93       1.0  0.29853000000000013  0.69811  0.34239000000000014  1.0000
  C   C94       1.0  0.42886000000000013  0.62629  0.22228  1.0000
  C   C95       1.0  0.04311000000000001  0.64068  0.7314500000000002  1.0000
  C   C96       1.0  0.1  0.64089  0.7810100000000002  1.0000
  C   C97       1.0  0.15365  0.5795  0.79351  1.0000
  C   C98       1.0  0.20699000000000006  0.5785100000000001  0.83922  1.0000
  C   C99       1.0  0.20768  0.63858  0.8747400000000001  1.0000
  C   C100      1.0  0.1534  0.69999  0.86195  1.0000
  C   C101      1.0  0.10119000000000003  0.70167  0.81558  1.0000
  C   C102      1.0  0.26521  0.63656  0.9230200000000001  1.0000
  C   C103      1.0  0.29378  0.5689000000000001  0.9446900000000001  1.0000
  C   C104      1.0  0.3506300000000001  0.56657  0.9888800000000002  1.0000
  C   C105      1.0  0.3811  0.63165  0.01294  1.0000
  C   C106      1.0  0.35150000000000003  0.6993800000000001  0.99255  1.0000
  C   C107      1.0  0.2945  0.7016400000000003  0.9483100000000002  1.0000
  C   C108      1.0  0.44446000000000013  0.6298  0.05940000000000001  1.0000
  C   C109      1.0  0.9870600000000002  0.58667  0.39624000000000004  1.0000
  C   C110      1.0  0.9738600000000001  0.66217  0.3965700000000001  1.0000
  C   C111      1.0  0.007810000000000001  0.7045400000000003  0.35442  1.0000
  C   C112      1.0  0.058450000000000016  0.66985  0.31359  1.0000
  C   C113      1.0  0.10053000000000002  0.7119000000000002  0.26836  1.0000
  C   C114      1.0  0.06891  0.59367  0.31712  1.0000
  C   C115      1.0  0.022630000000000004  0.9033200000000001  0.39449  1.0000
  C   C116      1.0  0.03442  0.82772  0.39419  1.0000
  C   C117      1.0  0.9927000000000002  0.7851800000000002  0.35450000000000004  1.0000
  C   C118      1.0  0.9368000000000002  0.82018  0.31669  1.0000
  C   C119      1.0  0.88118  0.77997  0.2758  1.0000
  C   C120      1.0  0.9311000000000003  0.8968900000000001  0.31947  1.0000
  C   C121      1.0  0.18179000000000003  0.34769  0.36434  1.0000
  C   C122      1.0  0.27656  0.31861  0.3628  1.0000
  C   C123      1.0  0.34885  0.36178  0.34375  1.0000
  C   C124      1.0  0.43747000000000014  0.33455  0.34402000000000005  1.0000
  C   C125      1.0  0.4564  0.26336  0.36315  1.0000
  C   C126      1.0  0.38300999999999996  0.22039000000000003  0.3817900000000001  1.0000
  C   C127      1.0  0.2943000000000001  0.24731000000000003  0.38149  1.0000
  C   C128      1.0  0.5499800000000002  0.23351000000000002  0.3616  1.0000
  C   C129      1.0  0.5649200000000001  0.15792000000000003  0.35306  1.0000
  C   C130      1.0  0.65281  0.12941  0.35007  1.0000
  C   C131      1.0  0.72856  0.17608  0.35374000000000005  1.0000
  C   C132      1.0  0.7148100000000002  0.25163  0.36210000000000003  1.0000
  C   C133      1.0  0.6267400000000002  0.27948  0.36693000000000003  1.0000
  C   C134      1.0  0.82339  0.14691  0.3487100000000001  1.0000
  C   C135      1.0  0.9231000000000003  0.36817  0.4310800000000001  1.0000
  C   C136      1.0  0.86674  0.36706  0.48082  1.0000
  C   C137      1.0  0.8533500000000003  0.43126  0.51087  1.0000
  C   C138      1.0  0.7995000000000002  0.4301300000000001  0.5565900000000001  1.0000
  C   C139      1.0  0.75869  0.36445  0.5744  1.0000
  C   C140      1.0  0.77281  0.30008  0.5441000000000001  1.0000
  C   C141      1.0  0.8256600000000002  0.3014  0.49784  1.0000
  C   C142      1.0  0.7049900000000002  0.3642100000000001  0.6243200000000001  1.0000
  C   C143      1.0  0.6582500000000002  0.42798  0.64095  1.0000
  C   C144      1.0  0.61306  0.43014  0.6897000000000002  1.0000
  C   C145      1.0  0.61419  0.36900000000000005  0.72376  1.0000
  C   C146      1.0  0.6575700000000002  0.30433000000000004  0.7069200000000001  1.0000
  C   C147      1.0  0.70146  0.30189  0.65761  1.0000
  C   C148      1.0  0.57114  0.37370000000000003  0.7777200000000002  1.0000
  C   C149      1.0  0.9568900000000002  0.35932  0.26856  1.0000
  C   C150      1.0  0.8999900000000002  0.3591  0.21900000000000006  1.0000
  C   C151      1.0  0.8463400000000002  0.42050000000000004  0.20650000000000004  1.0000
  C   C152      1.0  0.793  0.42149  0.16078  1.0000
  C   C153      1.0  0.79232  0.3614200000000001  0.12526000000000004  1.0000
  C   C154      1.0  0.8465900000000002  0.3  0.13806000000000002  1.0000
  C   C155      1.0  0.8988100000000002  0.29832  0.18443  1.0000
  C   C156      1.0  0.7347900000000003  0.36344  0.07698  1.0000
  C   C157      1.0  0.7062200000000002  0.43110000000000004  0.055320000000000015  1.0000
  C   C158      1.0  0.6493700000000001  0.43343  0.01113  1.0000
  C   C159      1.0  0.61889  0.3683500000000001  0.98707  1.0000
  C   C160      1.0  0.6485  0.30062  0.00745  1.0000
  C   C161      1.0  0.7054900000000001  0.29836  0.05169  1.0000
  C   C162      1.0  0.5555400000000001  0.37019  0.9406000000000002  1.0000
  C   C163      1.0  0.4874900000000001  0.9130700000000002  0.89662  1.0000
  C   C164      1.0  0.47395  0.83761  0.89672  1.0000
  C   C165      1.0  0.50785  0.79529  0.85448  1.0000
  C   C166      1.0  0.55863  0.82992  0.81374  1.0000
  C   C167      1.0  0.60049  0.7879  0.7683900000000001  1.0000
  C   C168      1.0  0.56946  0.90605  0.8175000000000002  1.0000
  C   C169      1.0  0.5223800000000001  0.59665  0.8943400000000002  1.0000
  C   C170      1.0  0.5342700000000002  0.67222  0.89409  1.0000
  C   C171      1.0  0.4925400000000001  0.71469  0.8544400000000002  1.0000
  C   C172      1.0  0.43653  0.67974  0.8166000000000002  1.0000
  C   C173      1.0  0.3810800000000001  0.72009  0.77578  1.0000
  C   C174      1.0  0.4306800000000001  0.60306  0.81931  1.0000
  C   C175      1.0  0.68179  0.15247  0.86425  1.0000
  C   C176      1.0  0.77665  0.18142  0.86268  1.0000
  C   C177      1.0  0.8489200000000002  0.13815000000000002  0.8436600000000002  1.0000
  C   C178      1.0  0.9375900000000003  0.16535000000000002  0.84401  1.0000
  C   C179      1.0  0.9565200000000003  0.23659999999999998  0.8631600000000001  1.0000
  C   C180      1.0  0.8831800000000002  0.27963  0.8818400000000001  1.0000
  C   C181      1.0  0.79448  0.25271  0.8814300000000003  1.0000
  C   C182      1.0  0.05005  0.26655  0.8616100000000001  1.0000
  C   C183      1.0  0.06485000000000002  0.34215  0.8531100000000001  1.0000
  C   C184      1.0  0.15268000000000007  0.37077  0.8500900000000001  1.0000
  C   C185      1.0  0.22846000000000005  0.32415  0.85368  1.0000
  C   C186      1.0  0.21485  0.24863000000000002  0.86208  1.0000
  C   C187      1.0  0.12684000000000004  0.22067  0.86692  1.0000
  C   C188      1.0  0.32333000000000006  0.35319  0.84861  1.0000
  C   C189      1.0  0.4230200000000001  0.13171  0.9311500000000003  1.0000
  C   C190      1.0  0.3665000000000001  0.13284  0.9808600000000001  1.0000
  C   C191      1.0  0.3531700000000001  0.06865  0.010850000000000002  1.0000
  C   C192      1.0  0.29929  0.06972000000000002  0.05656000000000001  1.0000
  C   C193      1.0  0.25852  0.13543  0.07444  1.0000
  C   C194      1.0  0.27267000000000013  0.19981000000000004  0.04424  1.0000
  C   C195      1.0  0.3255  0.19852000000000003  0.99798  1.0000
  C   C196      1.0  0.20490000000000005  0.13573  0.12439  1.0000
  C   C197      1.0  0.15812  0.07204  0.14100000000000001  1.0000
  C   C198      1.0  0.11305000000000003  0.07004000000000002  0.18979000000000004  1.0000
  C   C199      1.0  0.11426000000000003  0.13117000000000004  0.22394  1.0000
  C   C200      1.0  0.15773000000000006  0.19582  0.20708  1.0000
  C   C201      1.0  0.20153  0.19809  0.15771  1.0000
  C   C202      1.0  0.07132000000000002  0.12618  0.27792  1.0000
  C   C203      1.0  0.45662  0.13779  0.76885  1.0000
  C   C204      1.0  0.39943  0.13845  0.71951  1.0000
  C   C205      1.0  0.3452300000000001  0.0775  0.7065400000000001  1.0000
  C   C206      1.0  0.29212  0.07755  0.66073  1.0000
  C   C207      1.0  0.29228000000000004  0.13804000000000002  0.6256300000000001  1.0000
  C   C208      1.0  0.34698000000000007  0.19899  0.6390200000000001  1.0000
  C   C209      1.0  0.39894000000000013  0.19967  0.68547  1.0000
  C   C210      1.0  0.23516000000000006  0.13656  0.57717  1.0000
  C   C211      1.0  0.20654000000000006  0.06896000000000001  0.5553100000000001  1.0000
  C   C212      1.0  0.14924000000000007  0.06675  0.51136  1.0000
  C   C213      1.0  0.11851000000000003  0.13186  0.4876000000000001  1.0000
  C   C214      1.0  0.14879999999999996  0.19954  0.5078100000000001  1.0000
  C   C215      1.0  0.2061  0.20175  0.5519500000000002  1.0000
  C   C216      1.0  0.05465  0.12977000000000002  0.44142000000000003  1.0000
  N   N1        1.0  0.4661300000000001  0.05305  0.14279  1.0000
  N   N2        1.0  0.52765  0.43768  0.14329000000000003  1.0000
  N   N3        1.0  0.9669000000000002  0.44728999999999997  0.6433100000000003  1.0000
  N   N4        1.0  0.027250000000000007  0.062240000000000004  0.64312  1.0000
  N   N5        1.0  0.03310000000000001  0.55271  0.3567000000000001  1.0000
  N   N6        1.0  0.97274  0.9377500000000001  0.35689  1.0000
  N   N7        1.0  0.53386  0.94694  0.85721  1.0000
  N   N8        1.0  0.4723500000000001  0.56232  0.8567200000000003  1.0000
  O   O1        1.0  0.33117000000000013  0.9146799999999999  0.15105  1.0000
  O   O2        1.0  0.38142000000000004  0.8070600000000001  0.11797  1.0000
  O   O3        1.0  0.66419  0.5778500000000001  0.14004  1.0000
  O   O4        1.0  0.61431  0.6893  0.16682  1.0000
  O   O5        1.0  0.5268900000000002  0.9258700000000001  0.0759  1.0000
  O   O6        1.0  0.5830700000000002  0.81491  0.10072000000000003  1.0000
  O   O7        1.0  0.9811700000000002  0.92978  0.71448  1.0000
  O   O8        1.0  0.90907  0.82576  0.6875  1.0000
  O   O9        1.0  0.5372300000000001  0.92461  0.20709000000000002  1.0000
  O   O10       1.0  0.50457  0.80334  0.21703000000000006  1.0000
  O   O11       1.0  0.9593900000000002  0.934  0.57958  1.0000
  O   O12       1.0  0.98212  0.81102  0.5733500000000001  1.0000
  O   O13       1.0  0.8311400000000002  0.58526  0.6511000000000001  1.0000
  O   O14       1.0  0.8814600000000002  0.69266  0.6178  1.0000
  O   O15       1.0  0.16421  0.922  0.63996  1.0000
  O   O16       1.0  0.11418000000000003  0.8107  0.6667300000000003  1.0000
  O   O17       1.0  0.026910000000000007  0.57423  0.5760600000000001  1.0000
  O   O18       1.0  0.08308  0.6853100000000002  0.60076  1.0000
  O   O19       1.0  0.48121000000000014  0.57033  0.21455000000000002  1.0000
  O   O20       1.0  0.4093900000000001  0.67462  0.1879  1.0000
  O   O21       1.0  0.03768  0.57853  0.70685  1.0000
  O   O22       1.0  0.0045  0.6997  0.71755  1.0000
  O   O23       1.0  0.45734000000000014  0.56635  0.08111  1.0000
  O   O24       1.0  0.4820700000000001  0.68901  0.07358  1.0000
  O   O25       1.0  0.16886000000000007  0.41474  0.3489000000000001  1.0000
  O   O26       1.0  0.11854000000000003  0.30734  0.3822100000000001  1.0000
  O   O27       1.0  0.83579  0.07799  0.36004  1.0000
  O   O28       1.0  0.88582  0.1893  0.33327  1.0000
  O   O29       1.0  0.97309  0.42577  0.42394  1.0000
  O   O30       1.0  0.9169200000000002  0.31468  0.39924  1.0000
  O   O31       1.0  0.51879  0.4296700000000001  0.78545  1.0000
  O   O32       1.0  0.5906100000000002  0.32537  0.8121  1.0000
  O   O33       1.0  0.9623100000000002  0.42146  0.29316  1.0000
  O   O34       1.0  0.9955000000000003  0.3003  0.28245  1.0000
  O   O35       1.0  0.5426600000000003  0.43364  0.91889  1.0000
  O   O36       1.0  0.51793  0.31099  0.9264200000000001  1.0000
  O   O37       1.0  0.66883  0.08532  0.8489600000000003  1.0000
  O   O38       1.0  0.61858  0.19294000000000003  0.8820400000000003  1.0000
  O   O39       1.0  0.33581  0.42215  0.85996  1.0000
  O   O40       1.0  0.3856900000000001  0.31070000000000003  0.83318  1.0000
  O   O41       1.0  0.4731  0.07413000000000002  0.92411  1.0000
  O   O42       1.0  0.41693  0.18509  0.89929  1.0000
  O   O43       1.0  0.01883  0.07022000000000002  0.28552000000000005  1.0000
  O   O44       1.0  0.09092000000000003  0.17424  0.31251  1.0000
  O   O45       1.0  0.46277  0.07539  0.7929100000000002  1.0000
  O   O46       1.0  0.49542000000000014  0.19666  0.7829700000000002  1.0000
  O   O47       1.0  0.040600000000000004  0.066  0.42042  1.0000
  O   O48       1.0  0.01787  0.18898000000000006  0.42665  1.0000
