data_image0
_chemical_formula_structural       Cd8H192C280N24O20
_chemical_formula_sum              "Cd8 H192 C280 N24 O20"
_cell_length_a       19.54748
_cell_length_b       21.16845
_cell_length_c       30.166690000000003
_cell_angle_alpha    80.74582999999998
_cell_angle_beta     69.40428
_cell_angle_gamma    62.07164999999999

_space_group_name_H-M_alt    "P 1"
_space_group_IT_number       1

loop_
  _space_group_symop_operation_xyz
  'x, y, z'

loop_
  _atom_site_type_symbol
  _atom_site_label
  _atom_site_symmetry_multiplicity
  _atom_site_fract_x
  _atom_site_fract_y
  _atom_site_fract_z
  _atom_site_occupancy
  Cd  Cd1       1.0  0.09984999999999998  0.52395  0.7286  1.0000
  Cd  Cd2       1.0  0.90014  0.47604  0.27141  1.0000
  Cd  Cd3       1.0  0.6690100000000002  0.51673  0.6640299999999998  1.0000
  Cd  Cd4       1.0  0.1866600000000001  0.48076  0.16329999999999995  1.0000
  Cd  Cd5       1.0  0.3771799999999999  0.52327  0.77192  1.0000
  Cd  Cd6       1.0  0.3310300000000001  0.48323  0.33598  1.0000
  Cd  Cd7       1.0  0.8133300000000001  0.51922  0.8367  1.0000
  Cd  Cd8       1.0  0.6228199999999999  0.47672000000000003  0.22807999999999995  1.0000
  H   H1        1.0  0.7063599999999999  0.06086  0.90879  1.0000
  H   H2        1.0  0.13231  0.36199  0.71772  1.0000
  H   H3        1.0  0.39824  0.75506  0.91273  1.0000
  H   H4        1.0  0.86226  0.48590000000000005  0.12327  1.0000
  H   H5        1.0  0.28537000000000007  0.33407  0.33192  1.0000
  H   H6        1.0  0.15764  0.06585  0.53876  1.0000
  H   H7        1.0  0.4815899999999999  0.6322500000000001  0.73558  1.0000
  H   H8        1.0  0.09543000000000001  0.03567000000000001  0.42644999999999994  1.0000
  H   H9        1.0  0.71186  0.34228  0.35944  1.0000
  H   H10       1.0  0.67981  0.9620599999999999  0.66559  1.0000
  H   H11       1.0  0.6454200000000001  0.5459699999999998  0.8110399999999999  1.0000
  H   H12       1.0  0.6172599999999999  0.8786500000000002  0.10722999999999999  1.0000
  H   H13       1.0  0.20639000000000016  0.23883000000000001  0.7449599999999997  1.0000
  H   H14       1.0  0.3489600000000001  0.51438  0.62322  1.0000
  H   H15       1.0  0.7753300000000001  0.99248  0.13721  1.0000
  H   H16       1.0  0.3847000000000002  0.9461000000000002  0.4332099999999999  1.0000
  H   H17       1.0  0.3470000000000003  0.4488  0.70386  1.0000
  H   H18       1.0  0.6152900000000001  0.0539  0.5667899999999998  1.0000
  H   H19       1.0  0.53941  0.05619  0.51577  1.0000
  H   H20       1.0  0.7150800000000003  0.67085  0.17474999999999996  1.0000
  H   H21       1.0  0.15303000000000005  0.24381000000000003  0.4129999999999999  1.0000
  H   H22       1.0  0.8856000000000003  0.63052  0.7648799999999998  1.0000
  H   H23       1.0  0.22743999999999998  0.158  0.31378  1.0000
  H   H24       1.0  0.23324999999999996  0.99192  0.36279  1.0000
  H   H25       1.0  0.80836  0.54625  0.6883099999999999  1.0000
  H   H26       1.0  0.44233  0.9724700000000001  0.2662  1.0000
  H   H27       1.0  0.73671  0.70537  0.03451  1.0000
  H   H28       1.0  0.11439999999999993  0.36946  0.23512  1.0000
  H   H29       1.0  0.7677600000000001  0.93854  0.40867  1.0000
  H   H30       1.0  0.29362999999999995  0.9391400000000001  0.09121  1.0000
  H   H31       1.0  0.9143799999999999  0.76358  0.0495  1.0000
  H   H32       1.0  0.030770000000000075  0.20767  0.3233499999999999  1.0000
  H   H33       1.0  0.51841  0.36774  0.26443  1.0000
  H   H34       1.0  0.72347  0.12336000000000001  0.5108299999999999  1.0000
  H   H35       1.0  0.59597  0.76687  0.70046  1.0000
  H   H36       1.0  0.4504400000000002  0.56663  0.3534899999999999  1.0000
  H   H37       1.0  0.4986  0.11227  0.3171599999999999  1.0000
  H   H38       1.0  0.22384000000000004  0.9347800000000002  0.03839999999999998  1.0000
  H   H39       1.0  0.3505200000000001  0.34789000000000003  0.90585  1.0000
  H   H40       1.0  0.5466799999999998  0.5530800000000001  0.61462  1.0000
  H   H41       1.0  0.20528000000000018  0.44806  0.7965499999999998  1.0000
  H   H42       1.0  0.6148500000000002  0.66954  0.32483999999999996  1.0000
  H   H43       1.0  0.6494799999999998  0.6521100000000001  0.09415  1.0000
  H   H44       1.0  0.62012  0.66492  0.83138  1.0000
  H   H45       1.0  0.46058  0.94381  0.4842399999999999  1.0000
  H   H46       1.0  0.76628  0.8685600000000001  0.55286  1.0000
  H   H47       1.0  0.57047  0.57853  0.5284  1.0000
  H   H48       1.0  0.4295299999999999  0.4214700000000001  0.4715999999999999  1.0000
  H   H49       1.0  0.5802400000000002  0.44938  0.1378  1.0000
  H   H50       1.0  0.7191  0.3161  0.22170999999999993  1.0000
  H   H51       1.0  0.69609  0.6511400000000002  0.4067799999999999  1.0000
  H   H52       1.0  0.23224  0.06146  0.59134  1.0000
  H   H53       1.0  0.50139  0.88773  0.68284  1.0000
  H   H54       1.0  0.50588  0.8780900000000001  0.3923799999999999  1.0000
  H   H55       1.0  0.7761600000000002  0.06522  0.9615999999999998  1.0000
  H   H56       1.0  0.5547299999999998  0.70444  0.46699  1.0000
  H   H57       1.0  0.9655000000000001  0.7939  0.17891  1.0000
  H   H58       1.0  0.8691999999999999  0.03458  0.07364  1.0000
  H   H59       1.0  0.4197599999999999  0.55062  0.8622  1.0000
  H   H60       1.0  0.40445000000000014  0.054950000000000006  0.9845199999999997  1.0000
  H   H61       1.0  0.64246  0.03663  0.16530999999999996  1.0000
  H   H62       1.0  0.79584  0.7557200000000001  0.74687  1.0000
  H   H63       1.0  0.3546000000000001  0.4540199999999999  0.18895999999999993  1.0000
  H   H64       1.0  0.6529900000000001  0.55119  0.29614  1.0000
  H   H65       1.0  0.84323  0.87984  0.17557  1.0000
  H   H66       1.0  0.41437  0.09082  0.41155999999999987  1.0000
  H   H67       1.0  0.38398  0.65268  0.91119  1.0000
  H   H68       1.0  0.5285099999999998  0.76236  0.36984  1.0000
  H   H69       1.0  0.6121000000000002  0.88522  0.81724  1.0000
  H   H70       1.0  0.44670000000000043  0.75696  0.7536099999999998  1.0000
  H   H71       1.0  0.39666  0.90538  0.11383999999999997  1.0000
  H   H72       1.0  0.23371000000000006  0.13144  0.44713999999999987  1.0000
  H   H73       1.0  0.6892899999999998  0.3144  0.44633  1.0000
  H   H74       1.0  0.8676800000000001  0.638  0.28228  1.0000
  H   H75       1.0  0.01836000000000014  0.43271999999999994  0.8541099999999999  1.0000
  H   H76       1.0  0.08561000000000003  0.23642  0.9504999999999999  1.0000
  H   H77       1.0  0.49304  0.09095  0.08883  1.0000
  H   H78       1.0  0.8469400000000002  0.87657  0.01082  1.0000
  H   H79       1.0  0.2809  0.68389  0.77829  1.0000
  H   H80       1.0  0.30392000000000013  0.34885000000000005  0.5932099999999998  1.0000
  H   H81       1.0  0.13773999999999997  0.5141  0.87674  1.0000
  H   H82       1.0  0.28930000000000017  0.23749000000000003  0.8702499999999997  1.0000
  H   H83       1.0  0.45331  0.44691000000000003  0.3853899999999999  1.0000
  H   H84       1.0  0.63344  0.13253000000000004  0.05335  1.0000
  H   H85       1.0  0.77255  0.84198  0.68622  1.0000
  H   H86       1.0  0.36655000000000004  0.86747  0.94665  1.0000
  H   H87       1.0  0.5315900000000001  0.14427000000000004  0.7572799999999998  1.0000
  H   H88       1.0  0.5081000000000002  0.9071600000000001  0.5404999999999999  1.0000
  H   H89       1.0  0.10083000000000003  0.44634  0.11346999999999997  1.0000
  H   H90       1.0  0.7605999999999999  0.20469000000000004  0.67878  1.0000
  H   H91       1.0  0.7947199999999998  0.55193  0.20344  1.0000
  H   H92       1.0  0.47052999999999995  0.9076699999999999  0.16423  1.0000
  H   H93       1.0  0.16279000000000002  0.85298  0.8920699999999998  1.0000
  H   H94       1.0  0.37693000000000004  0.09352  0.6640299999999998  1.0000
  H   H95       1.0  0.30084  0.09538  0.6137099999999998  1.0000
  H   H96       1.0  0.985  0.85194  0.6080899999999999  1.0000
  H   H97       1.0  0.3201899999999999  0.03792999999999999  0.33441  1.0000
  H   H98       1.0  0.6685599999999999  0.94743  0.06679  1.0000
  H   H99       1.0  0.7146100000000001  0.66592  0.66809  1.0000
  H   H100      1.0  0.5838300000000001  0.32447  0.6051299999999998  1.0000
  H   H101      1.0  0.15677000000000005  0.12016  0.82442  1.0000
  H   H102      1.0  0.5079100000000001  0.36024000000000006  0.7819299999999998  1.0000
  H   H103      1.0  0.67588  0.85609  0.25732  1.0000
  H   H104      1.0  0.7935999999999999  0.76116  0.25504  1.0000
  H   H105      1.0  0.40402000000000005  0.23312  0.29954  1.0000
  H   H106      1.0  0.049479999999999975  0.46484000000000003  0.93782  1.0000
  H   H107      1.0  0.0012499999999999968  0.68544  0.94815  1.0000
  H   H108      1.0  0.61575  0.15622  0.18581  1.0000
  H   H109      1.0  0.59554  0.94505  0.01548  1.0000
  H   H110      1.0  0.5133000000000002  0.53469  0.43853  1.0000
  H   H111      1.0  0.49207999999999996  0.6397600000000001  0.21806999999999999  1.0000
  H   H112      1.0  0.03641999999999998  0.67946  0.21685999999999994  1.0000
  H   H113      1.0  0.9635699999999999  0.32054  0.78315  1.0000
  H   H114      1.0  0.28197  0.68114  0.28326  1.0000
  H   H115      1.0  0.5576700000000002  0.02753  0.7338  1.0000
  H   H116      1.0  0.2765200000000001  0.87664  0.48917  1.0000
  H   H117      1.0  0.27776  0.87938  0.32431  1.0000
  H   H118      1.0  0.3851500000000002  0.33045  0.6751599999999998  1.0000
  H   H119      1.0  0.9639  0.65306  0.5889199999999999  1.0000
  H   H120      1.0  0.5069499999999998  0.9090400000000001  0.9111599999999999  1.0000
  H   H121      1.0  0.96923  0.7923200000000002  0.67665  1.0000
  H   H122      1.0  0.22467000000000015  0.007519999999999998  0.8627899999999997  1.0000
  H   H123      1.0  0.6230699999999999  0.9064700000000001  0.33597  1.0000
  H   H124      1.0  0.63786  0.7649  0.7996799999999997  1.0000
  H   H125      1.0  0.67796  0.23631  0.54963  1.0000
  H   H126      1.0  0.41616  0.67553  0.3948799999999999  1.0000
  H   H127      1.0  0.6510299999999999  0.48561000000000004  0.37677  1.0000
  H   H128      1.0  0.38274  0.12134  0.8927599999999998  1.0000
  H   H129      1.0  0.71802  0.31887  0.71674  1.0000
  H   H130      1.0  0.28491  0.32915  0.82524  1.0000
  H   H131      1.0  0.7667400000000001  0.008079999999999999  0.6372199999999999  1.0000
  H   H132      1.0  0.03449000000000001  0.2061  0.82109  1.0000
  H   H133      1.0  0.7621500000000001  0.20792  0.17612999999999995  1.0000
  H   H134      1.0  0.4941200000000002  0.12190999999999998  0.6076299999999998  1.0000
  H   H135      1.0  0.6033400000000002  0.09462  0.8861499999999998  1.0000
  H   H136      1.0  0.3879  0.11478  0.18276  1.0000
  H   H137      1.0  0.7107  0.76251  0.12975  1.0000
  H   H138      1.0  0.9505099999999999  0.53516  0.062179999999999985  1.0000
  H   H139      1.0  0.48669000000000007  0.4653  0.56147  1.0000
  H   H140      1.0  0.47148999999999996  0.23764  0.63016  1.0000
  H   H141      1.0  0.54955  0.43337000000000003  0.6465099999999998  1.0000
  H   H142      1.0  0.20416  0.24426  0.25312  1.0000
  H   H143      1.0  0.15061  0.42053000000000007  0.027109999999999992  1.0000
  H   H144      1.0  0.44528  0.29555000000000003  0.5330099999999999  1.0000
  H   H145      1.0  0.36214000000000013  0.23509  0.20030999999999993  1.0000
  H   H146      1.0  0.4684100000000001  0.85572  0.24272999999999997  1.0000
  H   H147      1.0  0.84939  0.57947  0.9728999999999999  1.0000
  H   H148      1.0  0.029080000000000123  0.55136  0.6383799999999997  1.0000
  H   H149      1.0  0.89918  0.55365  0.88654  1.0000
  H   H150      1.0  0.03335000000000006  0.68459  0.7227  1.0000
  H   H151      1.0  0.23938999999999996  0.79531  0.32122  1.0000
  H   H152      1.0  0.5561400000000002  0.23739  0.7545299999999998  1.0000
  H   H153      1.0  0.2378400000000002  0.79207  0.8238699999999998  1.0000
  H   H154      1.0  0.49190000000000006  0.09284  0.4595  1.0000
  H   H155      1.0  0.38425000000000004  0.84377  0.81419  1.0000
  H   H156      1.0  0.7222300000000003  0.12062  0.6756999999999997  1.0000
  H   H157      1.0  0.84235  0.9341500000000001  0.46125  1.0000
  H   H158      1.0  0.97091  0.4486399999999999  0.36162  1.0000
  H   H159      1.0  0.28813  0.65772  0.64056  1.0000
  H   H160      1.0  0.1916200000000001  0.45373  0.3116899999999999  1.0000
  H   H161      1.0  0.37989  0.33507  0.16861  1.0000
  H   H162      1.0  0.3575400000000001  0.9633600000000001  0.8346899999999999  1.0000
  H   H163      1.0  0.5847599999999998  0.97316  0.23395  1.0000
  H   H164      1.0  0.13079999999999992  0.9654100000000001  0.92636  1.0000
  H   H165      1.0  0.052929999999999984  0.6566  0.86126  1.0000
  H   H166      1.0  0.52946  0.09233  0.83576  1.0000
  H   H167      1.0  0.44386000000000003  0.76261  0.24547999999999995  1.0000
  H   H168      1.0  0.03610000000000003  0.34694  0.4110799999999999  1.0000
  H   H169      1.0  0.5856200000000001  0.90918  0.58845  1.0000
  H   H170      1.0  0.3220299999999999  0.7637000000000002  0.4503699999999999  1.0000
  H   H171      1.0  0.15305  0.12343000000000001  0.98918  1.0000
  H   H172      1.0  0.26328000000000007  0.29463  0.9654999999999998  1.0000
  H   H173      1.0  0.83721  0.14702  0.10792999999999997  1.0000
  H   H174      1.0  0.5861500000000001  0.90745  0.9591599999999998  1.0000
  H   H175      1.0  0.9045599999999998  0.96433  0.57355  1.0000
  H   H176      1.0  0.69916  0.90462  0.38629  1.0000
  H   H177      1.0  0.9666399999999998  0.3154  0.2773  1.0000
  H   H178      1.0  0.41523000000000004  0.02683  0.76604  1.0000
  H   H179      1.0  0.09242000000000002  0.32337  0.8953999999999998  1.0000
  H   H180      1.0  0.9075699999999998  0.6766200000000002  0.1046  1.0000
  H   H181      1.0  0.60176  0.24493  0.08727  1.0000
  H   H182      1.0  0.6160099999999997  0.34732  0.08880999999999997  1.0000
  H   H183      1.0  0.33144000000000007  0.05257  0.93321  1.0000
  H   H184      1.0  0.31071000000000015  0.6856  0.5536699999999999  1.0000
  H   H185      1.0  0.99873  0.31457000000000007  0.051849999999999986  1.0000
  H   H186      1.0  0.94707  0.34339  0.13874  1.0000
  H   H187      1.0  0.3241100000000001  0.14390000000000003  0.7426699999999998  1.0000
  H   H188      1.0  0.014990000000000045  0.14806000000000002  0.3919199999999999  1.0000
  H   H189      1.0  0.8469600000000004  0.75619  0.5869999999999997  1.0000
  H   H190      1.0  0.9816300000000001  0.5672800000000001  0.14588999999999994  1.0000
  H   H191      1.0  0.41384  0.09255  0.04084  1.0000
  H   H192      1.0  0.5533  0.24302999999999997  0.2464  1.0000
  C   C1        1.0  0.20247000000000007  0.28922  0.26742  1.0000
  C   C2        1.0  0.64783  0.029180000000000005  0.53192  1.0000
  C   C3        1.0  0.61968  0.39471  0.14516  1.0000
  C   C4        1.0  0.9217499999999995  0.63498  0.96538  1.0000
  C   C5        1.0  0.03916  0.26751  0.37179  1.0000
  C   C6        1.0  0.27307999999999993  0.9938100000000001  0.98245  1.0000
  C   C7        1.0  0.3000800000000002  0.46486999999999995  0.8512299999999998  1.0000
  C   C8        1.0  0.34496000000000004  0.37315  0.58605  1.0000
  C   C9        1.0  0.1851  0.13529  0.43562999999999996  1.0000
  C   C10       1.0  0.63667  0.96981  0.0025  1.0000
  C   C11       1.0  0.3871200000000001  0.07265  0.78923  1.0000
  C   C12       1.0  0.96644  0.74515  0.17084  1.0000
  C   C13       1.0  0.41926000000000013  0.92024  0.82572  1.0000
  C   C14       1.0  0.07861999999999998  0.41744  0.09979  1.0000
  C   C15       1.0  0.01323999999999997  0.58375  0.81717  1.0000
  C   C16       1.0  0.3036399999999998  0.9632500000000002  0.056329999999999984  1.0000
  C   C17       1.0  0.5109400000000001  0.8078  0.34644  1.0000
  C   C18       1.0  0.9205199999999997  0.7958000000000002  0.60177  1.0000
  C   C19       1.0  0.25314000000000014  0.27231  0.7877199999999998  1.0000
  C   C20       1.0  0.07052999999999997  0.25413  0.86183  1.0000
  C   C21       1.0  0.7152  0.6278500000000001  0.08700999999999998  1.0000
  C   C22       1.0  0.35216000000000025  0.97082  0.4680899999999999  1.0000
  C   C23       1.0  0.41572000000000003  0.33392  0.69795  1.0000
  C   C24       1.0  0.75023  0.057030000000000004  0.57076  1.0000
  C   C25       1.0  0.20924000000000015  0.28326  0.7566499999999998  1.0000
  C   C26       1.0  0.7759799999999999  0.96094  0.4727999999999999  1.0000
  C   C27       1.0  0.7225  0.26041  0.16587  1.0000
  C   C28       1.0  0.15237  0.35896  0.25723  1.0000
  C   C29       1.0  0.5611800000000001  0.8775600000000001  0.68305  1.0000
  C   C30       1.0  0.69894  0.18731  0.61537  1.0000
  C   C31       1.0  0.5098300000000001  0.64218  0.7573999999999997  1.0000
  C   C32       1.0  0.5841700000000001  0.0526  0.8913999999999997  1.0000
  C   C33       1.0  0.6382700000000001  0.34263  0.4324399999999999  1.0000
  C   C34       1.0  0.38371999999999984  0.6795400000000001  0.37089  1.0000
  C   C35       1.0  0.30227999999999994  0.81356  0.4309199999999999  1.0000
  C   C36       1.0  0.72371  0.12264000000000001  0.5469  1.0000
  C   C37       1.0  0.23613000000000003  0.46558  0.64869  1.0000
  C   C38       1.0  0.54191  0.05188  0.86291  1.0000
  C   C39       1.0  0.9788100000000002  0.6039600000000002  0.8684399999999998  1.0000
  C   C40       1.0  0.97729  0.61866  0.15184999999999996  1.0000
  C   C41       1.0  0.5261300000000002  0.06583  0.6694299999999997  1.0000
  C   C42       1.0  0.022699999999999984  0.38134  0.84816  1.0000
  C   C43       1.0  0.5031500000000004  0.12627  0.6403199999999998  1.0000
  C   C44       1.0  0.27587  0.87843  0.36087  1.0000
  C   C45       1.0  0.15221  0.37688000000000005  0.9545199999999998  1.0000
  C   C46       1.0  0.5968  0.38155  0.65221  1.0000
  C   C47       1.0  0.5984999999999999  0.41586  0.3158  1.0000
  C   C48       1.0  0.58428  0.66607  0.30205  1.0000
  C   C49       1.0  0.86115  0.80108  0.58339  1.0000
  C   C50       1.0  0.4602400000000002  0.9268100000000001  0.2892899999999999  1.0000
  C   C51       1.0  0.58439  0.9333200000000001  0.67252  1.0000
  C   C52       1.0  0.03355000000000012  0.25485  0.8291599999999998  1.0000
  C   C53       1.0  0.42387000000000036  0.19189  0.19244999999999995  1.0000
  C   C54       1.0  0.9787999999999999  0.65735  0.9341199999999997  1.0000
  C   C55       1.0  0.83361  0.64805  0.25806  1.0000
  C   C56       1.0  0.5761299999999999  0.8081  0.80755  1.0000
  C   C57       1.0  0.4833600000000002  0.35087  0.7577799999999998  1.0000
  C   C58       1.0  0.11375999999999993  0.18722000000000003  0.88472  1.0000
  C   C59       1.0  0.5297199999999999  0.72257  0.79477  1.0000
  C   C60       1.0  0.67578  0.25403  0.63829  1.0000
  C   C61       1.0  0.48694999999999994  0.20516  0.19429999999999994  1.0000
  C   C62       1.0  0.8066499999999999  0.9425900000000001  0.11763999999999997  1.0000
  C   C63       1.0  0.06399999999999993  0.32  0.87122  1.0000
  C   C64       1.0  0.58074  0.07975  0.17427999999999993  1.0000
  C   C65       1.0  0.27629000000000004  0.87736  0.4531099999999999  1.0000
  C   C66       1.0  0.82728  0.92559  0.56258  1.0000
  C   C67       1.0  0.4968500000000001  0.8737199999999999  0.35968  1.0000
  C   C68       1.0  0.07947000000000001  0.2042  0.39823  1.0000
  C   C69       1.0  0.38032000000000005  0.60529  0.8548399999999999  1.0000
  C   C70       1.0  0.7474800000000001  0.72237  0.70518  1.0000
  C   C71       1.0  0.5255400000000001  0.13949  0.72361  1.0000
  C   C72       1.0  0.3985199999999999  0.99893  0.07305999999999997  1.0000
  C   C73       1.0  0.35984000000000005  0.66256  0.88198  1.0000
  C   C74       1.0  0.36972  0.12581  0.85993  1.0000
  C   C75       1.0  0.6652000000000001  0.86084  0.22363  1.0000
  C   C76       1.0  0.4786699999999999  0.9489500000000001  0.5670399999999999  1.0000
  C   C77       1.0  0.33880000000000005  0.80048  0.91638  1.0000
  C   C78       1.0  0.07825  0.36502  0.03462  1.0000
  C   C79       1.0  0.6057500000000001  0.031010000000000003  0.5026299999999999  1.0000
  C   C80       1.0  0.5944  0.94717  0.3631999999999999  1.0000
  C   C81       1.0  0.63731  0.94673  0.3916499999999999  1.0000
  C   C82       1.0  0.67858  0.13589  0.06472999999999998  1.0000
  C   C83       1.0  0.35463999999999996  0.99767  0.042419999999999985  1.0000
  C   C84       1.0  0.2509699999999999  0.33333  0.80219  1.0000
  C   C85       1.0  0.47029  0.27742  0.20523999999999998  1.0000
  C   C86       1.0  0.28480000000000016  0.37215  0.9129899999999997  1.0000
  C   C87       1.0  0.3633200000000001  0.03019  0.9974999999999998  1.0000
  C   C88       1.0  0.5131900000000001  0.99874  0.37019999999999986  1.0000
  C   C89       1.0  0.40559999999999996  0.05283  0.63681  1.0000
  C   C90       1.0  0.1727100000000001  0.07441  0.4374299999999999  1.0000
  C   C91       1.0  0.8846400000000001  0.56121  0.06967  1.0000
  C   C92       1.0  0.6894000000000002  0.31799  0.6918299999999997  1.0000
  C   C93       1.0  0.11575000000000012  0.18642  0.9310099999999998  1.0000
  C   C94       1.0  0.4707700000000001  0.05096000000000001  0.09471999999999998  1.0000
  C   C95       1.0  0.42289  0.34369  0.55283  1.0000
  C   C96       1.0  0.7633299999999998  0.6573200000000001  0.05413  1.0000
  C   C97       1.0  0.25138999999999995  0.94222  0.3823599999999999  1.0000
  C   C98       1.0  0.43804999999999994  0.12400000000000001  0.18291  1.0000
  C   C99       1.0  0.10855  0.0811  0.42291  1.0000
  C   C100      1.0  0.3617300000000001  0.65737  0.56755  1.0000
  C   C101      1.0  0.24837999999999996  0.33862  0.31062  1.0000
  C   C102      1.0  0.8148899999999999  0.86471  0.5643699999999999  1.0000
  C   C103      1.0  0.31059999999999993  0.68202  0.30816999999999994  1.0000
  C   C104      1.0  0.9932000000000001  0.31905  0.8081599999999998  1.0000
  C   C105      1.0  0.39876999999999996  0.4062000000000001  0.20117999999999994  1.0000
  C   C106      1.0  0.8929500000000004  0.59733  0.9485599999999997  1.0000
  C   C107      1.0  0.84594  0.87872  0.13905  1.0000
  C   C108      1.0  0.61627  0.32046  0.62912  1.0000
  C   C109      1.0  0.6298599999999999  0.53283  0.3972  1.0000
  C   C110      1.0  0.5735599999999998  0.9488800000000001  0.9326199999999998  1.0000
  C   C111      1.0  0.3082000000000001  0.20504  0.3056  1.0000
  C   C112      1.0  0.67657  0.9717500000000001  0.03196  1.0000
  C   C113      1.0  0.39780000000000004  0.0012899999999999988  0.5727899999999998  1.0000
  C   C114      1.0  0.69909  0.7992400000000001  0.19617999999999994  1.0000
  C   C115      1.0  0.4868100000000002  0.001259999999999999  0.6297999999999998  1.0000
  C   C116      1.0  0.9608299999999997  0.73248  0.62822  1.0000
  C   C117      1.0  0.60147  0.00107  0.92694  1.0000
  C   C118      1.0  0.44159000000000004  0.63449  0.53619  1.0000
  C   C119      1.0  0.19276000000000004  0.056830000000000006  0.9291599999999998  1.0000
  C   C120      1.0  0.47386  0.9341700000000001  0.33057999999999993  1.0000
  C   C121      1.0  0.43881  0.12243  0.31696  1.0000
  C   C122      1.0  0.51305  0.79483  0.8056999999999997  1.0000
  C   C123      1.0  0.18974000000000008  0.9195100000000002  0.9227799999999998  1.0000
  C   C124      1.0  0.6918  0.7949500000000002  0.6944  1.0000
  C   C125      1.0  0.5842900000000001  0.3958100000000001  0.36698999999999987  1.0000
  C   C126      1.0  0.74903  0.66666  0.19780999999999996  1.0000
  C   C127      1.0  0.2842200000000001  0.79572  0.8981999999999999  1.0000
  C   C128      1.0  0.5292200000000002  0.94904  0.9052799999999998  1.0000
  C   C129      1.0  0.4913199999999999  0.7176  0.25701  1.0000
  C   C130      1.0  0.4727100000000001  0.37777  0.54409  1.0000
  C   C131      1.0  0.19525000000000003  0.40625  0.2992499999999999  1.0000
  C   C132      1.0  0.92137  0.58254  0.9002199999999998  1.0000
  C   C133      1.0  0.73321  0.9942100000000001  0.5173499999999999  1.0000
  C   C134      1.0  0.7333999999999999  0.96303  0.4436  1.0000
  C   C135      1.0  0.5619499999999998  0.8760000000000001  0.8170799999999998  1.0000
  C   C136      1.0  0.7127500000000001  0.85187  0.68613  1.0000
  C   C137      1.0  0.51734  0.06727  0.17241999999999993  1.0000
  C   C138      1.0  0.24766000000000005  0.92554  0.9371599999999998  1.0000
  C   C139      1.0  0.32140999999999975  0.86411  0.9352699999999999  1.0000
  C   C140      1.0  0.5095200000000001  0.28831  0.23238999999999999  1.0000
  C   C141      1.0  0.45809  0.94811  0.13709  1.0000
  C   C142      1.0  0.5086799999999999  0.28239  0.74299  1.0000
  C   C143      1.0  0.6817100000000003  0.56502  0.38871  1.0000
  C   C144      1.0  0.49506000000000033  0.58207  0.6011299999999998  1.0000
  C   C145      1.0  0.7638600000000001  0.53442  0.3513099999999999  1.0000
  C   C146      1.0  0.26678  0.00579  0.48266  1.0000
  C   C147      1.0  0.5128  0.0005200000000000004  0.86987  1.0000
  C   C148      1.0  0.6506799999999999  0.35791000000000006  0.38445  1.0000
  C   C149      1.0  0.8356299999999999  0.53342  0.1033  1.0000
  C   C150      1.0  0.5771099999999999  0.6563  0.4471699999999999  1.0000
  C   C151      1.0  0.1933500000000002  0.05741000000000001  0.8823599999999998  1.0000
  C   C152      1.0  0.66074  0.91971  0.67451  1.0000
  C   C153      1.0  0.7916499999999999  0.14381  0.09683  1.0000
  C   C154      1.0  0.7516  0.66136  0.68938  1.0000
  C   C155      1.0  0.7936999999999997  0.59955  0.21379  1.0000
  C   C156      1.0  0.99293  0.35842  0.11393  1.0000
  C   C157      1.0  0.4826499999999999  0.93272  0.82757  1.0000
  C   C158      1.0  0.6453500000000001  0.002329999999999999  0.9575799999999998  1.0000
  C   C159      1.0  0.64737  0.99782  0.45772  1.0000
  C   C160      1.0  0.23667000000000019  0.34268  0.9458699999999998  1.0000
  C   C161      1.0  0.6022  0.9987100000000001  0.42720999999999987  1.0000
  C   C162      1.0  0.52524  0.72771  0.2877999999999999  1.0000
  C   C163      1.0  0.01385999999999997  0.6059  0.64573  1.0000
  C   C164      1.0  0.8914400000000001  0.9189  0.5770999999999997  1.0000
  C   C165      1.0  0.4904900000000001  0.71167  0.7676099999999998  1.0000
  C   C166      1.0  0.36268999999999996  0.05327  0.60835  1.0000
  C   C167      1.0  0.5166299999999999  0.64913  0.24222999999999997  1.0000
  C   C168      1.0  0.7157699999999999  0.20427  0.1018  1.0000
  C   C169      1.0  0.73658  0.03889  0.97303  1.0000
  C   C170      1.0  0.55841  0.36551  0.4638099999999999  1.0000
  C   C171      1.0  0.5227799999999999  0.9493700000000002  0.59433  1.0000
  C   C172      1.0  0.61288  0.92735  0.21076999999999996  1.0000
  C   C173      1.0  0.43477000000000005  0.85266  0.81413  1.0000
  C   C174      1.0  0.7485999999999999  0.057780000000000005  0.6176499999999998  1.0000
  C   C175      1.0  0.8047300000000002  0.59374  0.7007499999999999  1.0000
  C   C176      1.0  0.35263  0.002170000000000001  0.54229  1.0000
  C   C177      1.0  0.3851100000000001  0.19062000000000004  0.30740999999999996  1.0000
  C   C178      1.0  0.6060900000000001  0.59924  0.2860299999999999  1.0000
  C   C179      1.0  0.20629000000000008  0.40044  0.7861999999999998  1.0000
  C   C180      1.0  0.6930600000000001  0.26779  0.12797  1.0000
  C   C181      1.0  0.6977100000000003  0.18644  0.5690799999999998  1.0000
  C   C182      1.0  0.9294700000000001  0.74587  0.13817  1.0000
  C   C183      1.0  0.69866  0.32005  0.19161  1.0000
  C   C184      1.0  0.2775000000000003  0.73959  0.83413  1.0000
  C   C185      1.0  0.30090999999999996  0.20075  0.80382  1.0000
  C   C186      1.0  0.4977499999999999  0.20095  0.69624  1.0000
  C   C187      1.0  0.4014899999999998  0.58414  0.6842  1.0000
  C   C188      1.0  0.26342  0.9611100000000001  0.02697  1.0000
  C   C189      1.0  0.98213  0.7399300000000001  0.66642  1.0000
  C   C190      1.0  0.71273  0.25396  0.6708  1.0000
  C   C191      1.0  0.64016  0.33744000000000013  0.11801999999999997  1.0000
  C   C192      1.0  0.9776099999999999  0.663  0.61833  1.0000
  C   C193      1.0  0.50225  0.7990500000000001  0.30375999999999986  1.0000
  C   C194      1.0  0.68224  0.80807  0.15331  1.0000
  C   C195      1.0  0.31827999999999984  0.4349700000000001  0.61129  1.0000
  C   C196      1.0  0.4155999999999999  0.06668  0.32749  1.0000
  C   C197      1.0  0.9361299999999998  0.8556200000000002  0.59685  1.0000
  C   C198      1.0  0.4890500000000001  0.19219  0.6535699999999998  1.0000
  C   C199      1.0  0.6012500000000001  0.5937900000000002  0.79882  1.0000
  C   C200      1.0  0.0070600000000000515  0.6415700000000001  0.8860699999999998  1.0000
  C   C201      1.0  0.5397600000000001  0.07319  0.7107099999999998  1.0000
  C   C202      1.0  0.4471500000000001  0.43943  0.5687499999999999  1.0000
  C   C203      1.0  0.69992  0.53513  0.14878  1.0000
  C   C204      1.0  0.7468499999999999  0.7276900000000001  0.21228  1.0000
  C   C205      1.0  0.5272899999999999  0.62222  0.45590999999999987  1.0000
  C   C206      1.0  0.021190000000000014  0.39603  0.13157  1.0000
  C   C207      1.0  0.3010600000000001  0.81269  0.38463999999999987  1.0000
  C   C208      1.0  0.30134000000000016  0.6799500000000002  0.8083899999999998  1.0000
  C   C209      1.0  0.49017999999999995  0.3578  0.24260999999999996  1.0000
  C   C210      1.0  0.50866  0.59659  0.55282  1.0000
  C   C211      1.0  0.3069400000000002  0.73221  0.8720299999999999  1.0000
  C   C212      1.0  0.20835000000000006  0.85619  0.9031599999999999  1.0000
  C   C213      1.0  0.32421  0.74597  0.3617099999999999  1.0000
  C   C214      1.0  0.66119  0.19952  0.08362  1.0000
  C   C215      1.0  0.75233  0.07445  0.06284  1.0000
  C   C216      1.0  0.022380000000000056  0.337  0.3816699999999999  1.0000
  C   C217      1.0  0.4032  0.61845  0.3477899999999999  1.0000
  C   C218      1.0  0.5920400000000001  0.93472  0.16942999999999994  1.0000
  C   C219      1.0  0.7241200000000001  0.12157  0.6391299999999998  1.0000
  C   C220      1.0  0.4264299999999999  0.05112  0.06738  1.0000
  C   C221      1.0  0.4079500000000001  0.06528000000000002  0.83057  1.0000
  C   C222      1.0  0.65504  0.62684  0.41394  1.0000
  C   C223      1.0  0.4913300000000001  0.4034  0.44718999999999987  1.0000
  C   C224      1.0  0.5049300000000003  0.41792  0.3988699999999999  1.0000
  C   C225      1.0  0.15406000000000006  0.12128000000000001  0.8609399999999998  1.0000
  C   C226      1.0  0.06385999999999997  0.14438000000000004  0.40316  1.0000
  C   C227      1.0  0.84779  0.62312  0.04548  1.0000
  C   C228      1.0  0.006789999999999968  0.68095  0.19183999999999996  1.0000
  C   C229      1.0  0.32341999999999993  0.02825  0.9680399999999998  1.0000
  C   C230      1.0  0.4158199999999998  0.9474000000000001  0.10859999999999999  1.0000
  C   C231      1.0  0.72691  0.006190000000000002  0.01755  1.0000
  C   C232      1.0  0.26659  0.03697  0.55641  1.0000
  C   C233      1.0  0.11536000000000003  0.43879000000000007  0.9303299999999999  1.0000
  C   C234      1.0  0.88424  0.81358  0.06898  1.0000
  C   C235      1.0  0.16436000000000014  0.46658  0.8966999999999998  1.0000
  C   C236      1.0  0.79075  0.71673  0.24334999999999996  1.0000
  C   C237      1.0  0.15357000000000012  0.12259  0.9531199999999997  1.0000
  C   C238      1.0  0.5528500000000001  0.56057  0.4312499999999999  1.0000
  C   C239      1.0  0.017380000000000135  0.68049  0.6924299999999998  1.0000
  C   C240      1.0  0.1663900000000001  0.35194000000000003  0.7419399999999998  1.0000
  C   C241      1.0  0.01786000000000005  0.26007  0.3335799999999999  1.0000
  C   C242      1.0  0.2525100000000002  0.27762  0.29482  1.0000
  C   C243      1.0  0.02120000000000001  0.34265  0.06588  1.0000
  C   C244      1.0  0.47722  0.05063  0.40567  1.0000
  C   C245      1.0  0.79753  0.71076  0.73258  1.0000
  C   C246      1.0  0.39391  0.40076  0.71397  1.0000
  C   C247      1.0  0.22400999999999996  0.03906  0.5272  1.0000
  C   C248      1.0  0.63028  0.8741800000000001  0.14007  1.0000
  C   C249      1.0  0.4744599999999999  0.8605000000000002  0.27639  1.0000
  C   C250      1.0  0.9359900000000001  0.68  0.12878  1.0000
  C   C251      1.0  0.9861299999999998  0.3940900000000001  0.35426999999999986  1.0000
  C   C252      1.0  0.33926  0.08028  0.3255  1.0000
  C   C253      1.0  0.5870600000000001  0.66107  0.8102499999999999  1.0000
  C   C254      1.0  0.41295  0.33893  0.18975  1.0000
  C   C255      1.0  0.24976  0.94297  0.4292499999999999  1.0000
  C   C256      1.0  0.8464199999999998  0.8774  0.04688  1.0000
  C   C257      1.0  0.3177600000000002  0.19192  0.8466899999999998  1.0000
  C   C258      1.0  0.80724  0.94317  0.07083  1.0000
  C   C259      1.0  0.6963500000000001  0.03675  0.94367  1.0000
  C   C260      1.0  0.56523  0.14733000000000002  0.18587  1.0000
  C   C261      1.0  0.8862400000000002  0.81278  0.11527999999999997  1.0000
  C   C262      1.0  0.34932  0.64209  0.6155499999999999  1.0000
  C   C263      1.0  0.24891  0.43405  0.8881  1.0000
  C   C264      1.0  0.98675  0.41622  0.18284999999999996  1.0000
  C   C265      1.0  0.7510800000000001  0.56595  0.11189999999999999  1.0000
  C   C266      1.0  0.3942399999999998  0.9689900000000001  0.49738  1.0000
  C   C267      1.0  0.4871900000000001  0.9994799999999999  0.13013  1.0000
  C   C268      1.0  0.8476300000000001  0.64102  0.74277  1.0000
  C   C269      1.0  0.52132  0.05105  0.4329699999999999  1.0000
  C   C270      1.0  0.9826099999999999  0.3195  0.30757  1.0000
  C   C271      1.0  0.3347999999999999  0.13915  0.77637  1.0000
  C   C272      1.0  0.3701399999999999  0.46716  0.6028  1.0000
  C   C273      1.0  0.61488  0.80938  0.69259  1.0000
  C   C274      1.0  0.28723999999999983  0.14812  0.31387  1.0000
  C   C275      1.0  0.13883999999999988  0.19892  0.41662  1.0000
  C   C276      1.0  0.10703999999999997  0.40266  0.051439999999999986  1.0000
  C   C277      1.0  0.28726  0.74605  0.3292  1.0000
  C   C278      1.0  0.41569999999999996  0.60419  0.63302  1.0000
  C   C279      1.0  0.81025  0.08049  0.07722  1.0000
  C   C280      1.0  0.4747600000000001  0.27228  0.7122  1.0000
  N   N1        1.0  0.46778  0.9992000000000001  0.3420499999999999  1.0000
  N   N2        1.0  0.7754799999999998  0.99241  0.54795  1.0000
  N   N3        1.0  0.36769  0.61848  0.31677  1.0000
  N   N4        1.0  0.6323000000000001  0.38152  0.68323  1.0000
  N   N5        1.0  0.22452000000000005  0.007600000000000001  0.45205  1.0000
  N   N6        1.0  0.012799999999999995  0.61796  0.18305  1.0000
  N   N7        1.0  0.14740000000000003  0.4174800000000001  0.27304  1.0000
  N   N8        1.0  0.5727799999999997  0.59055  0.25661  1.0000
  N   N9        1.0  0.35219000000000006  0.61361  0.81836  1.0000
  N   N10       1.0  0.8357399999999999  0.59005  0.24340999999999993  1.0000
  N   N11       1.0  0.03306000000000003  0.61427  0.68246  1.0000
  N   N12       1.0  0.8525899999999998  0.5825  0.7269599999999998  1.0000
  N   N13       1.0  0.5323999999999998  0.9999000000000001  0.15812  1.0000
  N   N14       1.0  0.76738  0.00778  0.04822  1.0000
  N   N15       1.0  0.2326099999999999  0.99222  0.95178  1.0000
  N   N16       1.0  0.4272200000000002  0.40945  0.7433999999999997  1.0000
  N   N17       1.0  0.64781  0.3863800000000001  0.18163999999999994  1.0000
  N   N18       1.0  0.98719  0.38204  0.81696  1.0000
  N   N19       1.0  0.16425000000000017  0.40994  0.7565899999999998  1.0000
  N   N20       1.0  0.4361399999999999  0.41675  0.22714  1.0000
  N   N21       1.0  0.5322100000000001  0.000789999999999998  0.6579499999999998  1.0000
  N   N22       1.0  0.56387  0.58324  0.7728599999999998  1.0000
  N   N23       1.0  0.46759000000000006  8.999999999999942e-05  0.84188  1.0000
  N   N24       1.0  0.9669299999999998  0.38572  0.31754  1.0000
  O   O1        1.0  0.7337399999999998  0.49259000000000003  0.17857  1.0000
  O   O2        1.0  0.22732000000000008  0.50763  0.6788099999999999  1.0000
  O   O3        1.0  0.3719899999999998  0.44721  0.85051  1.0000
  O   O4        1.0  0.013500000000000057  0.45059  0.19793999999999995  1.0000
  O   O5        1.0  0.26627  0.50739  0.82142  1.0000
  O   O6        1.0  0.9864600000000002  0.5494  0.8020799999999999  1.0000
  O   O7        1.0  0.9293600000000001  0.40065  0.20961999999999995  1.0000
  O   O8        1.0  0.44870000000000004  0.65158  0.48889  1.0000
  O   O9        1.0  0.8971100000000001  0.65209  0.012829999999999996  1.0000
  O   O10       1.0  0.5513  0.34842  0.5111099999999998  1.0000
  O   O11       1.0  0.6280000000000001  0.5528  0.14951  1.0000
  O   O12       1.0  0.10289000000000008  0.3479  0.9871699999999998  1.0000
  O   O13       1.0  0.81816  0.5518  0.3504899999999999  1.0000
  O   O14       1.0  0.18181999999999995  0.44820000000000004  0.6495099999999998  1.0000
  O   O15       1.0  0.5365199999999999  0.45278000000000007  0.3014  1.0000
  O   O16       1.0  0.3280400000000001  0.60212  0.7114599999999999  1.0000
  O   O17       1.0  0.4634700000000001  0.54722  0.6985999999999998  1.0000
  O   O18       1.0  0.7726699999999999  0.49235000000000007  0.32118999999999986  1.0000
  O   O19       1.0  0.6719500000000002  0.39787  0.2885399999999999  1.0000
  O   O20       1.0  0.07065000000000003  0.59929  0.79038  1.0000
