data_image0
_chemical_formula_structural       Ca8H104C204O48F72
_chemical_formula_sum              "Ca8 H104 C204 O48 F72"
_cell_length_a       7.32991
_cell_length_b       24.47475
_cell_length_c       31.75089
_cell_angle_alpha    89.98579000000001
_cell_angle_beta     90.0
_cell_angle_gamma    90.0

_space_group_name_H-M_alt    "P 1"
_space_group_IT_number       1

loop_
  _space_group_symop_operation_xyz
  'x, y, z'

loop_
  _atom_site_type_symbol
  _atom_site_label
  _atom_site_symmetry_multiplicity
  _atom_site_fract_x
  _atom_site_fract_y
  _atom_site_fract_z
  _atom_site_occupancy
  Ca  Ca1       1.0  0.45682  0.23472000000000004  0.7694299999999997  1.0000
  Ca  Ca2       1.0  0.91441  0.7534200000000002  0.7656899999999998  1.0000
  Ca  Ca3       1.0  0.45682  0.76528  0.7305699999999998  1.0000
  Ca  Ca4       1.0  0.91441  0.24658000000000005  0.7343199999999998  1.0000
  Ca  Ca5       1.0  0.54318  0.76528  0.23056999999999994  1.0000
  Ca  Ca6       1.0  0.08559  0.24658000000000005  0.23431999999999994  1.0000
  Ca  Ca7       1.0  0.54318  0.23472000000000004  0.26943  1.0000
  Ca  Ca8       1.0  0.08559  0.7534200000000002  0.26568  1.0000
  H   H1        1.0  0.52202  0.02855  0.69112  1.0000
  H   H2        1.0  0.31081  0.17912  0.6410399999999999  1.0000
  H   H3        1.0  0.10091  0.12864  0.59609  1.0000
  H   H4        1.0  0.30979  0.97692  0.64587  1.0000
  H   H5        1.0  0.02244  0.01954  0.68496  1.0000
  H   H6        1.0  0.94849  0.94508  0.7347599999999997  1.0000
  H   H7        1.0  0.7139900000000001  0.8524900000000002  0.63412  1.0000
  H   H8        1.0  0.8100200000000001  0.92297  0.58262  1.0000
  H   H9        1.0  0.03002  0.6067100000000001  0.7099299999999997  1.0000
  H   H10       1.0  0.55137  0.61197  0.6314099999999998  1.0000
  H   H11       1.0  0.6619900000000002  0.53387  0.5915  1.0000
  H   H12       1.0  0.1412  0.52627  0.6703799999999998  1.0000
  H   H13       1.0  0.85786  0.4338600000000001  0.6739099999999998  1.0000
  H   H14       1.0  0.98622  0.36387000000000014  0.7205099999999998  1.0000
  H   H15       1.0  0.48329  0.36377  0.6483099999999998  1.0000
  H   H16       1.0  0.35007000000000005  0.43032  0.5989099999999998  1.0000
  H   H17       1.0  0.14518  0.35492  0.9183699999999998  1.0000
  H   H18       1.0  0.942  0.33737000000000006  0.97859  1.0000
  H   H19       1.0  0.75381  0.1895  0.9186799999999998  1.0000
  H   H20       1.0  0.97022  0.20519000000000004  0.8603199999999998  1.0000
  H   H21       1.0  0.68288  0.30357  0.07307999999999998  1.0000
  H   H22       1.0  0.90921  0.30299000000000004  0.13028999999999993  1.0000
  H   H23       1.0  0.2575  0.19717000000000004  0.058549999999999984  1.0000
  H   H24       1.0  0.04004  0.20082  0.9990099999999998  1.0000
  H   H25       1.0  0.4233  0.32766000000000006  0.83542  1.0000
  H   H26       1.0  0.42617  0.21149000000000004  0.16209  1.0000
  H   H27       1.0  0.52202  0.9714500000000001  0.80888  1.0000
  H   H28       1.0  0.31081  0.8208900000000002  0.8589599999999997  1.0000
  H   H29       1.0  0.10091  0.8713700000000001  0.90391  1.0000
  H   H30       1.0  0.30979  0.023090000000000003  0.85413  1.0000
  H   H31       1.0  0.02244  0.98046  0.8150399999999999  1.0000
  H   H32       1.0  0.94849  0.05493000000000001  0.7652499999999998  1.0000
  H   H33       1.0  0.7139900000000001  0.14752000000000004  0.86588  1.0000
  H   H34       1.0  0.8100200000000001  0.07704  0.9173799999999998  1.0000
  H   H35       1.0  0.03002  0.3933000000000001  0.7900699999999998  1.0000
  H   H36       1.0  0.55137  0.38804  0.8685899999999998  1.0000
  H   H37       1.0  0.6619900000000002  0.4661300000000001  0.90851  1.0000
  H   H38       1.0  0.1412  0.47373000000000004  0.8296199999999998  1.0000
  H   H39       1.0  0.85786  0.56614  0.8260899999999998  1.0000
  H   H40       1.0  0.98622  0.63613  0.7794899999999998  1.0000
  H   H41       1.0  0.48329  0.63624  0.8516999999999998  1.0000
  H   H42       1.0  0.35007000000000005  0.56969  0.9010899999999997  1.0000
  H   H43       1.0  0.14518  0.6450900000000002  0.58163  1.0000
  H   H44       1.0  0.942  0.66264  0.52141  1.0000
  H   H45       1.0  0.75381  0.81051  0.58133  1.0000
  H   H46       1.0  0.97022  0.7948100000000001  0.6396899999999998  1.0000
  H   H47       1.0  0.68288  0.69644  0.4269199999999999  1.0000
  H   H48       1.0  0.90921  0.6970100000000002  0.36971  1.0000
  H   H49       1.0  0.2575  0.8028300000000002  0.44145  1.0000
  H   H50       1.0  0.04004  0.79918  0.501  1.0000
  H   H51       1.0  0.4233  0.67235  0.66458  1.0000
  H   H52       1.0  0.42617  0.78851  0.33791999999999994  1.0000
  H   H53       1.0  0.47798  0.9714500000000001  0.3088799999999999  1.0000
  H   H54       1.0  0.68919  0.8208900000000002  0.35896  1.0000
  H   H55       1.0  0.89909  0.8713700000000001  0.40391  1.0000
  H   H56       1.0  0.69021  0.023090000000000003  0.35413  1.0000
  H   H57       1.0  0.97756  0.98046  0.31504  1.0000
  H   H58       1.0  0.05151  0.05492  0.26525  1.0000
  H   H59       1.0  0.28601  0.14752000000000004  0.36588  1.0000
  H   H60       1.0  0.18998  0.07704  0.41738  1.0000
  H   H61       1.0  0.96998  0.39329000000000003  0.29007  1.0000
  H   H62       1.0  0.44863  0.38804  0.36858999999999986  1.0000
  H   H63       1.0  0.33801  0.4661300000000001  0.4085  1.0000
  H   H64       1.0  0.8588  0.47373000000000004  0.32962  1.0000
  H   H65       1.0  0.14214000000000002  0.56614  0.32609  1.0000
  H   H66       1.0  0.013780000000000004  0.63613  0.27949  1.0000
  H   H67       1.0  0.51671  0.63624  0.35169  1.0000
  H   H68       1.0  0.64993  0.56968  0.4010899999999999  1.0000
  H   H69       1.0  0.85482  0.6450900000000002  0.08162999999999997  1.0000
  H   H70       1.0  0.058  0.66264  0.02141  1.0000
  H   H71       1.0  0.24619  0.81051  0.08131999999999998  1.0000
  H   H72       1.0  0.02978  0.7948100000000001  0.13968999999999995  1.0000
  H   H73       1.0  0.31712  0.69644  0.92692  1.0000
  H   H74       1.0  0.09079  0.69702  0.86971  1.0000
  H   H75       1.0  0.7425  0.8028300000000002  0.9414499999999998  1.0000
  H   H76       1.0  0.95996  0.79918  0.0009999999999999996  1.0000
  H   H77       1.0  0.5767  0.67235  0.16458  1.0000
  H   H78       1.0  0.57383  0.78851  0.8379199999999998  1.0000
  H   H79       1.0  0.47798  0.02855  0.19111999999999996  1.0000
  H   H80       1.0  0.68919  0.17912  0.14104  1.0000
  H   H81       1.0  0.89909  0.12864  0.09609  1.0000
  H   H82       1.0  0.69021  0.97692  0.14587  1.0000
  H   H83       1.0  0.97756  0.01954  0.18495999999999996  1.0000
  H   H84       1.0  0.05151  0.94508  0.23474999999999993  1.0000
  H   H85       1.0  0.28601  0.8524900000000002  0.13412  1.0000
  H   H86       1.0  0.18998  0.92297  0.08262  1.0000
  H   H87       1.0  0.96998  0.6067100000000001  0.20993  1.0000
  H   H88       1.0  0.44863  0.61196  0.13140999999999994  1.0000
  H   H89       1.0  0.33801  0.53387  0.09149999999999997  1.0000
  H   H90       1.0  0.8588  0.52627  0.17037999999999995  1.0000
  H   H91       1.0  0.14214000000000002  0.4338600000000001  0.17390999999999995  1.0000
  H   H92       1.0  0.013780000000000004  0.36387000000000014  0.22050999999999996  1.0000
  H   H93       1.0  0.51671  0.36377  0.14830999999999994  1.0000
  H   H94       1.0  0.64993  0.43032  0.09890999999999997  1.0000
  H   H95       1.0  0.85482  0.35491  0.4183699999999999  1.0000
  H   H96       1.0  0.058  0.33737000000000006  0.4785899999999999  1.0000
  H   H97       1.0  0.24619  0.18949000000000005  0.41868  1.0000
  H   H98       1.0  0.02978  0.20519000000000004  0.36031999999999986  1.0000
  H   H99       1.0  0.31712  0.30357  0.57308  1.0000
  H   H100      1.0  0.09079  0.30299000000000004  0.63029  1.0000
  H   H101      1.0  0.7425  0.19717000000000004  0.55855  1.0000
  H   H102      1.0  0.95996  0.20082  0.4990099999999999  1.0000
  H   H103      1.0  0.5767  0.32765000000000005  0.3354199999999999  1.0000
  H   H104      1.0  0.57383  0.21149000000000004  0.6620899999999997  1.0000
  C   C1        1.0  0.52822  0.13607000000000002  0.70507  1.0000
  C   C2        1.0  0.42595  0.10739000000000003  0.67072  1.0000
  C   C3        1.0  0.42982  0.05007000000000002  0.67001  1.0000
  C   C4        1.0  0.31128  0.13477  0.6424799999999998  1.0000
  C   C5        1.0  0.1899  0.10579000000000002  0.61692  1.0000
  C   C6        1.0  0.30984  0.02123  0.6444499999999997  1.0000
  C   C7        1.0  0.18071  0.048670000000000005  0.61926  1.0000
  C   C8        1.0  0.03047  0.01437  0.5975499999999998  1.0000
  C   C9        1.0  0.8735  0.05065  0.5795899999999998  1.0000
  C   C10       1.0  0.12692  0.98223  0.56083  1.0000
  C   C11       1.0  0.94179  0.97412  0.62931  1.0000
  C   C12       1.0  0.96243  0.98208  0.6729799999999998  1.0000
  C   C13       1.0  0.91879  0.9407300000000002  0.7013399999999997  1.0000
  C   C14       1.0  0.84121  0.8919300000000002  0.68681  1.0000
  C   C15       1.0  0.7885  0.8883900000000002  0.6445799999999998  1.0000
  C   C16       1.0  0.8419600000000002  0.9284300000000002  0.61574  1.0000
  C   C17       1.0  0.84181  0.84274  0.7143299999999998  1.0000
  C   C18       1.0  0.7270000000000001  0.664  0.6987099999999998  1.0000
  C   C19       1.0  0.7829500000000001  0.61479  0.67399  1.0000
  C   C20       1.0  0.94964  0.5899300000000001  0.68426  1.0000
  C   C21       1.0  0.68022  0.59358  0.64055  1.0000
  C   C22       1.0  0.74382  0.54885  0.61754  1.0000
  C   C23       1.0  0.01232  0.5451  0.66168  1.0000
  C   C24       1.0  0.9104  0.52416  0.62783  1.0000
  C   C25       1.0  0.99431  0.4771200000000001  0.60219  1.0000
  C   C26       1.0  0.84991  0.44341  0.57661  1.0000
  C   C27       1.0  0.12682  0.5041500000000001  0.56989  1.0000
  C   C28       1.0  0.09084  0.43629  0.6318599999999998  1.0000
  C   C29       1.0  0.993  0.41772  0.6672  1.0000
  C   C30       1.0  0.06671  0.3783700000000001  0.6939399999999998  1.0000
  C   C31       1.0  0.34508  0.37879000000000007  0.6531699999999998  1.0000
  C   C32       1.0  0.26854  0.41664000000000007  0.62539  1.0000
  C   C33       1.0  0.24304  0.35808000000000006  0.6868899999999998  1.0000
  C   C34       1.0  0.32131  0.31303  0.7131499999999997  1.0000
  C   C35       1.0  0.21164  0.28618000000000005  0.8524699999999997  1.0000
  C   C36       1.0  0.07119  0.28065  0.8855799999999998  1.0000
  C   C37       1.0  0.05933000000000001  0.31873000000000007  0.9185799999999997  1.0000
  C   C38       1.0  0.94312  0.30896000000000007  0.9523199999999998  1.0000
  C   C39       1.0  0.83784  0.22587000000000004  0.9190399999999997  1.0000
  C   C40       1.0  0.83176  0.2621  0.95313  1.0000
  C   C41       1.0  0.95856  0.23461  0.8857999999999998  1.0000
  C   C42       1.0  0.71674  0.25171  0.9930299999999997  1.0000
  C   C43       1.0  0.61841  0.19492  0.9933699999999998  1.0000
  C   C44       1.0  0.5682  0.2972  0.9949199999999998  1.0000
  C   C45       1.0  0.84577  0.25247  0.03138  1.0000
  C   C46       1.0  0.80843  0.28074  0.06882999999999997  1.0000
  C   C47       1.0  0.93499  0.28028000000000003  0.10153  1.0000
  C   C48       1.0  0.09768000000000002  0.25055  0.09789  1.0000
  C   C49       1.0  0.1334  0.22111000000000006  0.061019999999999984  1.0000
  C   C50       1.0  0.00937  0.22280000000000005  0.027899999999999994  1.0000
  C   C51       1.0  0.21988  0.24800000000000005  0.13489999999999994  1.0000
  C   C52       1.0  0.52822  0.86393  0.79493  1.0000
  C   C53       1.0  0.42595  0.89262  0.82928  1.0000
  C   C54       1.0  0.42982  0.9499400000000001  0.8299899999999998  1.0000
  C   C55       1.0  0.31128  0.8652400000000001  0.8575199999999997  1.0000
  C   C56       1.0  0.1899  0.89421  0.88308  1.0000
  C   C57       1.0  0.30984  0.97877  0.8555499999999998  1.0000
  C   C58       1.0  0.18071  0.95134  0.8807399999999997  1.0000
  C   C59       1.0  0.03047  0.98564  0.9024599999999998  1.0000
  C   C60       1.0  0.8735  0.94936  0.9204099999999997  1.0000
  C   C61       1.0  0.12692  0.01777  0.93917  1.0000
  C   C62       1.0  0.94179  0.025890000000000003  0.8706899999999997  1.0000
  C   C63       1.0  0.96243  0.01792  0.8270199999999998  1.0000
  C   C64       1.0  0.91879  0.05927  0.7986699999999998  1.0000
  C   C65       1.0  0.84121  0.10808000000000002  0.81319  1.0000
  C   C66       1.0  0.7885  0.11162  0.8554199999999997  1.0000
  C   C67       1.0  0.8419600000000002  0.07158  0.88427  1.0000
  C   C68       1.0  0.84181  0.15727000000000002  0.7856699999999998  1.0000
  C   C69       1.0  0.7270000000000001  0.336  0.8012999999999998  1.0000
  C   C70       1.0  0.7829500000000001  0.38521  0.82601  1.0000
  C   C71       1.0  0.94964  0.4100800000000001  0.81574  1.0000
  C   C72       1.0  0.68022  0.40643  0.85945  1.0000
  C   C73       1.0  0.74382  0.45116  0.88247  1.0000
  C   C74       1.0  0.01232  0.45491  0.83833  1.0000
  C   C75       1.0  0.9104  0.47585  0.87217  1.0000
  C   C76       1.0  0.99431  0.5228900000000001  0.89781  1.0000
  C   C77       1.0  0.84991  0.55659  0.92339  1.0000
  C   C78       1.0  0.12682  0.4958600000000001  0.93012  1.0000
  C   C79       1.0  0.09084  0.56372  0.8681399999999998  1.0000
  C   C80       1.0  0.993  0.58228  0.83281  1.0000
  C   C81       1.0  0.06671  0.62163  0.8060599999999998  1.0000
  C   C82       1.0  0.34508  0.62121  0.8468299999999997  1.0000
  C   C83       1.0  0.26854  0.58337  0.8746099999999998  1.0000
  C   C84       1.0  0.24304  0.64193  0.8131099999999998  1.0000
  C   C85       1.0  0.32131  0.68697  0.7868499999999998  1.0000
  C   C86       1.0  0.21164  0.7138200000000001  0.6475299999999998  1.0000
  C   C87       1.0  0.07119  0.7193600000000001  0.6144199999999997  1.0000
  C   C88       1.0  0.05933000000000001  0.6812700000000002  0.5814199999999998  1.0000
  C   C89       1.0  0.94312  0.69105  0.5476899999999998  1.0000
  C   C90       1.0  0.83784  0.77414  0.5809599999999998  1.0000
  C   C91       1.0  0.83176  0.7379100000000001  0.54688  1.0000
  C   C92       1.0  0.95856  0.76539  0.6142  1.0000
  C   C93       1.0  0.71674  0.74829  0.50697  1.0000
  C   C94       1.0  0.61841  0.80508  0.5066299999999998  1.0000
  C   C95       1.0  0.5682  0.7028  0.5050799999999998  1.0000
  C   C96       1.0  0.84577  0.7475300000000002  0.46861999999999987  1.0000
  C   C97       1.0  0.80843  0.7192600000000002  0.4311699999999999  1.0000
  C   C98       1.0  0.93499  0.7197300000000002  0.39847  1.0000
  C   C99       1.0  0.09768000000000002  0.7494500000000001  0.4021099999999999  1.0000
  C   C100      1.0  0.1334  0.77889  0.43897999999999987  1.0000
  C   C101      1.0  0.00937  0.7772  0.4720999999999999  1.0000
  C   C102      1.0  0.21988  0.752  0.3651  1.0000
  C   C103      1.0  0.47178  0.86393  0.2949299999999999  1.0000
  C   C104      1.0  0.57405  0.89261  0.3292799999999999  1.0000
  C   C105      1.0  0.57018  0.9499300000000002  0.32999  1.0000
  C   C106      1.0  0.68872  0.8652400000000001  0.35752  1.0000
  C   C107      1.0  0.8101  0.89421  0.38307999999999987  1.0000
  C   C108      1.0  0.69016  0.97877  0.3555499999999999  1.0000
  C   C109      1.0  0.81929  0.95134  0.38074  1.0000
  C   C110      1.0  0.96954  0.98563  0.40246  1.0000
  C   C111      1.0  0.1265  0.94936  0.4204099999999999  1.0000
  C   C112      1.0  0.87308  0.01777  0.43917  1.0000
  C   C113      1.0  0.05821000000000001  0.025890000000000003  0.37069  1.0000
  C   C114      1.0  0.03757  0.01792  0.32702  1.0000
  C   C115      1.0  0.08121  0.05927  0.29866  1.0000
  C   C116      1.0  0.15879  0.10808000000000002  0.3131899999999999  1.0000
  C   C117      1.0  0.2115  0.11162  0.3554199999999999  1.0000
  C   C118      1.0  0.15804  0.07158  0.38426  1.0000
  C   C119      1.0  0.15819  0.15727000000000002  0.28566999999999987  1.0000
  C   C120      1.0  0.27301000000000003  0.336  0.3012899999999999  1.0000
  C   C121      1.0  0.21705  0.38521  0.32601  1.0000
  C   C122      1.0  0.05036  0.4100800000000001  0.31574  1.0000
  C   C123      1.0  0.31978  0.40643  0.35945  1.0000
  C   C124      1.0  0.25618  0.45115  0.38246999999999987  1.0000
  C   C125      1.0  0.98768  0.4549  0.3383299999999999  1.0000
  C   C126      1.0  0.0896  0.4758400000000001  0.37217  1.0000
  C   C127      1.0  0.00569  0.5228900000000001  0.3978099999999999  1.0000
  C   C128      1.0  0.15009  0.55659  0.4233899999999999  1.0000
  C   C129      1.0  0.87318  0.49585  0.43011  1.0000
  C   C130      1.0  0.90916  0.5637100000000002  0.3681399999999999  1.0000
  C   C131      1.0  0.007  0.58228  0.3327999999999999  1.0000
  C   C132      1.0  0.9332900000000002  0.62163  0.3060599999999999  1.0000
  C   C133      1.0  0.65492  0.62121  0.3468299999999999  1.0000
  C   C134      1.0  0.73146  0.58336  0.37461  1.0000
  C   C135      1.0  0.75696  0.64193  0.3131099999999999  1.0000
  C   C136      1.0  0.67869  0.68697  0.28685  1.0000
  C   C137      1.0  0.7883600000000001  0.7138200000000001  0.14753  1.0000
  C   C138      1.0  0.92882  0.7193500000000002  0.11441999999999997  1.0000
  C   C139      1.0  0.94067  0.6812700000000002  0.08141999999999998  1.0000
  C   C140      1.0  0.05689  0.69104  0.04769  1.0000
  C   C141      1.0  0.16216000000000003  0.77413  0.08095999999999998  1.0000
  C   C142      1.0  0.16824  0.7379100000000001  0.046879999999999984  1.0000
  C   C143      1.0  0.04144000000000001  0.76539  0.1142  1.0000
  C   C144      1.0  0.28326  0.74829  0.006969999999999998  1.0000
  C   C145      1.0  0.38159000000000004  0.80508  0.006629999999999998  1.0000
  C   C146      1.0  0.4318  0.7028  0.005079999999999999  1.0000
  C   C147      1.0  0.15423  0.7475300000000002  0.96862  1.0000
  C   C148      1.0  0.19157  0.7192600000000002  0.9311699999999998  1.0000
  C   C149      1.0  0.06501  0.7197300000000002  0.8984799999999997  1.0000
  C   C150      1.0  0.90232  0.7494500000000001  0.90211  1.0000
  C   C151      1.0  0.8666000000000001  0.7789  0.9389799999999998  1.0000
  C   C152      1.0  0.99064  0.7772  0.9720999999999997  1.0000
  C   C153      1.0  0.78012  0.75201  0.8650999999999998  1.0000
  C   C154      1.0  0.47178  0.13607000000000002  0.20506999999999995  1.0000
  C   C155      1.0  0.57405  0.10739000000000003  0.17072  1.0000
  C   C156      1.0  0.57018  0.05007000000000002  0.17000999999999994  1.0000
  C   C157      1.0  0.68872  0.13476  0.14247999999999994  1.0000
  C   C158      1.0  0.8101  0.10579000000000002  0.11692  1.0000
  C   C159      1.0  0.69016  0.02123  0.14445  1.0000
  C   C160      1.0  0.81929  0.04866  0.11926  1.0000
  C   C161      1.0  0.96954  0.01437  0.09754999999999997  1.0000
  C   C162      1.0  0.1265  0.05065  0.07959  1.0000
  C   C163      1.0  0.87308  0.98223  0.06082999999999999  1.0000
  C   C164      1.0  0.05821000000000001  0.97412  0.12931  1.0000
  C   C165      1.0  0.03757  0.98208  0.17298  1.0000
  C   C166      1.0  0.08121  0.9407300000000002  0.20134  1.0000
  C   C167      1.0  0.15879  0.8919300000000002  0.18681  1.0000
  C   C168      1.0  0.2115  0.8883900000000002  0.14458  1.0000
  C   C169      1.0  0.15804  0.9284200000000001  0.11573999999999997  1.0000
  C   C170      1.0  0.15819  0.84273  0.21433  1.0000
  C   C171      1.0  0.27301000000000003  0.664  0.19870999999999994  1.0000
  C   C172      1.0  0.21705  0.61479  0.17398999999999995  1.0000
  C   C173      1.0  0.05036  0.5899300000000001  0.18425999999999995  1.0000
  C   C174      1.0  0.31978  0.59357  0.14055  1.0000
  C   C175      1.0  0.25618  0.54885  0.11753  1.0000
  C   C176      1.0  0.98768  0.5451  0.16167  1.0000
  C   C177      1.0  0.0896  0.52416  0.12783  1.0000
  C   C178      1.0  0.00569  0.47711000000000003  0.10218999999999998  1.0000
  C   C179      1.0  0.15009  0.44341  0.07660999999999997  1.0000
  C   C180      1.0  0.87318  0.5041500000000001  0.06989  1.0000
  C   C181      1.0  0.90916  0.43629  0.13186  1.0000
  C   C182      1.0  0.007  0.41772  0.16719999999999993  1.0000
  C   C183      1.0  0.9332900000000002  0.3783700000000001  0.19394  1.0000
  C   C184      1.0  0.65492  0.37879000000000007  0.15316999999999995  1.0000
  C   C185      1.0  0.73146  0.41664000000000007  0.12539  1.0000
  C   C186      1.0  0.75696  0.35808000000000006  0.18689  1.0000
  C   C187      1.0  0.67869  0.31303  0.21314999999999995  1.0000
  C   C188      1.0  0.7883600000000001  0.28618000000000005  0.35247  1.0000
  C   C189      1.0  0.92882  0.28065  0.38558  1.0000
  C   C190      1.0  0.94067  0.31873000000000007  0.4185799999999999  1.0000
  C   C191      1.0  0.05689  0.30896000000000007  0.4523199999999999  1.0000
  C   C192      1.0  0.16216000000000003  0.22587000000000004  0.4190399999999999  1.0000
  C   C193      1.0  0.16824  0.26209000000000005  0.45312999999999987  1.0000
  C   C194      1.0  0.04144000000000001  0.23461  0.3858  1.0000
  C   C195      1.0  0.28326  0.25171  0.4930299999999999  1.0000
  C   C196      1.0  0.38159000000000004  0.19492  0.4933699999999999  1.0000
  C   C197      1.0  0.4318  0.2972  0.4949199999999999  1.0000
  C   C198      1.0  0.15423  0.25247  0.53138  1.0000
  C   C199      1.0  0.19157  0.28074  0.56883  1.0000
  C   C200      1.0  0.06501  0.28028000000000003  0.6015299999999998  1.0000
  C   C201      1.0  0.90232  0.25056  0.59789  1.0000
  C   C202      1.0  0.8666000000000001  0.22111000000000006  0.5610199999999997  1.0000
  C   C203      1.0  0.99063  0.22280000000000005  0.5279  1.0000
  C   C204      1.0  0.78012  0.24800000000000005  0.6349  1.0000
  O   O1        1.0  0.53755  0.19059  0.7031799999999998  1.0000
  O   O2        1.0  0.58862  0.1095  0.7352199999999998  1.0000
  O   O3        1.0  0.97097  0.8390900000000002  0.7411599999999998  1.0000
  O   O4        1.0  0.7279700000000002  0.80313  0.7080999999999997  1.0000
  O   O5        1.0  0.83755  0.6815200000000002  0.72612  1.0000
  O   O6        1.0  0.57306  0.68758  0.6916599999999998  1.0000
  O   O7        1.0  0.4907800000000001  0.30962  0.71858  1.0000
  O   O8        1.0  0.20912  0.27751  0.7295399999999997  1.0000
  O   O9        1.0  0.23704  0.25059  0.8247299999999997  1.0000
  O   O10       1.0  0.31071  0.3310500000000001  0.8557299999999998  1.0000
  O   O11       1.0  0.1697  0.26913  0.16903999999999994  1.0000
  O   O12       1.0  0.37485  0.22201  0.13097  1.0000
  O   O13       1.0  0.53755  0.80941  0.7968299999999998  1.0000
  O   O14       1.0  0.58862  0.8905  0.7647799999999998  1.0000
  O   O15       1.0  0.97097  0.16092  0.7588399999999997  1.0000
  O   O16       1.0  0.7279700000000002  0.19688  0.7919099999999998  1.0000
  O   O17       1.0  0.83755  0.31849  0.77388  1.0000
  O   O18       1.0  0.57306  0.31243  0.8083399999999997  1.0000
  O   O19       1.0  0.4907800000000001  0.69039  0.78142  1.0000
  O   O20       1.0  0.20912  0.72249  0.7704599999999998  1.0000
  O   O21       1.0  0.23704  0.74942  0.6752699999999998  1.0000
  O   O22       1.0  0.31071  0.6689600000000001  0.6442699999999998  1.0000
  O   O23       1.0  0.1697  0.73087  0.33095999999999987  1.0000
  O   O24       1.0  0.37485  0.7779900000000002  0.36903  1.0000
  O   O25       1.0  0.46245000000000014  0.80941  0.29683  1.0000
  O   O26       1.0  0.41138  0.8905  0.26478  1.0000
  O   O27       1.0  0.02903  0.16092  0.2588399999999999  1.0000
  O   O28       1.0  0.27203  0.19688  0.29191  1.0000
  O   O29       1.0  0.16245  0.31848000000000004  0.27388  1.0000
  O   O30       1.0  0.42694000000000004  0.31243  0.3083399999999999  1.0000
  O   O31       1.0  0.50922  0.69039  0.28142  1.0000
  O   O32       1.0  0.79088  0.72249  0.27046  1.0000
  O   O33       1.0  0.76296  0.74941  0.17527  1.0000
  O   O34       1.0  0.68929  0.6689600000000001  0.14427  1.0000
  O   O35       1.0  0.8303  0.73087  0.83096  1.0000
  O   O36       1.0  0.62515  0.7780000000000002  0.8690399999999998  1.0000
  O   O37       1.0  0.46245000000000014  0.19059  0.20318  1.0000
  O   O38       1.0  0.41138  0.1095  0.23522  1.0000
  O   O39       1.0  0.02903  0.8390800000000002  0.24116  1.0000
  O   O40       1.0  0.27203  0.80313  0.20809999999999995  1.0000
  O   O41       1.0  0.16245  0.6815200000000002  0.22611999999999993  1.0000
  O   O42       1.0  0.42694000000000004  0.68757  0.19165999999999994  1.0000
  O   O43       1.0  0.50922  0.30961  0.21858  1.0000
  O   O44       1.0  0.79088  0.27751  0.22954  1.0000
  O   O45       1.0  0.76296  0.25059  0.32473  1.0000
  O   O46       1.0  0.68929  0.33104000000000006  0.3557299999999999  1.0000
  O   O47       1.0  0.8303  0.26913  0.66904  1.0000
  O   O48       1.0  0.62515  0.22201  0.6309699999999998  1.0000
  F   F1        1.0  0.73404  0.02048000000000001  0.5641299999999998  1.0000
  F   F2        1.0  0.80068  0.08230000000000003  0.61061  1.0000
  F   F3        1.0  0.92778  0.08466  0.5478499999999997  1.0000
  F   F4        1.0  0.00901  0.95771  0.5334599999999998  1.0000
  F   F5        1.0  0.23611  0.01571  0.53771  1.0000
  F   F6        1.0  0.2361  0.94193  0.5769699999999998  1.0000
  F   F7        1.0  0.19183  0.46787  0.5412499999999998  1.0000
  F   F8        1.0  0.04504  0.54505  0.5479  1.0000
  F   F9        1.0  0.27364000000000005  0.52674  0.5897099999999997  1.0000
  F   F10       1.0  0.77346  0.47101  0.5437199999999998  1.0000
  F   F11       1.0  0.92591  0.3971100000000001  0.5605  1.0000
  F   F12       1.0  0.7087900000000003  0.42825  0.6021599999999998  1.0000
  F   F13       1.0  0.64445  0.34676  0.00404  1.0000
  F   F14       1.0  0.43726  0.28829  0.024789999999999993  1.0000
  F   F15       1.0  0.4816500000000001  0.30179  0.95711  1.0000
  F   F16       1.0  0.48138  0.19062  0.9645299999999998  1.0000
  F   F17       1.0  0.54519  0.18494000000000005  0.03182  1.0000
  F   F18       1.0  0.73687  0.15338  0.9853599999999999  1.0000
  F   F19       1.0  0.73404  0.97953  0.9358699999999998  1.0000
  F   F20       1.0  0.80068  0.91771  0.88939  1.0000
  F   F21       1.0  0.92778  0.91535  0.9521499999999998  1.0000
  F   F22       1.0  0.00901  0.04229  0.9665399999999997  1.0000
  F   F23       1.0  0.23611  0.9843  0.9622899999999998  1.0000
  F   F24       1.0  0.2361  0.05808000000000001  0.9230399999999997  1.0000
  F   F25       1.0  0.19183  0.53213  0.9587599999999997  1.0000
  F   F26       1.0  0.04504  0.45495000000000013  0.9521099999999998  1.0000
  F   F27       1.0  0.27364000000000005  0.47327000000000014  0.9102899999999998  1.0000
  F   F28       1.0  0.77346  0.529  0.9562899999999998  1.0000
  F   F29       1.0  0.92591  0.6029  0.9395  1.0000
  F   F30       1.0  0.7087900000000003  0.5717500000000001  0.8978499999999998  1.0000
  F   F31       1.0  0.64445  0.65324  0.49597  1.0000
  F   F32       1.0  0.43726  0.7117200000000001  0.4752099999999999  1.0000
  F   F33       1.0  0.4816500000000001  0.6982200000000002  0.54289  1.0000
  F   F34       1.0  0.48138  0.80938  0.53548  1.0000
  F   F35       1.0  0.54519  0.81507  0.4681899999999999  1.0000
  F   F36       1.0  0.73687  0.84662  0.51464  1.0000
  F   F37       1.0  0.26596  0.97953  0.43587  1.0000
  F   F38       1.0  0.19932  0.91771  0.3893899999999999  1.0000
  F   F39       1.0  0.07222  0.91534  0.4521499999999999  1.0000
  F   F40       1.0  0.99099  0.04229  0.46654  1.0000
  F   F41       1.0  0.76389  0.98429  0.46228999999999987  1.0000
  F   F42       1.0  0.7639  0.05808000000000001  0.4230399999999999  1.0000
  F   F43       1.0  0.80817  0.53213  0.4587599999999999  1.0000
  F   F44       1.0  0.95496  0.45495000000000013  0.45211  1.0000
  F   F45       1.0  0.72636  0.47327000000000014  0.4102899999999999  1.0000
  F   F46       1.0  0.22654  0.529  0.45628999999999986  1.0000
  F   F47       1.0  0.07409  0.60289  0.4394999999999999  1.0000
  F   F48       1.0  0.29121  0.5717500000000001  0.39785  1.0000
  F   F49       1.0  0.35555  0.65324  0.9959699999999998  1.0000
  F   F50       1.0  0.56274  0.7117200000000001  0.97521  1.0000
  F   F51       1.0  0.51835  0.6982200000000002  0.04289  1.0000
  F   F52       1.0  0.51862  0.80938  0.03548  1.0000
  F   F53       1.0  0.4548100000000001  0.81507  0.9681899999999999  1.0000
  F   F54       1.0  0.26313  0.84662  0.014639999999999997  1.0000
  F   F55       1.0  0.26596  0.02048  0.06412999999999998  1.0000
  F   F56       1.0  0.19932  0.08230000000000003  0.11060999999999997  1.0000
  F   F57       1.0  0.07222  0.08466  0.04784999999999998  1.0000
  F   F58       1.0  0.99099  0.95771  0.03346  1.0000
  F   F59       1.0  0.76389  0.01571  0.03770999999999999  1.0000
  F   F60       1.0  0.7639  0.9419200000000001  0.07696  1.0000
  F   F61       1.0  0.80817  0.46787  0.04124  1.0000
  F   F62       1.0  0.95496  0.54505  0.0479  1.0000
  F   F63       1.0  0.72636  0.52674  0.08971  1.0000
  F   F64       1.0  0.22654  0.47101  0.04372  1.0000
  F   F65       1.0  0.07409  0.3971100000000001  0.0605  1.0000
  F   F66       1.0  0.29121  0.42825  0.10216  1.0000
  F   F67       1.0  0.35555  0.34676  0.50404  1.0000
  F   F68       1.0  0.56274  0.28829  0.52479  1.0000
  F   F69       1.0  0.51835  0.30178  0.45711  1.0000
  F   F70       1.0  0.51862  0.19062  0.46453  1.0000
  F   F71       1.0  0.4548100000000001  0.18494000000000005  0.53182  1.0000
  F   F72       1.0  0.26313  0.15338  0.4853599999999999  1.0000
