data_image0
_chemical_formula_structural       La16H144C288O96
_chemical_formula_sum              "La16 H144 C288 O96"
_cell_length_a       15.33879
_cell_length_b       23.106160000000003
_cell_length_c       23.103679999999997
_cell_angle_alpha    83.66858
_cell_angle_beta     70.58167
_cell_angle_gamma    70.578

_symmetry_space_group_name_H-M    'P 1'
_symmetry_Int_Tables_number       1

loop_
  _symmetry_equiv_pos_as_xyz
  'x,y,z'

loop_
  _atom_site_type_symbol
  _atom_site_label
  _atom_site_symmetry_multiplicity
  _atom_site_fract_x
  _atom_site_fract_y
  _atom_site_fract_z
  _atom_site_occupancy
  La  La1       1.0  0.15190000000000003  0.24219000000000002  0.69913  1.0000
  La  La2       1.0  0.3448699999999998  0.2866  0.76333  1.0000
  La  La3       1.0  0.09310999999999994  0.7578900000000002  0.30119  1.0000
  La  La4       1.0  0.3952000000000001  0.71332  0.23674  1.0000
  La  La5       1.0  0.14481999999999998  0.19868000000000002  0.25791  1.0000
  La  La6       1.0  0.38166  0.26335000000000003  0.21329  1.0000
  La  La7       1.0  0.6012099999999996  0.8011  0.74207  1.0000
  La  La8       1.0  0.8584799999999998  0.73694  0.7864800000000001  1.0000
  La  La9       1.0  0.6530399999999998  0.6988  0.2419  1.0000
  La  La10      1.0  0.8449899999999997  0.7635300000000002  0.2864  1.0000
  La  La11      1.0  0.59349  0.30099  0.75782  1.0000
  La  La12      1.0  0.89495  0.23644000000000004  0.71318  1.0000
  La  La13      1.0  0.64431  0.2578500000000001  0.19918000000000002  1.0000
  La  La14      1.0  0.8811699999999999  0.21334000000000006  0.26396  1.0000
  La  La15      1.0  0.10110000000000008  0.74208  0.80105  1.0000
  La  La16      1.0  0.35789999999999994  0.78673  0.7369000000000001  1.0000
  H   H1        1.0  0.3665199999999999  0.29534000000000005  0.51924  1.0000
  H   H2        1.0  0.46881  0.29832000000000003  0.40995000000000004  1.0000
  H   H3        1.0  0.4832199999999998  0.11840000000000002  0.31832  1.0000
  H   H4        1.0  0.42130999999999996  0.030590000000000006  0.35539  1.0000
  H   H5        1.0  0.32472  0.024960000000000003  0.46522  1.0000
  H   H6        1.0  0.29159000000000007  0.10667000000000003  0.53817  1.0000
  H   H7        1.0  0.26641999999999993  0.49897000000000014  0.8256199999999999  1.0000
  H   H8        1.0  0.26383999999999985  0.60718  0.81673  1.0000
  H   H9        1.0  0.5076700000000001  0.61802  0.62368  1.0000
  H   H10       1.0  0.6275199999999994  0.54265  0.54529  1.0000
  H   H11       1.0  0.6272  0.43346000000000007  0.55368  1.0000
  H   H12       1.0  0.5135  0.40066  0.64234  1.0000
  H   H13       1.0  0.00038999999999996275  0.4499600000000001  0.80134  1.0000
  H   H14       1.0  0.9814799999999999  0.5594100000000001  0.8167  1.0000
  H   H15       1.0  0.23181000000000002  0.60601  0.64485  1.0000
  H   H16       1.0  0.36069  0.54649  0.55701  1.0000
  H   H17       1.0  0.37952  0.4367800000000001  0.5432  1.0000
  H   H18       1.0  0.2704  0.38683  0.61885  1.0000
  H   H19       1.0  0.18121999999999988  0.7045600000000001  0.48106  1.0000
  H   H20       1.0  0.17764000000000013  0.70191  0.5903  1.0000
  H   H21       1.0  0.9208699999999999  0.8820900000000002  0.68163  1.0000
  H   H22       1.0  0.8076299999999996  0.96972  0.6447  1.0000
  H   H23       1.0  0.8145499999999997  0.9750300000000001  0.53502  1.0000
  H   H24       1.0  0.93599  0.8932600000000002  0.46210000000000007  1.0000
  H   H25       1.0  0.59103  0.5009  0.17453  1.0000
  H   H26       1.0  0.68726  0.3926  0.18354  1.0000
  H   H27       1.0  0.7489699999999997  0.38151000000000007  0.37637000000000004  1.0000
  H   H28       1.0  0.7160199999999998  0.4567  0.45455000000000007  1.0000
  H   H29       1.0  0.61569  0.5661200000000001  0.44606  1.0000
  H   H30       1.0  0.5575  0.5991500000000001  0.35759  1.0000
  H   H31       1.0  0.25132999999999994  0.55034  0.19874999999999998  1.0000
  H   H32       1.0  0.3574199999999999  0.44089000000000006  0.18324  1.0000
  H   H33       1.0  0.48193  0.39391  0.35527  1.0000
  H   H34       1.0  0.46364999999999995  0.4533500000000001  0.44301  1.0000
  H   H35       1.0  0.3597699999999999  0.56327  0.45658  1.0000
  H   H36       1.0  0.2763399999999999  0.61336  0.38099  1.0000
  H   H37       1.0  0.41263  0.01844  0.20426  1.0000
  H   H38       1.0  0.51798  0.9091800000000001  0.20153  1.0000
  H   H39       1.0  0.35200999999999993  0.8180800000000001  0.38189  1.0000
  H   H40       1.0  0.20179  0.8554100000000002  0.46948  1.0000
  H   H41       1.0  0.0995899999999997  0.9652400000000002  0.47481000000000007  1.0000
  H   H42       1.0  0.14868999999999988  0.03792000000000001  0.39293  1.0000
  H   H43       1.0  0.51569  0.32553  0.0007400000000000001  1.0000
  H   H44       1.0  0.62124  0.31649000000000005  0.8925  1.0000
  H   H45       1.0  0.8759000000000003  0.12357000000000001  0.88141  1.0000
  H   H46       1.0  0.9209300000000001  0.04535  0.95662  1.0000
  H   H47       1.0  0.81197  0.05385  0.06601  1.0000
  H   H48       1.0  0.66522  0.14236  0.09909000000000001  1.0000
  H   H49       1.0  0.20054999999999995  0.30132000000000003  0.0504  1.0000
  H   H50       1.0  0.2907799999999999  0.31678  0.9408500000000001  1.0000
  H   H51       1.0  0.5875600000000001  0.14492  0.8935699999999999  1.0000
  H   H52       1.0  0.6574299999999998  0.057040000000000014  0.95277  1.0000
  H   H53       1.0  0.5671899999999997  0.04331000000000001  0.0627  1.0000
  H   H54       1.0  0.40818999999999983  0.11889000000000001  0.11308  1.0000
  H   H55       1.0  0.6360800000000001  0.9808  0.79533  1.0000
  H   H56       1.0  0.6297600000000001  0.08996000000000001  0.79819  1.0000
  H   H57       1.0  0.5525599999999998  0.18172000000000005  0.61833  1.0000
  H   H58       1.0  0.52718  0.14489000000000002  0.53061  1.0000
  H   H59       1.0  0.53984  0.03523  0.52501  1.0000
  H   H60       1.0  0.57942  0.96223  0.60666  1.0000
  H   H61       1.0  0.8415399999999996  0.67488  0.99885  1.0000
  H   H62       1.0  0.8307200000000001  0.68351  0.10699  1.0000
  H   H63       1.0  0.8813799999999999  0.87641  0.11805000000000002  1.0000
  H   H64       1.0  0.92281  0.9547900000000001  0.04286  1.0000
  H   H65       1.0  0.9308699999999999  0.9464900000000002  0.93367  1.0000
  H   H66       1.0  0.9057099999999998  0.8579700000000002  0.90073  1.0000
  H   H67       1.0  0.55109  0.6987700000000001  0.95006  1.0000
  H   H68       1.0  0.5477999999999998  0.6834200000000001  0.05947000000000001  1.0000
  H   H69       1.0  0.6263799999999999  0.8553300000000001  0.10583  1.0000
  H   H70       1.0  0.6675399999999999  0.94296  0.046099999999999995  1.0000
  H   H71       1.0  0.67231  0.9566200000000002  0.93643  1.0000
  H   H72       1.0  0.6385100000000001  0.88101  0.88676  1.0000
  H   H73       1.0  0.8670699999999998  0.51855  0.29559  1.0000
  H   H74       1.0  0.9695599999999999  0.40923  0.29833  1.0000
  H   H75       1.0  0.98357  0.31799  0.1182  1.0000
  H   H76       1.0  0.9211999999999997  0.35527  0.03057  1.0000
  H   H77       1.0  0.8246799999999995  0.46513  0.025160000000000002  1.0000
  H   H78       1.0  0.79187  0.5378700000000001  0.10695  1.0000
  H   H79       1.0  0.7659999999999998  0.8256000000000001  0.49906  1.0000
  H   H80       1.0  0.76398  0.8167400000000002  0.60718  1.0000
  H   H81       1.0  0.007559999999999999  0.6238100000000001  0.61798  1.0000
  H   H82       1.0  0.12734999999999988  0.5453400000000002  0.54269  1.0000
  H   H83       1.0  0.12721  0.55375  0.43347  1.0000
  H   H84       1.0  0.013429999999999987  0.64232  0.4006100000000001  1.0000
  H   H85       1.0  0.50097  0.8011700000000002  0.44966  1.0000
  H   H86       1.0  0.4815199999999999  0.8166  0.55923  1.0000
  H   H87       1.0  0.7318  0.64482  0.60613  1.0000
  H   H88       1.0  0.8607099999999998  0.5569400000000001  0.54669  1.0000
  H   H89       1.0  0.8796899999999997  0.5430700000000002  0.43694  1.0000
  H   H90       1.0  0.7708099999999999  0.6187300000000001  0.38685  1.0000
  H   H91       1.0  0.6812200000000002  0.48112  0.70438  1.0000
  H   H92       1.0  0.6774899999999995  0.5903100000000001  0.70183  1.0000
  H   H93       1.0  0.4206699999999999  0.68146  0.88211  1.0000
  H   H94       1.0  0.30758999999999986  0.64436  0.9697100000000001  1.0000
  H   H95       1.0  0.31477999999999984  0.53465  0.97494  1.0000
  H   H96       1.0  0.43634999999999996  0.46185  0.89306  1.0000
  H   H97       1.0  0.09087  0.17462  0.50069  1.0000
  H   H98       1.0  0.18751999999999994  0.18356  0.39251  1.0000
  H   H99       1.0  0.2490999999999998  0.3763300000000001  0.38145  1.0000
  H   H100      1.0  0.21612999999999974  0.45451000000000014  0.45667  1.0000
  H   H101      1.0  0.11574  0.4460600000000001  0.56605  1.0000
  H   H102      1.0  0.057349999999999964  0.35767000000000004  0.5991  1.0000
  H   H103      1.0  0.75169  0.19862  0.54983  1.0000
  H   H104      1.0  0.8580099999999996  0.18328000000000003  0.44041  1.0000
  H   H105      1.0  0.98204  0.35538  0.39383000000000007  1.0000
  H   H106      1.0  0.9635799999999997  0.44313000000000013  0.45335000000000003  1.0000
  H   H107      1.0  0.8596699999999999  0.45655  0.56328  1.0000
  H   H108      1.0  0.7763499999999999  0.3808900000000001  0.61329  1.0000
  H   H109      1.0  0.9120099999999998  0.20452000000000004  0.01898  1.0000
  H   H110      1.0  0.017090000000000025  0.20169  0.9096399999999999  1.0000
  H   H111      1.0  0.85165  0.38189  0.81843  1.0000
  H   H112      1.0  0.7016100000000002  0.46968  0.8556299999999999  1.0000
  H   H113      1.0  0.5991300000000002  0.4751  0.96541  1.0000
  H   H114      1.0  0.64791  0.39332  0.03824  1.0000
  H   H115      1.0  0.015050000000000004  0.00114  0.3255  1.0000
  H   H116      1.0  0.12058999999999988  0.8928400000000002  0.31681  1.0000
  H   H117      1.0  0.37554999999999994  0.88144  0.12379000000000001  1.0000
  H   H118      1.0  0.42062999999999984  0.9566200000000002  0.04552  1.0000
  H   H119      1.0  0.31182  0.06605  0.05403  1.0000
  H   H120      1.0  0.16492999999999997  0.09913  0.14246  1.0000
  H   H121      1.0  0.70039  0.05025  0.3015  1.0000
  H   H122      1.0  0.79095  0.9407800000000001  0.31688  1.0000
  H   H123      1.0  0.08757999999999998  0.89381  0.14489  1.0000
  H   H124      1.0  0.15717999999999993  0.95312  0.057  1.0000
  H   H125      1.0  0.06684999999999999  0.06302000000000002  0.04344  1.0000
  H   H126      1.0  0.9077899999999998  0.11330000000000001  0.11909  1.0000
  H   H127      1.0  0.13620999999999991  0.7953400000000002  0.98086  1.0000
  H   H128      1.0  0.12996  0.79814  0.09  1.0000
  H   H129      1.0  0.05279000000000001  0.61825  0.18169  1.0000
  H   H130      1.0  0.02705999999999993  0.5307000000000001  0.14483  1.0000
  H   H131      1.0  0.03973999999999997  0.52514  0.03515  1.0000
  H   H132      1.0  0.07967  0.60675  0.9621400000000001  1.0000
  H   H133      1.0  0.3416699999999999  0.99895  0.67473  1.0000
  H   H134      1.0  0.33019999999999994  0.10714  0.68354  1.0000
  H   H135      1.0  0.38112999999999997  0.11813000000000003  0.8763800000000002  1.0000
  H   H136      1.0  0.4226899999999999  0.04297000000000001  0.9547500000000001  1.0000
  H   H137      1.0  0.43086  0.9337900000000001  0.9464800000000001  1.0000
  H   H138      1.0  0.4057799999999999  0.90078  0.85796  1.0000
  H   H139      1.0  0.051269999999999975  0.9499600000000002  0.69876  1.0000
  H   H140      1.0  0.04769999999999996  0.05939  0.68348  1.0000
  H   H141      1.0  0.12626999999999988  0.10579000000000001  0.8553400000000001  1.0000
  H   H142      1.0  0.16747000000000004  0.04613  0.943  1.0000
  H   H143      1.0  0.17242999999999986  0.9364500000000001  0.95668  1.0000
  H   H144      1.0  0.13881999999999986  0.88665  0.88107  1.0000
  C   C1        1.0  0.2899399999999999  0.21398000000000006  0.57799  1.0000
  C   C2        1.0  0.3476699999999999  0.20976  0.51105  1.0000
  C   C3        1.0  0.38376  0.25831  0.4880300000000001  1.0000
  C   C4        1.0  0.4401399999999999  0.26030000000000003  0.42658  1.0000
  C   C5        1.0  0.4587399999999999  0.21431  0.38621  1.0000
  C   C6        1.0  0.52086  0.22023  0.32194  1.0000
  C   C7        1.0  0.42205000000000004  0.16386  0.40682  1.0000
  C   C8        1.0  0.44117999999999996  0.11583  0.36629  1.0000
  C   C9        1.0  0.40675000000000006  0.06677  0.38699  1.0000
  C   C10       1.0  0.3522  0.06362  0.44936  1.0000
  C   C11       1.0  0.33337  0.10897000000000001  0.49026  1.0000
  C   C12       1.0  0.3667000000000001  0.16067  0.47077  1.0000
  C   C13       1.0  0.37100999999999984  0.40818000000000004  0.75122  1.0000
  C   C14       1.0  0.37827999999999984  0.47144000000000014  0.7398799999999999  1.0000
  C   C15       1.0  0.31502  0.51399  0.7854  1.0000
  C   C16       1.0  0.31305999999999995  0.57516  0.77991  1.0000
  C   C17       1.0  0.3722900000000001  0.596  0.728  1.0000
  C   C18       1.0  0.3558899999999998  0.6631800000000001  0.72475  1.0000
  C   C19       1.0  0.44177  0.5533500000000001  0.68059  1.0000
  C   C20       1.0  0.5087999999999999  0.57064  0.62808  1.0000
  C   C21       1.0  0.5752800000000001  0.5282200000000001  0.5839  1.0000
  C   C22       1.0  0.5759599999999999  0.4667  0.58899  1.0000
  C   C23       1.0  0.5119300000000001  0.44809  0.639  1.0000
  C   C24       1.0  0.44476  0.48967  0.68676  1.0000
  C   C25       1.0  0.13496  0.37378000000000006  0.71378  1.0000
  C   C26       1.0  0.12401999999999996  0.4395000000000001  0.72015  1.0000
  C   C27       1.0  0.049099999999999915  0.4723100000000001  0.76895  1.0000
  C   C28       1.0  0.037959999999999904  0.53393  0.7772600000000001  1.0000
  C   C29       1.0  0.09954999999999983  0.5634100000000001  0.7367400000000001  1.0000
  C   C30       1.0  0.08495999999999991  0.62721  0.75253  1.0000
  C   C31       1.0  0.17584  0.5312500000000001  0.68429  1.0000
  C   C32       1.0  0.23935000000000003  0.55849  0.6391  1.0000
  C   C33       1.0  0.31124  0.5249  0.5898  1.0000
  C   C34       1.0  0.3229199999999999  0.46267000000000014  0.58239  1.0000
  C   C35       1.0  0.26234999999999997  0.43460000000000004  0.62489  1.0000
  C   C36       1.0  0.18820999999999996  0.46769  0.67653  1.0000
  C   C37       1.0  0.08213999999999995  0.78595  0.42229000000000005  1.0000
  C   C38       1.0  0.0687099999999999  0.7902300000000001  0.48919  1.0000
  C   C39       1.0  0.13038999999999992  0.7417000000000001  0.51222  1.0000
  C   C40       1.0  0.12757999999999992  0.73988  0.57358  1.0000
  C   C41       1.0  0.05995000000000003  0.78605  0.61384  1.0000
  C   C42       1.0  0.06355999999999988  0.7800300000000002  0.67812  1.0000
  C   C43       1.0  0.9932799999999999  0.8364400000000002  0.59323  1.0000
  C   C44       1.0  0.9239199999999999  0.8845500000000002  0.63374  1.0000
  C   C45       1.0  0.8608399999999996  0.93351  0.6131  1.0000
  C   C46       1.0  0.8651600000000002  0.93649  0.55081  1.0000
  C   C47       1.0  0.9325100000000002  0.89106  0.50994  1.0000
  C   C48       1.0  0.9983599999999999  0.8394400000000001  0.52937  1.0000
  C   C49       1.0  0.5308699999999996  0.5916900000000002  0.24874  1.0000
  C   C50       1.0  0.58978  0.5283800000000001  0.26019  1.0000
  C   C51       1.0  0.61444  0.48583  0.21473  1.0000
  C   C52       1.0  0.66785  0.42458000000000007  0.22032000000000002  1.0000
  C   C53       1.0  0.69585  0.40369  0.27225  1.0000
  C   C54       1.0  0.7427900000000001  0.3365  0.27595  1.0000
  C   C55       1.0  0.6755599999999999  0.4463700000000001  0.31951  1.0000
  C   C56       1.0  0.7074999999999999  0.42896  0.37193000000000004  1.0000
  C   C57       1.0  0.68786  0.4712900000000001  0.41601  1.0000
  C   C58       1.0  0.6324700000000001  0.5328900000000001  0.4108800000000001  1.0000
  C   C59       1.0  0.59974  0.55165  0.36093  1.0000
  C   C60       1.0  0.62143  0.51011  0.31326  1.0000
  C   C61       1.0  0.22292999999999988  0.6264100000000001  0.28619  1.0000
  C   C62       1.0  0.2838699999999998  0.5607  0.27976  1.0000
  C   C63       1.0  0.29022  0.52798  0.23103  1.0000
  C   C64       1.0  0.34882  0.4663  0.22274  1.0000
  C   C65       1.0  0.39927999999999997  0.4367300000000001  0.26327  1.0000
  C   C66       1.0  0.46417999999999976  0.3728900000000001  0.24752  1.0000
  C   C67       1.0  0.39105999999999996  0.4688  0.31571  1.0000
  C   C68       1.0  0.43642  0.44149  0.36095  1.0000
  C   C69       1.0  0.42562  0.47507  0.41016  1.0000
  C   C70       1.0  0.36797999999999975  0.5373900000000001  0.4174800000000001  1.0000
  C   C71       1.0  0.3220099999999998  0.5655400000000002  0.37495  1.0000
  C   C72       1.0  0.3324999999999999  0.53244  0.32338  1.0000
  C   C73       1.0  0.2552699999999998  0.07759  0.28588  1.0000
  C   C74       1.0  0.30832  0.01055  0.29004  1.0000
  C   C75       1.0  0.39288999999999996  0.98734  0.24143  1.0000
  C   C76       1.0  0.4512599999999999  0.9259000000000001  0.23957  1.0000
  C   C77       1.0  0.42392999999999986  0.8856700000000002  0.28577  1.0000
  C   C78       1.0  0.4922000000000001  0.8214100000000001  0.2799  1.0000
  C   C79       1.0  0.3366199999999998  0.9064300000000001  0.33619  1.0000
  C   C80       1.0  0.30742  0.86605  0.38431  1.0000
  C   C81       1.0  0.22367999999999988  0.8869100000000001  0.43327  1.0000
  C   C82       1.0  0.16597999999999985  0.9492800000000001  0.43626  1.0000
  C   C83       1.0  0.19277999999999998  0.99002  0.39082  1.0000
  C   C84       1.0  0.2780899999999998  0.9703900000000001  0.33922  1.0000
  C   C85       1.0  0.52947  0.25118  0.09161  1.0000
  C   C86       1.0  0.6000699999999999  0.23979  0.0283  1.0000
  C   C87       1.0  0.5793099999999999  0.28527  0.98574  1.0000
  C   C88       1.0  0.6384899999999999  0.27971  0.92451  1.0000
  C   C89       1.0  0.7185599999999999  0.22780000000000006  0.90362  1.0000
  C   C90       1.0  0.7694799999999996  0.22417  0.83644  1.0000
  C   C91       1.0  0.7454399999999998  0.18047  0.9462700000000001  1.0000
  C   C92       1.0  0.8298599999999997  0.12803000000000003  0.92886  1.0000
  C   C93       1.0  0.85422  0.08393  0.9712000000000001  1.0000
  C   C94       1.0  0.79363  0.08908000000000002  0.03281  1.0000
  C   C95       1.0  0.7108599999999998  0.13903  0.051579999999999994  1.0000
  C   C96       1.0  0.68491  0.18670000000000006  0.01002  1.0000
  C   C97       1.0  0.2592399999999999  0.21372  0.1263  1.0000
  C   C98       1.0  0.31392  0.22015  0.060570000000000006  1.0000
  C   C99       1.0  0.2716299999999999  0.26896000000000003  0.0279  1.0000
  C   C100      1.0  0.3219199999999999  0.27731  0.9661999999999998  1.0000
  C   C101      1.0  0.4130599999999999  0.23685000000000006  0.9365800000000001  1.0000
  C   C102      1.0  0.46246  0.25263  0.87278  1.0000
  C   C103      1.0  0.45725000000000016  0.18436  0.96863  1.0000
  C   C104      1.0  0.5479099999999997  0.13916  0.94117  1.0000
  C   C105      1.0  0.5864899999999997  0.08987000000000002  0.9745900000000001  1.0000
  C   C106      1.0  0.5362400000000002  0.08248  0.03693  1.0000
  C   C107      1.0  0.4476399999999999  0.12496000000000003  0.06522  1.0000
  C   C108      1.0  0.40631  0.17657  0.03225  1.0000
  C   C109      1.0  0.61832  0.9221500000000002  0.71393  1.0000
  C   C110      1.0  0.6090799999999997  0.9890700000000001  0.70974  1.0000
  C   C111      1.0  0.6222499999999999  0.012020000000000003  0.75829  1.0000
  C   C112      1.0  0.61748  0.07339  0.76024  1.0000
  C   C113      1.0  0.59573  0.11378  0.71425  1.0000
  C   C114      1.0  0.59328  0.17806  0.72025  1.0000
  C   C115      1.0  0.5794599999999998  0.09325000000000001  0.66384  1.0000
  C   C116      1.0  0.55816  0.13382  0.61581  1.0000
  C   C117      1.0  0.5442199999999999  0.11326000000000003  0.56677  1.0000
  C   C118      1.0  0.5517  0.05098  0.56364  1.0000
  C   C119      1.0  0.5736199999999997  0.01005  0.609  1.0000
  C   C120      1.0  0.5877599999999998  0.029380000000000003  0.66068  1.0000
  C   C121      1.0  0.8720099999999996  0.74896  0.9082000000000001  1.0000
  C   C122      1.0  0.86782  0.76048  0.97141  1.0000
  C   C123      1.0  0.85011  0.71499  0.01392  1.0000
  C   C124      1.0  0.84287  0.7204000000000003  0.07507  1.0000
  C   C125      1.0  0.8501799999999999  0.7722800000000001  0.09592  1.0000
  C   C126      1.0  0.8303499999999999  0.7757600000000001  0.16308  1.0000
  C   C127      1.0  0.87222  0.8196500000000001  0.05331999999999999  1.0000
  C   C128      1.0  0.88688  0.8720400000000001  0.07068  1.0000
  C   C129      1.0  0.90916  0.9162400000000002  0.02837  1.0000
  C   C130      1.0  0.9148499999999997  0.9112100000000002  0.96686  1.0000
  C   C131      1.0  0.9008300000000002  0.8612600000000001  0.9481499999999999  1.0000
  C   C132      1.0  0.8813599999999998  0.8135100000000001  0.98965  1.0000
  C   C133      1.0  0.5993899999999998  0.7860800000000002  0.87369  1.0000
  C   C134      1.0  0.5942899999999999  0.7796400000000001  0.93946  1.0000
  C   C135      1.0  0.56774  0.73104  0.97232  1.0000
  C   C136      1.0  0.5648099999999998  0.7228300000000002  0.03397  1.0000
  C   C137      1.0  0.5860099999999998  0.76329  0.06343  1.0000
  C   C138      1.0  0.5875499999999999  0.7474100000000002  0.12718  1.0000
  C   C139      1.0  0.6098099999999999  0.8157100000000003  0.031230000000000004  1.0000
  C   C140      1.0  0.6281399999999996  0.8609600000000002  0.058320000000000004  1.0000
  C   C141      1.0  0.65079  0.91015  0.02463  1.0000
  C   C142      1.0  0.6549299999999997  0.9175000000000001  0.9624100000000001  1.0000
  C   C143      1.0  0.6368299999999998  0.87496  0.9344800000000001  1.0000
  C   C144      1.0  0.61456  0.82335  0.9676499999999999  1.0000
  C   C145      1.0  0.7913299999999999  0.5776400000000002  0.21399  1.0000
  C   C146      1.0  0.8484899999999997  0.5106  0.20987999999999998  1.0000
  C   C147      1.0  0.88441  0.4874400000000001  0.25847  1.0000
  C   C148      1.0  0.9408200000000001  0.42599  0.26035  1.0000
  C   C149      1.0  0.95951  0.38579  0.21419000000000002  1.0000
  C   C150      1.0  0.021229999999999936  0.3214600000000001  0.22019000000000002  1.0000
  C   C151      1.0  0.9226599999999999  0.40645000000000003  0.1638  1.0000
  C   C152      1.0  0.94155  0.36598  0.11574  1.0000
  C   C153      1.0  0.9069200000000001  0.3867900000000001  0.06676  1.0000
  C   C154      1.0  0.8523899999999999  0.44918000000000013  0.06372  1.0000
  C   C155      1.0  0.8337799999999999  0.48998  0.10911  1.0000
  C   C156      1.0  0.8673399999999997  0.47041  0.16073  1.0000
  C   C157      1.0  0.8705099999999999  0.75118  0.40819999999999995  1.0000
  C   C158      1.0  0.8779299999999997  0.7398600000000001  0.47143  1.0000
  C   C159      1.0  0.8147199999999994  0.7853800000000002  0.51401  1.0000
  C   C160      1.0  0.81305  0.7799  0.57515  1.0000
  C   C161      1.0  0.8724400000000001  0.72801  0.59591  1.0000
  C   C162      1.0  0.85644  0.72462  0.66305  1.0000
  C   C163      1.0  0.9417599999999999  0.6806300000000001  0.55324  1.0000
  C   C164      1.0  0.008770000000000054  0.62815  0.57058  1.0000
  C   C165      1.0  0.07522999999999999  0.58397  0.5282  1.0000
  C   C166      1.0  0.07593999999999995  0.58907  0.46668  1.0000
  C   C167      1.0  0.01187000000000002  0.63904  0.44803000000000004  1.0000
  C   C168      1.0  0.94461  0.6868  0.4895900000000001  1.0000
  C   C169      1.0  0.6360199999999999  0.71374  0.3736400000000001  1.0000
  C   C170      1.0  0.6246399999999995  0.7201300000000002  0.4394100000000001  1.0000
  C   C171      1.0  0.5495000000000001  0.76884  0.47217  1.0000
  C   C172      1.0  0.53805  0.77713  0.53385  1.0000
  C   C173      1.0  0.5996  0.73663  0.5634  1.0000
  C   C174      1.0  0.58505  0.75249  0.62718  1.0000
  C   C175      1.0  0.67596  0.68418  0.5313  1.0000
  C   C176      1.0  0.7393999999999998  0.6390200000000001  0.5586  1.0000
  C   C177      1.0  0.8113199999999998  0.5897100000000001  0.52506  1.0000
  C   C178      1.0  0.8231100000000001  0.58228  0.46279  1.0000
  C   C179      1.0  0.7626899999999999  0.6247900000000001  0.43464  1.0000
  C   C180      1.0  0.6885499999999997  0.6764400000000002  0.4677  1.0000
  C   C181      1.0  0.5823999999999999  0.42211  0.78591  1.0000
  C   C182      1.0  0.56885  0.48906  0.79015  1.0000
  C   C183      1.0  0.6303999999999998  0.5121800000000001  0.7415999999999999  1.0000
  C   C184      1.0  0.6274499999999998  0.5735900000000002  0.7398200000000001  1.0000
  C   C185      1.0  0.55975  0.6138500000000001  0.78598  1.0000
  C   C186      1.0  0.5630399999999998  0.67824  0.7800000000000001  1.0000
  C   C187      1.0  0.49324000000000007  0.59312  0.8363800000000001  1.0000
  C   C188      1.0  0.42383000000000004  0.6335500000000001  0.88453  1.0000
  C   C189      1.0  0.36087000000000014  0.61281  0.9334799999999999  1.0000
  C   C190      1.0  0.36530999999999986  0.5505100000000002  0.9364199999999999  1.0000
  C   C191      1.0  0.4327099999999998  0.5097100000000001  0.89094  1.0000
  C   C192      1.0  0.49852  0.52923  0.8393600000000001  1.0000
  C   C193      1.0  0.030590000000000027  0.24881  0.59163  1.0000
  C   C194      1.0  0.0897  0.26024  0.52834  1.0000
  C   C195      1.0  0.11431999999999999  0.21482  0.48574  1.0000
  C   C196      1.0  0.16786  0.22037000000000004  0.42451  1.0000
  C   C197      1.0  0.19587999999999997  0.2722800000000001  0.40363  1.0000
  C   C198      1.0  0.24309999999999996  0.27585  0.33643  1.0000
  C   C199      1.0  0.17551999999999998  0.31955  0.44630000000000003  1.0000
  C   C200      1.0  0.20748999999999992  0.37194  0.42889000000000005  1.0000
  C   C201      1.0  0.18793000000000004  0.416  0.47123  1.0000
  C   C202      1.0  0.1325099999999999  0.41088000000000013  0.53283  1.0000
  C   C203      1.0  0.09966999999999998  0.36098  0.5516  1.0000
  C   C204      1.0  0.12137  0.31331  0.51006  1.0000
  C   C205      1.0  0.7226399999999998  0.28623  0.62617  1.0000
  C   C206      1.0  0.78384  0.27971  0.56044  1.0000
  C   C207      1.0  0.7904999999999999  0.23097  0.5276  1.0000
  C   C208      1.0  0.8493099999999999  0.22273000000000004  0.46595000000000003  1.0000
  C   C209      1.0  0.89981  0.26328  0.43652  1.0000
  C   C210      1.0  0.96501  0.24747000000000002  0.37277  1.0000
  C   C211      1.0  0.89137  0.31570000000000004  0.4687  1.0000
  C   C212      1.0  0.9366199999999999  0.36099  0.44144  1.0000
  C   C213      1.0  0.9256899999999999  0.4102  0.47505  1.0000
  C   C214      1.0  0.8680099999999998  0.41744  0.53738  1.0000
  C   C215      1.0  0.82205  0.37488  0.56547  1.0000
  C   C216      1.0  0.8326000000000001  0.32332  0.53232  1.0000
  C   C217      1.0  0.75398  0.28604  0.07804  1.0000
  C   C218      1.0  0.80739  0.29026  0.01105  1.0000
  C   C219      1.0  0.8920700000000001  0.24166  0.98792  1.0000
  C   C220      1.0  0.9504  0.23973000000000003  0.92646  1.0000
  C   C221      1.0  0.9230599999999995  0.28585000000000005  0.8861900000000001  1.0000
  C   C222      1.0  0.9911800000000001  0.27983  0.82193  1.0000
  C   C223      1.0  0.83587  0.33632  0.9068599999999999  1.0000
  C   C224      1.0  0.80694  0.38442  0.8663900000000001  1.0000
  C   C225      1.0  0.72329  0.4334500000000001  0.88717  1.0000
  C   C226      1.0  0.66547  0.4365  0.94952  1.0000
  C   C227      1.0  0.6920799999999995  0.39109  0.9903400000000001  1.0000
  C   C228      1.0  0.7772900000000001  0.33942  0.9708099999999998  1.0000
  C   C229      1.0  0.02946  0.09177  0.25126  1.0000
  C   C230      1.0  0.09984  0.028460000000000003  0.23986  1.0000
  C   C231      1.0  0.07881999999999988  0.9859800000000001  0.28536  1.0000
  C   C232      1.0  0.13787999999999984  0.9247400000000002  0.27992  1.0000
  C   C233      1.0  0.21801999999999996  0.90379  0.22804  1.0000
  C   C234      1.0  0.26898  0.83663  0.2246  1.0000
  C   C235      1.0  0.24507000000000007  0.94634  0.18065  1.0000
  C   C236      1.0  0.32947999999999994  0.92888  0.1282  1.0000
  C   C237      1.0  0.3539099999999999  0.9712100000000001  0.08409  1.0000
  C   C238      1.0  0.2934  0.03283  0.08921  1.0000
  C   C239      1.0  0.21060999999999996  0.05163000000000001  0.13914  1.0000
  C   C240      1.0  0.18465  0.0101  0.18681  1.0000
  C   C241      1.0  0.7587999999999999  0.12630000000000002  0.21392000000000003  1.0000
  C   C242      1.0  0.81367  0.06061000000000001  0.22034  1.0000
  C   C243      1.0  0.77149  0.027860000000000006  0.26912  1.0000
  C   C244      1.0  0.8218499999999999  0.9661900000000001  0.27737  1.0000
  C   C245      1.0  0.9128499999999999  0.9366300000000002  0.23675  1.0000
  C   C246      1.0  0.9620000000000001  0.87283  0.25253  1.0000
  C   C247      1.0  0.9570399999999997  0.9687500000000001  0.18434  1.0000
  C   C248      1.0  0.04774999999999995  0.9413800000000001  0.13913  1.0000
  C   C249      1.0  0.08623999999999982  0.9748700000000002  0.08986  1.0000
  C   C250      1.0  0.03590000000000001  0.03721  0.08257  1.0000
  C   C251      1.0  0.94732  0.06545  0.12511  1.0000
  C   C252      1.0  0.9060499999999998  0.03238  0.17668  1.0000
  C   C253      1.0  0.11835  0.71402  0.9221600000000001  1.0000
  C   C254      1.0  0.10932999999999975  0.7097100000000002  0.9890600000000002  1.0000
  C   C255      1.0  0.12244999999999999  0.75826  0.01205  1.0000
  C   C256      1.0  0.11777000000000003  0.7601700000000001  0.07341  1.0000
  C   C257      1.0  0.09617999999999993  0.7141300000000002  0.11378  1.0000
  C   C258      1.0  0.09360999999999987  0.72017  0.1781  1.0000
  C   C259      1.0  0.07986999999999997  0.6637500000000001  0.09322000000000001  1.0000
  C   C260      1.0  0.05842999999999994  0.6157500000000001  0.13378  1.0000
  C   C261      1.0  0.04431000000000002  0.56679  0.11318000000000002  1.0000
  C   C262      1.0  0.0518  0.56368  0.05089  1.0000
  C   C263      1.0  0.07384999999999997  0.60902  0.00998  1.0000
  C   C264      1.0  0.08812999999999996  0.6606200000000001  0.029349999999999998  1.0000
  C   C265      1.0  0.3722599999999998  0.9082200000000002  0.74875  1.0000
  C   C266      1.0  0.3678900000000001  0.97147  0.76035  1.0000
  C   C267      1.0  0.35007999999999995  0.01403  0.7149  1.0000
  C   C268      1.0  0.34264999999999995  0.07521  0.72037  1.0000
  C   C269      1.0  0.3499200000000001  0.09608  0.7722599999999998  1.0000
  C   C270      1.0  0.3298999999999999  0.1633  0.7757900000000001  1.0000
  C   C271      1.0  0.37212  0.05340000000000001  0.81958  1.0000
  C   C272      1.0  0.38670000000000004  0.07075  0.8720099999999998  1.0000
  C   C273      1.0  0.4090399999999998  0.028460000000000003  0.9162000000000001  1.0000
  C   C274      1.0  0.41486999999999996  0.96694  0.91116  1.0000
  C   C275      1.0  0.4008499999999999  0.9482200000000002  0.8612  1.0000
  C   C276      1.0  0.38133000000000006  0.9897  0.81343  1.0000
  C   C277      1.0  0.09834999999999991  0.8737700000000002  0.7862100000000001  1.0000
  C   C278      1.0  0.09383000000000002  0.93944  0.77983  1.0000
  C   C279      1.0  0.06765000000000003  0.97228  0.73112  1.0000
  C   C280      1.0  0.06477999999999998  0.0339  0.72288  1.0000
  C   C281      1.0  0.08599999999999992  0.06331  0.76336  1.0000
  C   C282      1.0  0.08749999999999988  0.12705  0.7474800000000001  1.0000
  C   C283      1.0  0.10985999999999997  0.031100000000000006  0.81575  1.0000
  C   C284      1.0  0.12816000000000002  0.058260000000000006  0.86097  1.0000
  C   C285      1.0  0.15082000000000004  0.024610000000000007  0.91018  1.0000
  C   C286      1.0  0.1550899999999999  0.9623800000000001  0.91752  1.0000
  C   C287      1.0  0.13698999999999983  0.9343900000000002  0.87501  1.0000
  C   C288      1.0  0.11447999999999994  0.9675400000000001  0.82344  1.0000
  O   O1        1.0  0.28178000000000003  0.26021  0.60819  1.0000
  O   O2        1.0  0.24732999999999986  0.17447  0.60517  1.0000
  O   O3        1.0  0.4878399999999999  0.22265000000000004  0.27623  1.0000
  O   O4        1.0  0.6034  0.22537000000000001  0.31371  1.0000
  O   O5        1.0  0.44501  0.3605300000000001  0.72574  1.0000
  O   O6        1.0  0.29206999999999994  0.40012  0.78564  1.0000
  O   O7        1.0  0.2859999999999999  0.69801  0.76879  1.0000
  O   O8        1.0  0.4073799999999995  0.6888200000000001  0.68159  1.0000
  O   O9        1.0  0.21266  0.33141  0.71962  1.0000
  O   O10       1.0  0.06892999999999996  0.35999  0.70347  1.0000
  O   O11       1.0  0.15199  0.65147  0.73131  1.0000
  O   O12       1.0  0.0023700000000000452  0.6572300000000001  0.79184  1.0000
  O   O13       1.0  0.15116  0.7401  0.39185000000000003  1.0000
  O   O14       1.0  0.026350000000000092  0.82522  0.39543  1.0000
  O   O15       1.0  0.9870600000000002  0.77744  0.72363  1.0000
  O   O16       1.0  0.14294000000000004  0.77477  0.68653  1.0000
  O   O17       1.0  0.5319000000000002  0.63922  0.2742  1.0000
  O   O18       1.0  0.47845999999999983  0.5998600000000001  0.21421  1.0000
  O   O19       1.0  0.75346  0.30160000000000003  0.23149000000000003  1.0000
  O   O20       1.0  0.7746899999999997  0.31090000000000007  0.31993  1.0000
  O   O21       1.0  0.2642  0.6686700000000001  0.28035  1.0000
  O   O22       1.0  0.1327899999999999  0.64023  0.29651  1.0000
  O   O23       1.0  0.5342999999999999  0.34858  0.26872  1.0000
  O   O24       1.0  0.45075000000000004  0.34293  0.2083  1.0000
  O   O25       1.0  0.29373  0.10774  0.23977  1.0000
  O   O26       1.0  0.1731799999999999  0.1049  0.32548  1.0000
  O   O27       1.0  0.46191  0.77558  0.27736  1.0000
  O   O28       1.0  0.5798699999999999  0.8132500000000003  0.27479  1.0000
  O   O29       1.0  0.5558599999999999  0.22580000000000006  0.13922  1.0000
  O   O30       1.0  0.44239  0.28554000000000007  0.09974  1.0000
  O   O31       1.0  0.7354299999999999  0.26842000000000005  0.80139  1.0000
  O   O32       1.0  0.8458399999999999  0.18042000000000002  0.8109499999999998  1.0000
  O   O33       1.0  0.29440999999999995  0.21981  0.16861  1.0000
  O   O34       1.0  0.17961999999999992  0.20314000000000004  0.14014  1.0000
  O   O35       1.0  0.55388  0.23145000000000002  0.8486  1.0000
  O   O36       1.0  0.41004999999999997  0.29184  0.8426600000000001  1.0000
  O   O37       1.0  0.64119  0.89178  0.75987  1.0000
  O   O38       1.0  0.6020099999999999  0.8952300000000001  0.67464  1.0000
  O   O39       1.0  0.5142799999999998  0.22359000000000007  0.72271  1.0000
  O   O40       1.0  0.6674599999999997  0.18646  0.72541  1.0000
  O   O41       1.0  0.9209300000000002  0.7742200000000001  0.8606  1.0000
  O   O42       1.0  0.8275399999999998  0.7145500000000001  0.9001300000000001  1.0000
  O   O43       1.0  0.8054299999999998  0.7314400000000001  0.19784000000000002  1.0000
  O   O44       1.0  0.8375099999999996  0.81936  0.18874999999999997  1.0000
  O   O45       1.0  0.68306  0.7803600000000002  0.83149  1.0000
  O   O46       1.0  0.5231399999999999  0.7965500000000002  0.85976  1.0000
  O   O47       1.0  0.6332199999999999  0.7687500000000002  0.15143  1.0000
  O   O48       1.0  0.54476  0.70791  0.15716  1.0000
  O   O49       1.0  0.78365  0.60798  0.25999  1.0000
  O   O50       1.0  0.7487700000000002  0.60475  0.17443  1.0000
  O   O51       1.0  0.98716  0.27619000000000005  0.223  1.0000
  O   O52       1.0  0.10407000000000002  0.31273  0.22512  1.0000
  O   O53       1.0  0.9443399999999998  0.7255700000000002  0.36052  1.0000
  O   O54       1.0  0.7917399999999996  0.7857800000000001  0.40012000000000003  1.0000
  O   O55       1.0  0.78673  0.7686900000000001  0.69792  1.0000
  O   O56       1.0  0.90802  0.68139  0.68862  1.0000
  O   O57       1.0  0.71357  0.71988  0.33138  1.0000
  O   O58       1.0  0.5704799999999999  0.7029600000000001  0.35976  1.0000
  O   O59       1.0  0.6524  0.7315900000000001  0.65128  1.0000
  O   O60       1.0  0.50223  0.7915400000000001  0.65726  1.0000
  O   O61       1.0  0.6503500000000001  0.39203000000000005  0.73947  1.0000
  O   O62       1.0  0.528  0.39476  0.8256700000000001  1.0000
  O   O63       1.0  0.4864099999999999  0.7237  0.77757  1.0000
  O   O64       1.0  0.6423599999999999  0.68679  0.7747100000000001  1.0000
  O   O65       1.0  0.03095000000000001  0.27443  0.63931  1.0000
  O   O66       1.0  0.9784600000000001  0.21414000000000002  0.59971  1.0000
  O   O67       1.0  0.25359  0.23143  0.30152  1.0000
  O   O68       1.0  0.27548000000000006  0.31962  0.31084  1.0000
  O   O69       1.0  0.76395  0.2805  0.66843  1.0000
  O   O70       1.0  0.6324599999999999  0.2965900000000001  0.64005  1.0000
  O   O71       1.0  0.034990000000000014  0.26876  0.34847  1.0000
  O   O72       1.0  0.9521  0.20799  0.34282  1.0000
  O   O73       1.0  0.7922599999999999  0.23980000000000004  0.10815  1.0000
  O   O74       1.0  0.67184  0.32559000000000005  0.10533  1.0000
  O   O75       1.0  0.9605999999999999  0.27709  0.7763100000000001  1.0000
  O   O76       1.0  0.07884000000000005  0.27483  0.81366  1.0000
  O   O77       1.0  0.055789999999999965  0.13935000000000003  0.22576000000000002  1.0000
  O   O78       1.0  0.9425400000000002  0.09987  0.28585  1.0000
  O   O79       1.0  0.23437  0.80172  0.26868  1.0000
  O   O80       1.0  0.34592999999999985  0.8111100000000002  0.18116  1.0000
  O   O81       1.0  0.79374  0.16873  0.22005  1.0000
  O   O82       1.0  0.67929  0.14002  0.20324  1.0000
  O   O83       1.0  0.05334  0.8485  0.23139  1.0000
  O   O84       1.0  0.9093099999999998  0.8429000000000002  0.2918  1.0000
  O   O85       1.0  0.13944999999999988  0.7605700000000001  0.89214  1.0000
  O   O86       1.0  0.1037599999999999  0.67424  0.8948400000000001  1.0000
  O   O87       1.0  0.014379999999999948  0.72278  0.22351  1.0000
  O   O88       1.0  0.16774  0.72529  0.18663  1.0000
  O   O89       1.0  0.42010999999999976  0.8605600000000001  0.7745300000000002  1.0000
  O   O90       1.0  0.3287199999999998  0.9001200000000003  0.71378  1.0000
  O   O91       1.0  0.30477  0.19813  0.73154  1.0000
  O   O92       1.0  0.33718  0.18894000000000002  0.81937  1.0000
  O   O93       1.0  0.18202999999999991  0.83146  0.78019  1.0000
  O   O94       1.0  0.02198  0.85997  0.79676  1.0000
  O   O95       1.0  0.13379999999999997  0.15118000000000004  0.76842  1.0000
  O   O96       1.0  0.043899999999999995  0.15711  0.70837  1.0000
