data_image0
_chemical_formula_structural       Zn24H144C240Br24N120O48
_chemical_formula_sum              "Zn24 H144 C240 Br24 N120 O48"
_cell_length_a       20.09221
_cell_length_b       26.16373
_cell_length_c       26.193230000000003
_cell_angle_alpha    119.91065999999998
_cell_angle_beta     89.16348
_cell_angle_gamma    90.35782

_space_group_name_H-M_alt    "P 1"
_space_group_IT_number       1

loop_
  _space_group_symop_operation_xyz
  'x, y, z'

loop_
  _atom_site_type_symbol
  _atom_site_label
  _atom_site_symmetry_multiplicity
  _atom_site_fract_x
  _atom_site_fract_y
  _atom_site_fract_z
  _atom_site_occupancy
  Zn  Zn1       1.0  0.59711  0.33283  0.43367  1.0000
  Zn  Zn2       1.0  0.59723  0.10102999999999995  0.66704  1.0000
  Zn  Zn3       1.0  0.59832  0.56617  0.89896  1.0000
  Zn  Zn4       1.0  0.09960999999999999  0.66695  0.56593  1.0000
  Zn  Zn5       1.0  0.0996  0.8990299999999998  0.33274  1.0000
  Zn  Zn6       1.0  0.0986  0.4337799999999999  0.10114  1.0000
  Zn  Zn7       1.0  0.39930999999999994  0.6670799999999999  0.1011  1.0000
  Zn  Zn8       1.0  0.40071  0.8993299999999997  0.56625  1.0000
  Zn  Zn9       1.0  0.40272  0.43388  0.33297  1.0000
  Zn  Zn10      1.0  0.9034500000000001  0.33257  0.89896  1.0000
  Zn  Zn11      1.0  0.90143  0.10124999999999997  0.43402  1.0000
  Zn  Zn12      1.0  0.90046  0.56595  0.6669  1.0000
  Zn  Zn13      1.0  0.40271000000000007  0.6674399999999998  0.5664  1.0000
  Zn  Zn14      1.0  0.4025000000000002  0.8987499999999999  0.33267  1.0000
  Zn  Zn15      1.0  0.40149999999999986  0.4337999999999999  0.10106999999999998  1.0000
  Zn  Zn16      1.0  0.9004100000000002  0.33344  0.43416999999999994  1.0000
  Zn  Zn17      1.0  0.90044  0.10103999999999999  0.66718  1.0000
  Zn  Zn18      1.0  0.9013099999999997  0.56617  0.8988000000000002  1.0000
  Zn  Zn19      1.0  0.60056  0.33268  0.89873  1.0000
  Zn  Zn20      1.0  0.59851  0.10095999999999995  0.43369  1.0000
  Zn  Zn21      1.0  0.59738  0.56608  0.66702  1.0000
  Zn  Zn22      1.0  0.0962  0.66717  0.10090000000000002  1.0000
  Zn  Zn23      1.0  0.09639  0.89894  0.56597  1.0000
  Zn  Zn24      1.0  0.09953000000000001  0.4339999999999999  0.33303  1.0000
  H   H1        1.0  0.43592  0.30351999999999996  0.42179999999999995  1.0000
  H   H2        1.0  0.68064  0.3216  0.32364  1.0000
  H   H3        1.0  0.58886  0.22265  0.30089  1.0000
  H   H4        1.0  0.51861  0.3474099999999999  0.54628  1.0000
  H   H5        1.0  0.43632000000000004  0.11866000000000004  0.69694  1.0000
  H   H6        1.0  0.6785  0.0004800000000000085  0.67673  1.0000
  H   H7        1.0  0.58798  0.07760999999999996  0.77541  1.0000
  H   H8        1.0  0.51923  0.19872999999999993  0.65288  1.0000
  H   H9        1.0  0.44368  0.5781499999999999  0.88943  1.0000
  H   H10       1.0  0.68014  0.6765999999999999  1e-05  1.0000
  H   H11       1.0  0.59073  0.7011099999999998  0.9227  1.0000
  H   H12       1.0  0.51882  0.45476999999999995  0.8027600000000001  1.0000
  H   H13       1.0  0.9450599999999999  0.68856  0.57786  1.0000
  H   H14       1.0  0.18054  0.67689  0.67662  1.0000
  H   H15       1.0  0.09075000000000003  0.77661  0.69998  1.0000
  H   H16       1.0  0.01799  0.65288  0.45482  1.0000
  H   H17       1.0  0.94512  0.8891699999999999  0.31129  1.0000
  H   H18       1.0  0.18279  0.99925  0.32228  1.0000
  H   H19       1.0  0.0945  0.9257299999999998  0.22298  1.0000
  H   H20       1.0  0.01792  0.8016699999999999  0.34776  1.0000
  H   H21       1.0  0.93768  0.4221799999999999  0.11915  1.0000
  H   H22       1.0  0.18135  0.32348  0.0009000000000000001  1.0000
  H   H23       1.0  0.09292  0.29802  0.0734  1.0000
  H   H24       1.0  0.01764  0.54563  0.19937  1.0000
  H   H25       1.0  0.5556  0.6890799999999998  0.11037999999999999  1.0000
  H   H26       1.0  0.31881  0.67554  0.99895  1.0000
  H   H27       1.0  0.40673  0.7760000000000001  0.07637  1.0000
  H   H28       1.0  0.48083  0.6525599999999998  0.19836  1.0000
  H   H29       1.0  0.5553  0.8894499999999997  0.5784  1.0000
  H   H30       1.0  0.3166  0.99849  0.67616  1.0000
  H   H31       1.0  0.40935  0.9213199999999998  0.69908  1.0000
  H   H32       1.0  0.48108  0.80196  0.45412  1.0000
  H   H33       1.0  0.56318  0.42186999999999997  0.30299  1.0000
  H   H34       1.0  0.3202  0.32355  0.32205  1.0000
  H   H35       1.0  0.41171  0.30177  0.224  1.0000
  H   H36       1.0  0.48069  0.54624  0.3473  1.0000
  H   H37       1.0  0.06316  0.30315  0.88095  1.0000
  H   H38       1.0  0.8188200000000001  0.32255  0.99921  1.0000
  H   H39       1.0  0.90694  0.22420000000000004  0.9265400000000001  1.0000
  H   H40       1.0  0.9829199999999999  0.34779999999999994  0.80132  1.0000
  H   H41       1.0  0.06311  0.11872999999999999  0.42221999999999993  1.0000
  H   H42       1.0  0.8206099999999998  0.00028000000000000496  0.32384  1.0000
  H   H43       1.0  0.90667  0.07329  0.29858  1.0000
  H   H44       1.0  0.98262  0.1985  0.54516  1.0000
  H   H45       1.0  0.05525999999999999  0.57839  0.68868  1.0000
  H   H46       1.0  0.81853  0.6762899999999997  0.67628  1.0000
  H   H47       1.0  0.9061  0.69948  0.77594  1.0000
  H   H48       1.0  0.9822900000000001  0.45369  0.65179  1.0000
  H   H49       1.0  0.56379  0.6963399999999998  0.57755  1.0000
  H   H50       1.0  0.31911  0.67836  0.67652  1.0000
  H   H51       1.0  0.41024000000000005  0.77817  0.70159  1.0000
  H   H52       1.0  0.48168  0.6523899999999998  0.45400000000000007  1.0000
  H   H53       1.0  0.5636  0.88091  0.30319  1.0000
  H   H54       1.0  0.32115  0.0002100000000000122  0.32367  1.0000
  H   H55       1.0  0.40741  0.92657  0.22494  1.0000
  H   H56       1.0  0.48166  0.8008299999999998  0.34696  1.0000
  H   H57       1.0  0.55639  0.42191  0.11054  1.0000
  H   H58       1.0  0.31968  0.32348  0.99954  1.0000
  H   H59       1.0  0.40516  0.29716  0.07392  1.0000
  H   H60       1.0  0.48178  0.54558  0.19767  1.0000
  H   H61       1.0  0.05444  0.3111  0.42162  1.0000
  H   H62       1.0  0.8193700000000002  0.32317  0.32355  1.0000
  H   H63       1.0  0.90982  0.22431  0.30235  1.0000
  H   H64       1.0  0.98149  0.34709  0.54544  1.0000
  H   H65       1.0  0.05446  0.11071999999999993  0.68878  1.0000
  H   H66       1.0  0.8171300000000001  0.001520000000000027  0.6783  1.0000
  H   H67       1.0  0.90958  0.07864000000000004  0.77788  1.0000
  H   H68       1.0  0.9816999999999999  0.19827999999999993  0.65165  1.0000
  H   H69       1.0  0.06202  0.57765  0.8807699999999999  1.0000
  H   H70       1.0  0.8186  0.6765599999999998  0.9986899999999999  1.0000
  H   H71       1.0  0.91109  0.7004399999999997  0.92296  1.0000
  H   H72       1.0  0.98194  0.45451999999999987  0.80124  1.0000
  H   H73       1.0  0.44435  0.31112  0.8890999999999999  1.0000
  H   H74       1.0  0.68051  0.32407  0.00091  1.0000
  H   H75       1.0  0.59464  0.2240099999999999  0.9261399999999999  1.0000
  H   H76       1.0  0.51875  0.34755  0.80183  1.0000
  H   H77       1.0  0.44437  0.11103000000000003  0.42217000000000005  1.0000
  H   H78       1.0  0.68227  0.0008199999999999976  0.32344  1.0000
  H   H79       1.0  0.59494  0.07407  0.29658  1.0000
  H   H80       1.0  0.51808  0.19836  0.54605  1.0000
  H   H81       1.0  0.43678  0.57806  0.6969  1.0000
  H   H82       1.0  0.67994  0.6761999999999999  0.6771  1.0000
  H   H83       1.0  0.59157  0.69939  0.77514  1.0000
  H   H84       1.0  0.51864  0.45361  0.65304  1.0000
  H   H85       1.0  0.93677  0.69701  0.11882999999999999  1.0000
  H   H86       1.0  0.18034  0.6769199999999999  0.00078  1.0000
  H   H87       1.0  0.09136  0.77562  0.07583  1.0000
  H   H88       1.0  0.016890000000000006  0.65219  0.19902  1.0000
  H   H89       1.0  0.9362399999999999  0.8813799999999998  0.57814  1.0000
  H   H90       1.0  0.17798  0.9986599999999999  0.67564  1.0000
  H   H91       1.0  0.08856  0.9222699999999998  0.6972  1.0000
  H   H92       1.0  0.017529999999999997  0.8016099999999998  0.45433  1.0000
  H   H93       1.0  0.94485  0.42184999999999995  0.31142  1.0000
  H   H94       1.0  0.18152  0.3234  0.32284  1.0000
  H   H95       1.0  0.09069  0.30166  0.22325  1.0000
  H   H96       1.0  0.01819  0.54634  0.34841  1.0000
  H   H97       1.0  0.65535  0.22126999999999994  0.43841  1.0000
  H   H98       1.0  0.65599  0.21706  0.77866  1.0000
  H   H99       1.0  0.65575  0.56183  0.77869  1.0000
  H   H100      1.0  0.15623999999999996  0.7827599999999998  0.56126  1.0000
  H   H101      1.0  0.15614  0.7787299999999998  0.2169  1.0000
  H   H102      1.0  0.15668  0.43847  0.2173  1.0000
  H   H103      1.0  0.34388  0.78309  0.22071  1.0000
  H   H104      1.0  0.34438  0.7788  0.56115  1.0000
  H   H105      1.0  0.34427  0.4383999999999999  0.22134  1.0000
  H   H106      1.0  0.84367  0.22151000000000004  0.78269  1.0000
  H   H107      1.0  0.8431300000000002  0.21742  0.4382  1.0000
  H   H108      1.0  0.8432100000000001  0.56158  0.78254  1.0000
  H   H109      1.0  0.49998  0.42819  0.42796999999999996  1.0000
  H   H110      1.0  0.49852  0.0008100000000000228  0.57203  1.0000
  H   H111      1.0  0.50094  0.573  0.00071  1.0000
  H   H112      1.0  0.0007199999999999998  0.57214  0.57223  1.0000
  H   H113      1.0  0.0015199999999999997  0.0008300000000000062  0.4274  1.0000
  H   H114      1.0  0.0003300000000000002  0.4274  0.00015  1.0000
  H   H115      1.0  0.49895  0.57259  0.57293  1.0000
  H   H116      1.0  0.50144  0.9990399999999998  0.42607  1.0000
  H   H117      1.0  0.50018  0.4265699999999999  0.99969  1.0000
  H   H118      1.0  0.0  0.42874  0.42852  1.0000
  H   H119      1.0  0.99745  0.9995299999999999  0.57122  1.0000
  H   H120      1.0  0.99807  0.57203  0.9998  1.0000
  H   H121      1.0  0.3317  0.2482799999999999  0.41691999999999996  1.0000
  H   H122      1.0  0.54391  0.16157  0.19982  1.0000
  H   H123      1.0  0.33182  0.169  0.75211  1.0000
  H   H124      1.0  0.5424  0.037219999999999996  0.83716  1.0000
  H   H125      1.0  0.83302  0.41755  0.16978  1.0000
  H   H126      1.0  0.45499  0.8394599999999998  0.03907  1.0000
  H   H127      1.0  0.4550199999999999  0.9608200000000001  0.7997600000000001  1.0000
  H   H128      1.0  0.66798  0.41699  0.24765  1.0000
  H   H129      1.0  0.45691000000000004  0.20003  0.16235  1.0000
  H   H130      1.0  0.16737  0.24786  0.83038  1.0000
  H   H131      1.0  0.16743  0.16922999999999996  0.4176  1.0000
  H   H132      1.0  0.95481  0.7992499999999998  0.8394300000000001  1.0000
  H   H133      1.0  0.66805  0.75164  0.58256  1.0000
  H   H134      1.0  0.66813  0.8304899999999997  0.24811000000000002  1.0000
  H   H135      1.0  0.9562099999999999  0.1626  0.20074999999999998  1.0000
  H   H136      1.0  0.9561700000000001  0.03881000000000002  0.83872  1.0000
  H   H137      1.0  0.16684  0.58255  0.83034  1.0000
  H   H138      1.0  0.33196  0.58278  0.75225  1.0000
  H   H139      1.0  0.54369  0.7997299999999998  0.83914  1.0000
  H   H140      1.0  0.83241  0.75231  0.16945  1.0000
  H   H141      1.0  0.04456  0.8390799999999998  0.03897  1.0000
  H   H142      1.0  0.8318699999999999  0.83086  0.5831  1.0000
  H   H143      1.0  0.0437  0.9623400000000001  0.7993400000000002  1.0000
  H   H144      1.0  0.04459  0.20045999999999997  0.16206  1.0000
  C   C1        1.0  0.49906000000000006  0.23794999999999997  0.42507  1.0000
  C   C2        1.0  0.4382  0.26204  0.42188  1.0000
  C   C3        1.0  0.38011  0.23116999999999993  0.41895  1.0000
  C   C4        1.0  0.71507  0.32283  0.35573  1.0000
  C   C5        1.0  0.52524  0.2969999999999999  0.31902  1.0000
  C   C6        1.0  0.55088  0.23994999999999997  0.28436  1.0000
  C   C7        1.0  0.52534  0.2061  0.22796  1.0000
  C   C8        1.0  0.53924  0.38995  0.5571  1.0000
  C   C9        1.0  0.49938000000000005  0.18734000000000003  0.76236  1.0000
  C   C10       1.0  0.43848  0.16015  0.73834  1.0000
  C   C11       1.0  0.38026000000000004  0.18805999999999992  0.7691599999999998  1.0000
  C   C12       1.0  0.71325  0.03228999999999994  0.67662  1.0000
  C   C13       1.0  0.52363  0.021710000000000004  0.70234  1.0000
  C   C14       1.0  0.54958  0.04382000000000001  0.75883  1.0000
  C   C15       1.0  0.52378  0.02096999999999997  0.79295  1.0000
  C   C16       1.0  0.53957  0.16704999999999998  0.61012  1.0000
  C   C17       1.0  0.50114  0.5753399999999997  0.81676  1.0000
  C   C18       1.0  0.44287  0.57828  0.8481  1.0000
  C   C19       1.0  0.38356000000000007  0.58096  0.82294  1.0000
  C   C20       1.0  0.71468  0.6447  0.96796  1.0000
  C   C21       1.0  0.52436  0.6817299999999998  0.97767  1.0000
  C   C22       1.0  0.55133  0.7168  0.9559099999999999  1.0000
  C   C23       1.0  0.52499  0.77334  0.97985  1.0000
  C   C24       1.0  0.53945  0.44339  0.83381  1.0000
  C   C25       1.0  0.0017699999999999986  0.7585299999999998  0.57515  1.0000
  C   C26       1.0  0.9438000000000001  0.7301  0.57808  1.0000
  C   C27       1.0  0.8842  0.7580399999999998  0.58089  1.0000
  C   C28       1.0  0.21533  0.6768999999999997  0.64462  1.0000
  C   C29       1.0  0.024199999999999996  0.7031399999999998  0.68103  1.0000
  C   C30       1.0  0.05125  0.75948  0.71597  1.0000
  C   C31       1.0  0.024869999999999996  0.79206  0.7727100000000001  1.0000
  C   C32       1.0  0.039220000000000005  0.61053  0.44363  1.0000
  C   C33       1.0  0.001959999999999999  0.8167299999999997  0.24131  1.0000
  C   C34       1.0  0.9440000000000001  0.84798  0.26977  1.0000
  C   C35       1.0  0.8845  0.8228699999999998  0.24198  1.0000
  C   C36       1.0  0.21715  0.96773  0.32275  1.0000
  C   C37       1.0  0.027120000000000002  0.97879  0.29642  1.0000
  C   C38       1.0  0.05408999999999999  0.95757  0.23986  1.0000
  C   C39       1.0  0.027200000000000002  0.97909  0.20543000000000003  1.0000
  C   C40       1.0  0.03881  0.83305  0.3899  1.0000
  C   C41       1.0  0.0003899999999999993  0.42476  0.1874  1.0000
  C   C42       1.0  0.93966  0.42191  0.16048  1.0000
  C   C43       1.0  0.88132  0.41924  0.18864  1.0000
  C   C44       1.0  0.21575  0.3553699999999998  0.03226  1.0000
  C   C45       1.0  0.025790000000000004  0.31806  0.02115  1.0000
  C   C46       1.0  0.05286  0.2827  0.04176  1.0000
  C   C47       1.0  0.02657  0.22621999999999995  0.01992  1.0000
  C   C48       1.0  0.03848  0.5566399999999998  0.16768  1.0000
  C   C49       1.0  0.49842  0.7587199999999997  0.18293  1.0000
  C   C50       1.0  0.5565899999999999  0.7304299999999998  0.15176  1.0000
  C   C51       1.0  0.6161  0.7582  0.17713  1.0000
  C   C52       1.0  0.28411  0.6761799999999999  0.03135  1.0000
  C   C53       1.0  0.47254  0.70276  0.02078  1.0000
  C   C54       1.0  0.44619000000000003  0.75947  0.04312  1.0000
  C   C55       1.0  0.47301  0.79478  0.02207  1.0000
  C   C56       1.0  0.46016  0.61017  0.16694  1.0000
  C   C57       1.0  0.49855000000000005  0.8165  0.57495  1.0000
  C   C58       1.0  0.55651  0.8478999999999999  0.57819  1.0000
  C   C59       1.0  0.61597  0.82264  0.58092  1.0000
  C   C60       1.0  0.28236  0.96733  0.64391  1.0000
  C   C61       1.0  0.47303999999999996  0.9780999999999999  0.68094  1.0000
  C   C62       1.0  0.44754  0.9552899999999998  0.71553  1.0000
  C   C63       1.0  0.47350999999999993  0.9775799999999998  0.77172  1.0000
  C   C64       1.0  0.46054  0.83327  0.44296  1.0000
  C   C65       1.0  0.50062  0.425  0.23749999999999996  1.0000
  C   C66       1.0  0.56131  0.42188  0.26152  1.0000
  C   C67       1.0  0.61968  0.4189599999999999  0.23062000000000002  1.0000
  C   C68       1.0  0.28558  0.35568  0.32307  1.0000
  C   C69       1.0  0.47525  0.31908  0.29739  1.0000
  C   C70       1.0  0.44971  0.2847  0.24073  1.0000
  C   C71       1.0  0.4753800000000001  0.22796999999999998  0.20663  1.0000
  C   C72       1.0  0.46028  0.5569499999999998  0.39000999999999997  1.0000
  C   C73       1.0  1.3814097909403153e-18  0.23757999999999999  0.8126  1.0000
  C   C74       1.0  0.06086  0.26161  0.83961  1.0000
  C   C75       1.0  0.11893000000000001  0.2307699999999999  0.81152  1.0000
  C   C76       1.0  0.78469  0.32304000000000005  0.96783  1.0000
  C   C77       1.0  0.97438  0.29682  0.97891  1.0000
  C   C78       1.0  0.94704  0.24069  0.95816  1.0000
  C   C79       1.0  0.97309  0.2061  0.97992  1.0000
  C   C80       1.0  0.96162  0.39009  0.83284  1.0000
  C   C81       1.0  0.9997700000000002  0.18710999999999994  0.42465  1.0000
  C   C82       1.0  0.06076000000000001  0.16007  0.42187  1.0000
  C   C83       1.0  0.11894999999999999  0.18815  0.4192  1.0000
  C   C84       1.0  0.78588  0.03234999999999997  0.35544  1.0000
  C   C85       1.0  0.9749100000000002  0.02098999999999999  0.31796  1.0000
  C   C86       1.0  0.9471400000000001  0.04149  0.28284  1.0000
  C   C87       1.0  0.97332  0.019409999999999997  0.22607  1.0000
  C   C88       1.0  0.96119  0.16718000000000002  0.55634  1.0000
  C   C89       1.0  0.99783  0.5753199999999998  0.75841  1.0000
  C   C90       1.0  0.05609  0.57836  0.73006  1.0000
  C   C91       1.0  0.11539  0.5809299999999998  0.75784  1.0000
  C   C92       1.0  0.78397  0.6444999999999997  0.67661  1.0000
  C   C93       1.0  0.97213  0.6815599999999999  0.70231  1.0000
  C   C94       1.0  0.94575  0.7159  0.75924  1.0000
  C   C95       1.0  0.9727700000000002  0.77173  0.79453  1.0000
  C   C96       1.0  0.9609700000000001  0.44282  0.60982  1.0000
  C   C97       1.0  0.50065  0.7621799999999997  0.57479  1.0000
  C   C98       1.0  0.56151  0.7379899999999998  0.5778  1.0000
  C   C99       1.0  0.61961  0.76884  0.58077  1.0000
  C   C100      1.0  0.28478  0.6772599999999998  0.64444  1.0000
  C   C101      1.0  0.47592  0.7040899999999998  0.68157  1.0000
  C   C102      1.0  0.44907999999999987  0.7606399999999998  0.71697  1.0000
  C   C103      1.0  0.47465000000000007  0.7929299999999999  0.77345  1.0000
  C   C104      1.0  0.46078  0.60998  0.44332  1.0000
  C   C105      1.0  0.5005  0.81277  0.23719  1.0000
  C   C106      1.0  0.56141  0.8397  0.26151  1.0000
  C   C107      1.0  0.61966  0.8116999999999999  0.23084000000000002  1.0000
  C   C108      1.0  0.28658  0.968  0.32317  1.0000
  C   C109      1.0  0.47541  0.97885  0.29646  1.0000
  C   C110      1.0  0.4479099999999999  0.95825  0.24083999999999997  1.0000
  C   C111      1.0  0.47439  0.98018  0.20606  1.0000
  C   C112      1.0  0.46085000000000004  0.8327299999999997  0.38944  1.0000
  C   C113      1.0  0.4988699999999999  0.4246  0.18313  1.0000
  C   C114      1.0  0.55715  0.42166999999999993  0.15181  1.0000
  C   C115      1.0  0.61646  0.41905  0.17701  1.0000
  C   C116      1.0  0.28519  0.35523999999999994  0.03181  1.0000
  C   C117      1.0  0.47365000000000007  0.3173  0.0211  1.0000
  C   C118      1.0  0.44598  0.28197  0.04208  1.0000
  C   C119      1.0  0.4727  0.22565999999999994  0.02029  1.0000
  C   C120      1.0  0.46078  0.55665  0.16652  1.0000
  C   C121      1.0  0.9977200000000002  0.2413299999999999  0.42461999999999994  1.0000
  C   C122      1.0  0.05573999999999999  0.26969  0.42169  1.0000
  C   C123      1.0  0.11531000000000001  0.24182999999999993  0.41911999999999994  1.0000
  C   C124      1.0  0.7845400000000001  0.3233  0.35558  1.0000
  C   C125      1.0  0.97451  0.2979799999999999  0.31953  1.0000
  C   C126      1.0  0.94857  0.24115  0.28525  1.0000
  C   C127      1.0  0.9749100000000002  0.20701999999999995  0.22861  1.0000
  C   C128      1.0  0.96056  0.38954  0.55667  1.0000
  C   C129      1.0  0.9978500000000001  0.18353  0.75845  1.0000
  C   C130      1.0  0.05576  0.15212  0.7301  1.0000
  C   C131      1.0  0.11526000000000002  0.17716000000000004  0.75791  1.0000
  C   C132      1.0  0.78271  0.032599999999999935  0.67708  1.0000
  C   C133      1.0  0.97302  0.02199000000000004  0.70281  1.0000
  C   C134      1.0  0.9478500000000001  0.04466000000000006  0.7602300000000001  1.0000
  C   C135      1.0  0.97434  0.022190000000000012  0.79391  1.0000
  C   C136      1.0  0.96074  0.16699  0.60951  1.0000
  C   C137      1.0  0.99948  0.5750799999999999  0.81246  1.0000
  C   C138      1.0  0.06017  0.5779399999999999  0.83945  1.0000
  C   C139      1.0  0.11854000000000002  0.5808  0.81144  1.0000
  C   C140      1.0  0.7841300000000002  0.6445399999999998  0.96755  1.0000
  C   C141      1.0  0.9760100000000002  0.6809699999999999  0.97728  1.0000
  C   C142      1.0  0.94971  0.71617  0.95597  1.0000
  C   C143      1.0  0.97557  0.7728999999999999  0.98011  1.0000
  C   C144      1.0  0.96104  0.44338  0.8328200000000001  1.0000
  C   C145      1.0  0.50149  0.24129999999999988  0.8166899999999999  1.0000
  C   C146      1.0  0.4433500000000001  0.26962000000000014  0.8478900000000001  1.0000
  C   C147      1.0  0.38383  0.24173999999999995  0.82268  1.0000
  C   C148      1.0  0.71524  0.32342999999999994  0.9685300000000001  1.0000
  C   C149      1.0  0.52634  0.29637  0.97888  1.0000
  C   C150      1.0  0.55384  0.24032999999999996  0.9579999999999999  1.0000
  C   C151      1.0  0.52694  0.20562000000000002  0.97982  1.0000
  C   C152      1.0  0.53955  0.3898499999999999  0.83336  1.0000
  C   C153      1.0  0.50116  0.18355  0.42472  1.0000
  C   C154      1.0  0.44321  0.1523  0.42184  1.0000
  C   C155      1.0  0.38373  0.17753999999999998  0.41911999999999994  1.0000
  C   C156      1.0  0.71646  0.032350000000000025  0.35540000000000005  1.0000
  C   C157      1.0  0.52734  0.021209999999999993  0.31717  1.0000
  C   C158      1.0  0.5546  0.04223  0.2817  1.0000
  C   C159      1.0  0.52822  0.020440000000000007  0.22562  1.0000
  C   C160      1.0  0.53891  0.16682  0.55677  1.0000
  C   C161      1.0  0.49939  0.5752499999999999  0.7625499999999998  1.0000
  C   C162      1.0  0.43869  0.57821  0.73846  1.0000
  C   C163      1.0  0.38031  0.58099  0.76931  1.0000
  C   C164      1.0  0.71451  0.64429  0.67656  1.0000
  C   C165      1.0  0.52668  0.6819399999999999  0.70247  1.0000
  C   C166      1.0  0.5526  0.7161399999999998  0.75897  1.0000
  C   C167      1.0  0.52601  0.7722699999999998  0.79455  1.0000
  C   C168      1.0  0.53927  0.44298999999999994  0.61042  1.0000
  C   C169      1.0  0.9997800000000001  0.76255  0.18727  1.0000
  C   C170      1.0  0.93894  0.7385  0.16024  1.0000
  C   C171      1.0  0.88086  0.76933  0.18831000000000003  1.0000
  C   C172      1.0  0.21465  0.67647  0.03208  1.0000
  C   C173      1.0  0.026440000000000005  0.7022299999999998  0.02048  1.0000
  C   C174      1.0  0.05264  0.75902  0.04279  1.0000
  C   C175      1.0  0.02664  0.79434  0.02199  1.0000
  C   C176      1.0  0.03811  0.60985  0.16748  1.0000
  C   C177      1.0  0.99949  0.81264  0.57493  1.0000
  C   C178      1.0  0.93851  0.8398399999999998  0.57812  1.0000
  C   C179      1.0  0.88041  0.8118299999999998  0.58106  1.0000
  C   C180      1.0  0.21290000000000003  0.96714  0.64371  1.0000
  C   C181      1.0  0.023740000000000004  0.9784100000000001  0.68043  1.0000
  C   C182      1.0  0.050140000000000004  0.95612  0.71459  1.0000
  C   C183      1.0  0.02471  0.97879  0.77158  1.0000
  C   C184      1.0  0.03869999999999999  0.8329999999999999  0.44312  1.0000
  C   C185      1.0  0.0021099999999999986  0.42488999999999993  0.24163  1.0000
  C   C186      1.0  0.94389  0.4219  0.27006  1.0000
  C   C187      1.0  0.8845500000000001  0.41920999999999997  0.24228  1.0000
  C   C188      1.0  0.21612000000000003  0.35545  0.32304  1.0000
  C   C189      1.0  0.025899999999999996  0.3195  0.29756  1.0000
  C   C190      1.0  0.05195999999999999  0.2849499999999999  0.2405  1.0000
  C   C191      1.0  0.025790000000000004  0.22851999999999995  0.20665  1.0000
  C   C192      1.0  0.03935  0.5572699999999998  0.39044999999999996  1.0000
  C   C193      1.0  0.60199  0.21709000000000003  0.43271000000000004  1.0000
  C   C194      1.0  0.60248  0.21557999999999997  0.7829399999999999  1.0000
  C   C195      1.0  0.60227  0.56752  0.7829899999999999  1.0000
  C   C196      1.0  0.10272  0.7842799999999999  0.56711  1.0000
  C   C197      1.0  0.10278  0.7830599999999995  0.2154  1.0000
  C   C198      1.0  0.10324000000000001  0.43261  0.2157  1.0000
  C   C199      1.0  0.3973900000000001  0.78459  0.21647000000000002  1.0000
  C   C200      1.0  0.3977399999999999  0.78294  0.56691  1.0000
  C   C201      1.0  0.39775  0.4326699999999999  0.21701  1.0000
  C   C202      1.0  0.8970200000000002  0.21716000000000005  0.78425  1.0000
  C   C203      1.0  0.89666  0.21573  0.43238  1.0000
  C   C204      1.0  0.89665  0.56741  0.78416  1.0000
  C   C205      1.0  0.749  0.32579  0.43465  1.0000
  C   C206      1.0  0.74865  0.10885  0.67422  1.0000
  C   C207      1.0  0.74976  0.5659199999999999  0.8913  1.0000
  C   C208      1.0  0.2509000000000001  0.6744899999999999  0.5656  1.0000
  C   C209      1.0  0.25118  0.8911  0.32489  1.0000
  C   C210      1.0  0.25013  0.43375999999999987  0.10877  1.0000
  C   C211      1.0  0.24878  0.6750599999999999  0.10869  1.0000
  C   C212      1.0  0.24896000000000001  0.8910699999999998  0.56493  1.0000
  C   C213      1.0  0.2511  0.4345899999999999  0.32564  1.0000
  C   C214      1.0  0.75076  0.32474999999999987  0.89133  1.0000
  C   C215      1.0  0.75015  0.10898999999999999  0.43392  1.0000
  C   C216      1.0  0.74896  0.5657299999999998  0.67472  1.0000
  C   C217      1.0  0.50007  0.3867999999999999  0.38671  1.0000
  C   C218      1.0  0.49831  0.0006000000000000786  0.61329  1.0000
  C   C219      1.0  0.4996900000000001  0.61406  7e-05  1.0000
  C   C220      1.0  0.9995800000000001  0.6136999999999998  0.61333  1.0000
  C   C221      1.0  0.00144  0.000589999999999968  0.38591999999999993  1.0000
  C   C222      1.0  0.0003199999999999995  0.38601  0.00017  1.0000
  C   C223      1.0  0.50012  0.61423  0.61389  1.0000
  C   C224      1.0  0.50146  0.99935  0.38487  1.0000
  C   C225      1.0  0.5002  0.3852  0.99975  1.0000
  C   C226      1.0  3.9999999999999414e-05  0.3873799999999999  0.3872  1.0000
  C   C227      1.0  0.9976900000000001  0.99969  0.61266  1.0000
  C   C228      1.0  0.9993800000000002  0.6131899999999999  0.99933  1.0000
  C   C229      1.0  0.59074  0.45536  0.54486  1.0000
  C   C230      1.0  0.59061  0.08967000000000001  0.54436  1.0000
  C   C231      1.0  0.59086  0.4547  0.91012  1.0000
  C   C232      1.0  0.09162  0.54551  0.45481  1.0000
  C   C233      1.0  0.09103  0.9097299999999998  0.45434  1.0000
  C   C234      1.0  0.09069  0.54494  0.09033000000000001  1.0000
  C   C235      1.0  0.40914  0.5451  0.09021  1.0000
  C   C236      1.0  0.40929  0.9102199999999998  0.45457  1.0000
  C   C237      1.0  0.40902000000000005  0.54472  0.45575  1.0000
  C   C238      1.0  0.9088499999999999  0.4547599999999999  0.91002  1.0000
  C   C239      1.0  0.90851  0.09055  0.54499  1.0000
  C   C240      1.0  0.90852  0.4547599999999999  0.54565  1.0000
  Br  Br1       1.0  0.30176  0.58339  0.86412  1.0000
  Br  Br2       1.0  0.56345  0.8268599999999998  0.9567499999999999  1.0000
  Br  Br3       1.0  0.8028799999999998  0.7191799999999998  0.58337  1.0000
  Br  Br4       1.0  0.06348  0.86811  0.82564  1.0000
  Br  Br5       1.0  0.80316  0.86406  0.2808  1.0000
  Br  Br6       1.0  0.06767  0.95419  0.12969  1.0000
  Br  Br7       1.0  0.06711  0.17568  0.044239999999999995  1.0000
  Br  Br8       1.0  0.69771  0.71952  0.13616  1.0000
  Br  Br9       1.0  0.69736  0.8639499999999998  0.58373  1.0000
  Br  Br10      1.0  0.93219  0.13103  0.95561  1.0000
  Br  Br11      1.0  0.9322500000000001  0.04399  0.17609  1.0000
  Br  Br12      1.0  0.1972  0.58338  0.7191700000000001  1.0000
  Br  Br13      1.0  0.4357  0.8689  0.82727  1.0000
  Br  Br14      1.0  0.43372000000000005  0.95565  0.13141  1.0000
  Br  Br15      1.0  0.69827  0.4168  0.13591  1.0000
  Br  Br16      1.0  0.43172  0.17522999999999997  0.04543  1.0000
  Br  Br17      1.0  0.19670999999999997  0.28062  0.41676  1.0000
  Br  Br18      1.0  0.19658  0.13584  0.7192600000000001  1.0000
  Br  Br19      1.0  0.93768  0.8266199999999999  0.9578500000000001  1.0000
  Br  Br20      1.0  0.30226  0.28053  0.8637500000000001  1.0000
  Br  Br21      1.0  0.56756  0.13030999999999993  0.95456  1.0000
  Br  Br22      1.0  0.30241  0.13633  0.41675  1.0000
  Br  Br23      1.0  0.56928  0.04493  0.17467  1.0000
  Br  Br24      1.0  0.8027900000000001  0.41672  0.28102  1.0000
  N   N1        1.0  0.56433  0.25821999999999995  0.43021  1.0000
  N   N2        1.0  0.69296  0.32441  0.40613  1.0000
  N   N3        1.0  0.54015  0.34121  0.37599999999999995  1.0000
  N   N4        1.0  0.57201  0.39824999999999994  0.51576  1.0000
  N   N5        1.0  0.56477  0.17208999999999997  0.74195  1.0000
  N   N6        1.0  0.69216  0.08096999999999994  0.67487  1.0000
  N   N7        1.0  0.53882  0.03499  0.65822  1.0000
  N   N8        1.0  0.5725  0.1179  0.60177  1.0000
  N   N9        1.0  0.56724  0.5705199999999999  0.82876  1.0000
  N   N10       1.0  0.69342  0.5945999999999998  0.9192899999999999  1.0000
  N   N11       1.0  0.54075  0.62511  0.9654300000000001  1.0000
  N   N12       1.0  0.57211  0.48431  0.88274  1.0000
  N   N13       1.0  0.06804  0.74167  0.57037  1.0000
  N   N14       1.0  0.19438000000000005  0.6752299999999999  0.59441  1.0000
  N   N15       1.0  0.040790000000000014  0.65892  0.62431  1.0000
  N   N16       1.0  0.07256  0.60259  0.48424  1.0000
  N   N17       1.0  0.0681  0.82881  0.25805  1.0000
  N   N18       1.0  0.19515  0.9186999999999999  0.3238  1.0000
  N   N19       1.0  0.04312  0.9665399999999997  0.3407  1.0000
  N   N20       1.0  0.07211  0.88202  0.39749  1.0000
  N   N21       1.0  0.06586  0.42946999999999996  0.17181  1.0000
  N   N22       1.0  0.19391  0.4054299999999999  0.08132  1.0000
  N   N23       1.0  0.04129  0.37511  0.03405  1.0000
  N   N24       1.0  0.07194  0.51571  0.11848  1.0000
  N   N25       1.0  0.4321400000000001  0.7418899999999999  0.1708  1.0000
  N   N26       1.0  0.30518  0.67541  0.0803  1.0000
  N   N27       1.0  0.45766  0.65859  0.03395  1.0000
  N   N28       1.0  0.42719  0.60239  0.11831000000000001  1.0000
  N   N29       1.0  0.43247  0.82864  0.56997  1.0000
  N   N30       1.0  0.30476  0.91884  0.5937  1.0000
  N   N31       1.0  0.4577  0.96573  0.62417  1.0000
  N   N32       1.0  0.4277  0.88264  0.48403  1.0000
  N   N33       1.0  0.43519  0.4301699999999999  0.25798  1.0000
  N   N34       1.0  0.30731  0.40614  0.32476  1.0000
  N   N35       1.0  0.46013  0.37630999999999987  0.34152  1.0000
  N   N36       1.0  0.42736  0.5158  0.39834  1.0000
  N   N37       1.0  0.93475  0.25786  0.82808  1.0000
  N   N38       1.0  0.80692  0.3239  0.91863  1.0000
  N   N39       1.0  0.9592  0.34102  0.9662  1.0000
  N   N40       1.0  0.9284300000000001  0.3977999999999999  0.88209  1.0000
  N   N41       1.0  0.9343099999999999  0.17175000000000004  0.4294  1.0000
  N   N42       1.0  0.80679  0.08129  0.40547  1.0000
  N   N43       1.0  0.9595600000000001  0.034120000000000025  0.37512000000000006  1.0000
  N   N44       1.0  0.92786  0.11842999999999997  0.51564  1.0000
  N   N45       1.0  0.93179  0.5705399999999999  0.74156  1.0000
  N   N46       1.0  0.80529  0.5944799999999999  0.67558  1.0000
  N   N47       1.0  0.9572700000000001  0.6246099999999999  0.65809  1.0000
  N   N48       1.0  0.92777  0.4840099999999999  0.60236  1.0000
  N   N49       1.0  0.43535  0.74195  0.56979  1.0000
  N   N50       1.0  0.30692  0.6757  0.59406  1.0000
  N   N51       1.0  0.45999  0.6599699999999998  0.62494  1.0000
  N   N52       1.0  0.4281400000000001  0.6017699999999999  0.48479999999999995  1.0000
  N   N53       1.0  0.43507999999999997  0.8282499999999998  0.2574  1.0000
  N   N54       1.0  0.30767  0.91907  0.32444  1.0000
  N   N55       1.0  0.45999  0.9656699999999998  0.34048  1.0000
  N   N56       1.0  0.42819  0.8818500000000001  0.3973  1.0000
  N   N57       1.0  0.43276000000000003  0.42926999999999993  0.17103  1.0000
  N   N58       1.0  0.30646  0.40519  0.08064  1.0000
  N   N59       1.0  0.45797000000000004  0.37409  0.03361  1.0000
  N   N60       1.0  0.42826999999999993  0.51554  0.11754000000000002  1.0000
  N   N61       1.0  0.9315400000000001  0.2584  0.42949999999999994  1.0000
  N   N62       1.0  0.8055100000000001  0.3250899999999998  0.40584999999999993  1.0000
  N   N63       1.0  0.95887  0.3422899999999999  0.37657  1.0000
  N   N64       1.0  0.92711  0.39761  0.51618  1.0000
  N   N65       1.0  0.93177  0.17162999999999992  0.74153  1.0000
  N   N66       1.0  0.8047  0.08139  0.67555  1.0000
  N   N67       1.0  0.95722  0.034469999999999994  0.65852  1.0000
  N   N68       1.0  0.92719  0.11810000000000001  0.60185  1.0000
  N   N69       1.0  0.9339900000000001  0.57016  0.82787  1.0000
  N   N70       1.0  0.8059800000000001  0.5943099999999999  0.9186899999999999  1.0000
  N   N71       1.0  0.95972  0.62409  0.96462  1.0000
  N   N72       1.0  0.92743  0.48417  0.882  1.0000
  N   N73       1.0  0.56776  0.25812  0.82886  1.0000
  N   N74       1.0  0.69431  0.32441  0.91965  1.0000
  N   N75       1.0  0.54227  0.3405599999999999  0.96607  1.0000
  N   N76       1.0  0.57234  0.3975  0.88205  1.0000
  N   N77       1.0  0.56725  0.17121  0.42934  1.0000
  N   N78       1.0  0.69424  0.0812  0.40542999999999996  1.0000
  N   N79       1.0  0.54292  0.03355000000000001  0.37375  1.0000
  N   N80       1.0  0.57139  0.11743  0.51524  1.0000
  N   N81       1.0  0.56483  0.57034  0.74217  1.0000
  N   N82       1.0  0.69276  0.59406  0.67536  1.0000
  N   N83       1.0  0.5412  0.62467  0.65834  1.0000
  N   N84       1.0  0.57205  0.48427999999999993  0.6022  1.0000
  N   N85       1.0  0.065  0.7422  0.17181  1.0000
  N   N86       1.0  0.19256  0.6757199999999999  0.08136  1.0000
  N   N87       1.0  0.04043  0.65804  0.03359  1.0000
  N   N88       1.0  0.07135  0.60196  0.11815999999999999  1.0000
  N   N89       1.0  0.06482  0.8279299999999999  0.56981  1.0000
  N   N90       1.0  0.19212  0.91846  0.59336  1.0000
  N   N91       1.0  0.03854  0.9652899999999999  0.62307  1.0000
  N   N92       1.0  0.07199  0.8818499999999998  0.48373  1.0000
  N   N93       1.0  0.06816  0.42988  0.25851  1.0000
  N   N94       1.0  0.19477  0.40569  0.32456  1.0000
  N   N95       1.0  0.04133  0.37641  0.34177  1.0000
  N   N96       1.0  0.07277  0.51622  0.398  1.0000
  N   N97       1.0  0.74886  0.32749  0.48992  1.0000
  N   N98       1.0  0.74916  0.1624  0.67237  1.0000
  N   N99       1.0  0.74974  0.51061  0.8378199999999999  1.0000
  N   N100      1.0  0.25109  0.6726999999999997  0.51028  1.0000
  N   N101      1.0  0.25078  0.83755  0.32682  1.0000
  N   N102      1.0  0.25023  0.48914999999999986  0.16222  1.0000
  N   N103      1.0  0.24932  0.6739199999999999  0.1625  1.0000
  N   N104      1.0  0.25012  0.83749  0.50981  1.0000
  N   N105      1.0  0.2509  0.49008  0.32762  1.0000
  N   N106      1.0  0.75037  0.32634  0.8377200000000001  1.0000
  N   N107      1.0  0.74948  0.16236000000000003  0.4893700000000001  1.0000
  N   N108      1.0  0.74905  0.51031  0.67286  1.0000
  N   N109      1.0  0.62583  0.48295999999999994  0.51736  1.0000
  N   N110      1.0  0.62585  0.03509999999999999  0.51672  1.0000
  N   N111      1.0  0.62591  0.48154999999999987  0.9643  1.0000
  N   N112      1.0  0.12726  0.5186399999999999  0.48192999999999997  1.0000
  N   N113      1.0  0.12694  0.9639599999999998  0.4809  1.0000
  N   N114      1.0  0.12678  0.51756  0.0358  1.0000
  N   N115      1.0  0.37421  0.51825  0.03597  1.0000
  N   N116      1.0  0.37415  0.96482  0.48164  1.0000
  N   N117      1.0  0.37418  0.51709  0.4834  1.0000
  N   N118      1.0  0.87298  0.48156000000000004  0.9646000000000001  1.0000
  N   N119      1.0  0.87282  0.036299999999999985  0.51759  1.0000
  N   N120      1.0  0.87274  0.48209  0.5191  1.0000
  O   O1        1.0  0.69369  0.3281599999999999  0.51289  1.0000
  O   O2        1.0  0.63964  0.4521899999999998  0.46373999999999993  1.0000
  O   O3        1.0  0.69432  0.18385000000000007  0.67074  1.0000
  O   O4        1.0  0.63996  0.012860000000000007  0.54774  1.0000
  O   O5        1.0  0.6945800000000001  0.48843999999999993  0.8164500000000001  1.0000
  O   O6        1.0  0.63988  0.53503  0.98683  1.0000
  O   O7        1.0  0.19598999999999997  0.67241  0.48852000000000007  1.0000
  O   O8        1.0  0.14145  0.55041  0.53507  1.0000
  O   O9        1.0  0.19549  0.8155199999999999  0.32702  1.0000
  O   O10       1.0  0.14122  0.9859  0.44919  1.0000
  O   O11       1.0  0.19514  0.51179  0.18436999999999998  1.0000
  O   O12       1.0  0.14125  0.46419  0.01404  1.0000
  O   O13       1.0  0.30475  0.67469  0.18404  1.0000
  O   O14       1.0  0.36014  0.5501  0.014540000000000003  1.0000
  O   O15       1.0  0.30574000000000007  0.81598  0.48775  1.0000
  O   O16       1.0  0.36009  0.9874299999999999  0.53519  1.0000
  O   O17       1.0  0.30585  0.51356  0.32939  1.0000
  O   O18       1.0  0.36022  0.4636699999999999  0.45219  1.0000
  O   O19       1.0  0.8052400000000001  0.32732  0.81532  1.0000
  O   O20       1.0  0.85888  0.4501  0.98679  1.0000
  O   O21       1.0  0.80439  0.18421  0.51161  1.0000
  O   O22       1.0  0.85855  0.015259999999999982  0.46449999999999997  1.0000
  O   O23       1.0  0.8042499999999999  0.48854  0.67291  1.0000
  O   O24       1.0  0.85855  0.5354899999999999  0.55063  1.0000
  O   O25       1.0  0.30631  0.67205  0.48742  1.0000
  O   O26       1.0  0.36057  0.54783  0.53712  1.0000
  O   O27       1.0  0.30579  0.8160099999999998  0.3278  1.0000
  O   O28       1.0  0.36036  0.9867900000000001  0.45019000000000003  1.0000
  O   O29       1.0  0.30541  0.51125  0.18359  1.0000
  O   O30       1.0  0.36051  0.4646699999999999  0.01306  1.0000
  O   O31       1.0  0.8040000000000002  0.32764999999999994  0.51156  1.0000
  O   O32       1.0  0.8584699999999998  0.45107999999999987  0.46594  1.0000
  O   O33       1.0  0.80457  0.18462999999999993  0.67288  1.0000
  O   O34       1.0  0.85871  0.012990000000000019  0.54796  1.0000
  O   O35       1.0  0.80486  0.48813000000000006  0.8155800000000001  1.0000
  O   O36       1.0  0.8585400000000001  0.53496  0.98704  1.0000
  O   O37       1.0  0.69498  0.3262899999999999  0.81647  1.0000
  O   O38       1.0  0.63973  0.44998999999999995  0.9861500000000001  1.0000
  O   O39       1.0  0.69407  0.18391  0.51184  1.0000
  O   O40       1.0  0.6396899999999999  0.01283000000000005  0.46304000000000006  1.0000
  O   O41       1.0  0.69396  0.4872899999999999  0.67165  1.0000
  O   O42       1.0  0.63982  0.53637  0.54864  1.0000
  O   O43       1.0  0.19452  0.67271  0.18488000000000002  1.0000
  O   O44       1.0  0.14115  0.54835  0.012999999999999998  1.0000
  O   O45       1.0  0.19541  0.8152499999999998  0.48745999999999995  1.0000
  O   O46       1.0  0.14125  0.98635  0.53402  1.0000
  O   O47       1.0  0.19561  0.5115  0.32711  1.0000
  O   O48       1.0  0.14138  0.46515  0.45125  1.0000
