data_image0
_chemical_formula_structural       Zn4Co4H144C212N32O32
_chemical_formula_sum              "Zn4 Co4 H144 C212 N32 O32"
_cell_length_a       14.20206
_cell_length_b       20.447519999999997
_cell_length_c       21.4273
_cell_angle_alpha    109.24019999999999
_cell_angle_beta     109.26174
_cell_angle_gamma    89.8913

_symmetry_space_group_name_H-M    'P 1'
_symmetry_Int_Tables_number       1

loop_
  _symmetry_equiv_pos_as_xyz
  'x,y,z'

loop_
  _atom_site_type_symbol
  _atom_site_label
  _atom_site_symmetry_multiplicity
  _atom_site_fract_x
  _atom_site_fract_y
  _atom_site_fract_z
  _atom_site_occupancy
  Zn  Zn1       1.0  0.61839  0.11754999999999999  0.16823  1.0000
  Zn  Zn2       1.0  0.38115  0.83778  0.44719  1.0000
  Zn  Zn3       1.0  0.9346300000000001  0.66215  0.55356  1.0000
  Zn  Zn4       1.0  0.38165  0.8825099999999998  0.83176  1.0000
  Co  Co1       1.0  0.45164  0.3830799999999999  0.83145  1.0000
  Co  Co2       1.0  0.6191300000000002  0.16417  0.55385  1.0000
  Co  Co3       1.0  0.06615000000000004  0.33604999999999996  0.44589000000000006  1.0000
  Co  Co4       1.0  0.54829  0.61648  0.16821  1.0000
  H   H1        1.0  0.41348  0.6340999999999999  0.85061  1.0000
  H   H2        1.0  0.37426  0.6818399999999999  0.66352  1.0000
  H   H3        1.0  0.38788  0.55834  0.59975  1.0000
  H   H4        1.0  0.41274  0.47191  0.66188  1.0000
  H   H5        1.0  0.4047  0.3231  0.94027  1.0000
  H   H6        1.0  0.207  0.47813  0.96743  1.0000
  H   H7        1.0  0.3005700000000001  0.4916799999999999  0.87589  1.0000
  H   H8        1.0  0.43088  0.35488999999999987  0.06653  1.0000
  H   H9        1.0  0.4011  0.32665  0.16185  1.0000
  H   H10       1.0  0.0928  0.3642  0.08634  1.0000
  H   H11       1.0  0.12112000000000005  0.38782000000000005  0.9872600000000001  1.0000
  H   H12       1.0  0.7710499999999999  0.21900999999999998  0.15324  1.0000
  H   H13       1.0  0.95117  0.05297  0.12452  1.0000
  H   H14       1.0  0.76396  0.003799999999999999  0.11938  1.0000
  H   H15       1.0  0.9749500000000001  0.25609  0.25915  1.0000
  H   H16       1.0  0.12186  0.33765  0.28444  1.0000
  H   H17       1.0  0.12128  0.23418999999999998  0.07352  1.0000
  H   H18       1.0  0.97604  0.15072  0.0495  1.0000
  H   H19       1.0  0.38668000000000013  0.67712  0.35696000000000006  1.0000
  H   H20       1.0  0.07525  0.6450399999999997  0.32574  1.0000
  H   H21       1.0  0.14883  0.7860199999999998  0.3959  1.0000
  H   H22       1.0  0.38856  0.5681  0.31542  1.0000
  H   H23       1.0  0.38499  0.4425199999999999  0.26285  1.0000
  H   H24       1.0  0.0661  0.41487  0.21833  1.0000
  H   H25       1.0  0.06869  0.54063  0.27155  1.0000
  H   H26       1.0  0.4544599999999999  0.23236999999999994  0.45803999999999995  1.0000
  H   H27       1.0  0.6052  0.16989  0.30944  1.0000
  H   H28       1.0  0.69297  0.12168999999999999  0.42  1.0000
  H   H29       1.0  0.4364000000000001  0.3312399999999999  0.41585  1.0000
  H   H30       1.0  0.3189  0.38634999999999986  0.34335  1.0000
  H   H31       1.0  0.31334  0.21961  0.15528  1.0000
  H   H32       1.0  0.43115  0.16296  0.22880000000000003  1.0000
  H   H33       1.0  0.60117  0.95554  0.48854  1.0000
  H   H34       1.0  0.7703800000000002  0.7809  0.47392000000000006  1.0000
  H   H35       1.0  0.9301200000000001  0.86218  0.52359  1.0000
  H   H36       1.0  0.92319  0.9909999999999999  0.55683  1.0000
  H   H37       1.0  0.56005  0.86337  0.14826  1.0000
  H   H38       1.0  0.70741  0.8164199999999999  0.33589  1.0000
  H   H39       1.0  0.7856800000000002  0.9396399999999998  0.39861  1.0000
  H   H40       1.0  0.7488999999999999  0.025489999999999992  0.33564  1.0000
  H   H41       1.0  0.46254  0.17682999999999996  0.05963000000000001  1.0000
  H   H42       1.0  0.23896000000000003  0.02019  0.0299  1.0000
  H   H43       1.0  0.42364  0.006920000000000001  0.12215  1.0000
  H   H44       1.0  0.36312  0.14325  0.93158  1.0000
  H   H45       1.0  0.23838999999999994  0.17255999999999996  0.83685  1.0000
  H   H46       1.0  0.0059400000000000164  0.13671999999999995  0.91357  1.0000
  H   H47       1.0  0.13322  0.11233999999999997  0.01227  1.0000
  H   H48       1.0  0.6178999999999999  0.28246999999999994  0.8438799999999999  1.0000
  H   H49       1.0  0.8285400000000003  0.4496399999999999  0.87907  1.0000
  H   H50       1.0  0.64585  0.4987  0.8831000000000001  1.0000
  H   H51       1.0  0.71618  0.24533  0.74133  1.0000
  H   H52       1.0  0.83707  0.16275999999999996  0.71572  1.0000
  H   H53       1.0  0.048180000000000056  0.2668  0.9256500000000001  1.0000
  H   H54       1.0  0.92772  0.35126000000000007  0.9499600000000001  1.0000
  H   H55       1.0  0.03002999999999998  0.8226099999999998  0.64311  1.0000
  H   H56       1.0  0.7497  0.85587  0.6745  1.0000
  H   H57       1.0  0.7535900000000001  0.7146499999999998  0.60479  1.0000
  H   H58       1.0  0.07301000000000005  0.9317  0.68397  1.0000
  H   H59       1.0  0.12173000000000007  0.05722  0.73626  1.0000
  H   H60       1.0  0.8478900000000003  0.08587999999999996  0.78194  1.0000
  H   H61       1.0  0.79768  0.96012  0.72906  1.0000
  H   H62       1.0  0.99622  0.26843  0.54181  1.0000
  H   H63       1.0  0.29519  0.3297699999999999  0.68969  1.0000
  H   H64       1.0  0.27242  0.37815  0.57923  1.0000
  H   H65       1.0  0.020470000000000012  0.16911  0.58352  1.0000
  H   H66       1.0  0.97549  0.11405000000000004  0.65602  1.0000
  H   H67       1.0  0.15803  0.28025  0.84411  1.0000
  H   H68       1.0  0.2020200000000001  0.33679  0.77047  1.0000
  H   H69       1.0  0.11187000000000008  0.5441700000000002  0.5099300000000001  1.0000
  H   H70       1.0  0.29758  0.7187  0.52712  1.0000
  H   H71       1.0  0.40727  0.6370399999999999  0.47636999999999996  1.0000
  H   H72       1.0  0.36658  0.50815  0.44246  1.0000
  H   H73       1.0  0.58682  0.36586999999999986  0.1496  1.0000
  H   H74       1.0  0.62516  0.31800999999999996  0.33652  1.0000
  H   H75       1.0  0.61095  0.44140999999999997  0.40013  1.0000
  H   H76       1.0  0.58647  0.5279299999999999  0.33811  1.0000
  H   H77       1.0  0.59568  0.6764  0.0598  1.0000
  H   H78       1.0  0.7932300000000001  0.52128  0.03254  1.0000
  H   H79       1.0  0.6992200000000002  0.5075399999999999  0.12383  1.0000
  H   H80       1.0  0.56948  0.64457  0.93357  1.0000
  H   H81       1.0  0.5992800000000003  0.6730499999999999  0.83838  1.0000
  H   H82       1.0  0.90772  0.6358  0.9140200000000002  1.0000
  H   H83       1.0  0.87933  0.61195  0.01298  1.0000
  H   H84       1.0  0.22952000000000003  0.7809099999999999  0.8470600000000001  1.0000
  H   H85       1.0  0.04881  0.9465899999999999  0.8757  1.0000
  H   H86       1.0  0.23578000000000005  0.99609  0.88074  1.0000
  H   H87       1.0  0.026469999999999973  0.74289  0.74145  1.0000
  H   H88       1.0  0.87927  0.6614599999999998  0.71608  1.0000
  H   H89       1.0  0.87852  0.76589  0.92648  1.0000
  H   H90       1.0  0.023750000000000097  0.8493999999999998  0.9505000000000001  1.0000
  H   H91       1.0  0.61282  0.32370999999999983  0.64467  1.0000
  H   H92       1.0  0.92278  0.3545899999999999  0.67191  1.0000
  H   H93       1.0  0.8483900000000001  0.21395  0.60169  1.0000
  H   H94       1.0  0.61095  0.43211999999999995  0.68453  1.0000
  H   H95       1.0  0.6151700000000002  0.5576799999999998  0.73753  1.0000
  H   H96       1.0  0.9341300000000002  0.58465  0.78225  1.0000
  H   H97       1.0  0.93103  0.45879  0.72887  1.0000
  H   H98       1.0  0.54716  0.76944  0.54367  1.0000
  H   H99       1.0  0.39368  0.828  0.69066  1.0000
  H   H100      1.0  0.30657  0.8779399999999999  0.58116  1.0000
  H   H101      1.0  0.56292  0.66843  0.58465  1.0000
  H   H102      1.0  0.68058  0.6132699999999999  0.65694  1.0000
  H   H103      1.0  0.68803  0.78054  0.84523  1.0000
  H   H104      1.0  0.56995  0.8372399999999998  0.77175  1.0000
  H   H105      1.0  0.39603  0.04525  0.50893  1.0000
  H   H106      1.0  0.22696000000000002  0.22012999999999996  0.52599  1.0000
  H   H107      1.0  0.06769000000000001  0.13883999999999994  0.47693  1.0000
  H   H108      1.0  0.07489  0.009949999999999995  0.44396  1.0000
  H   H109      1.0  0.4400000000000001  0.13665  0.85133  1.0000
  H   H110      1.0  0.2920000000000001  0.18340999999999993  0.66373  1.0000
  H   H111      1.0  0.2133  0.06023000000000001  0.60128  1.0000
  H   H112      1.0  0.25008000000000014  0.97452  0.66436  1.0000
  H   H113      1.0  0.53758  0.8233299999999999  0.94002  1.0000
  H   H114      1.0  0.7608600000000002  0.9803  0.96999  1.0000
  H   H115      1.0  0.5760000000000001  0.9935599999999999  0.8778600000000001  1.0000
  H   H116      1.0  0.6369500000000002  0.8571299999999998  0.06816  1.0000
  H   H117      1.0  0.76164  0.8276499999999999  0.16278  1.0000
  H   H118      1.0  0.994  0.8631199999999998  0.0858  1.0000
  H   H119      1.0  0.8667000000000001  0.88774  0.9872500000000001  1.0000
  H   H120      1.0  0.3825100000000001  0.7174399999999999  0.15592  1.0000
  H   H121      1.0  0.17121000000000003  0.55068  0.12075  1.0000
  H   H122      1.0  0.35371  0.50124  0.11677000000000001  1.0000
  H   H123      1.0  0.28454  0.7555899999999998  0.25812  1.0000
  H   H124      1.0  0.16349  0.83806  0.28362  1.0000
  H   H125      1.0  0.95168  0.73295  0.0742  1.0000
  H   H126      1.0  0.07221  0.64849  0.05002  1.0000
  H   H127      1.0  0.96851  0.17652  0.35563  1.0000
  H   H128      1.0  0.25088  0.14432  0.32751  1.0000
  H   H129      1.0  0.24677  0.28513  0.39789  1.0000
  H   H130      1.0  0.92681  0.06806999999999998  0.31594  1.0000
  H   H131      1.0  0.87806  0.9425899999999999  0.26313  1.0000
  H   H132      1.0  0.15174000000000004  0.91437  0.21728  1.0000
  H   H133      1.0  0.20193000000000003  0.04017999999999999  0.27045  1.0000
  H   H134      1.0  0.0039699999999999736  0.7302699999999998  0.45655999999999997  1.0000
  H   H135      1.0  0.70393  0.67188  0.31009  1.0000
  H   H136      1.0  0.7268000000000001  0.6220499999999998  0.41966  1.0000
  H   H137      1.0  0.9783200000000001  0.8314  0.41592  1.0000
  H   H138      1.0  0.02367999999999999  0.88652  0.34351  1.0000
  H   H139      1.0  0.8427900000000003  0.7197  0.15529  1.0000
  H   H140      1.0  0.7986800000000001  0.6630399999999997  0.22887  1.0000
  H   H141      1.0  0.88673  0.45622999999999997  0.49102  1.0000
  H   H142      1.0  0.70269  0.28022  0.47300000000000003  1.0000
  H   H143      1.0  0.59173  0.36084  0.5225  1.0000
  H   H144      1.0  0.63009  0.4897799999999999  0.55618  1.0000
  C   C1        1.0  0.43558  0.49785999999999997  0.79963  1.0000
  C   C2        1.0  0.41658  0.54771  0.76054  1.0000
  C   C3        1.0  0.4083600000000001  0.61721  0.79578  1.0000
  C   C4        1.0  0.3929500000000001  0.6658  0.76124  1.0000
  C   C5        1.0  0.3861000000000002  0.64422  0.69041  1.0000
  C   C6        1.0  0.3937600000000001  0.5747299999999999  0.65472  1.0000
  C   C7        1.0  0.40794  0.52637  0.68926  1.0000
  C   C8        1.0  0.38712  0.7400400000000001  0.8021500000000001  1.0000
  C   C9        1.0  0.36450000000000005  0.3673600000000001  0.9357500000000001  1.0000
  C   C10       1.0  0.25871  0.44749  0.94636  1.0000
  C   C11       1.0  0.30576000000000003  0.45386999999999994  0.9018600000000001  1.0000
  C   C12       1.0  0.27753  0.37169  0.02009  1.0000
  C   C13       1.0  0.35546  0.35304  0.06841  1.0000
  C   C14       1.0  0.33821  0.33806  0.12303999999999998  1.0000
  C   C15       1.0  0.24426  0.3423  0.13089  1.0000
  C   C16       1.0  0.16627  0.36004  0.08086  1.0000
  C   C17       1.0  0.18197  0.37421  0.02562  1.0000
  C   C18       1.0  0.2274  0.34025999999999995  0.19773  1.0000
  C   C19       1.0  0.79436  0.16729999999999998  0.14523  1.0000
  C   C20       1.0  0.8854700000000001  0.07864  0.1279  1.0000
  C   C21       1.0  0.79377  0.05531  0.12611  1.0000
  C   C22       1.0  0.9673100000000001  0.19846999999999995  0.15293  1.0000
  C   C23       1.0  0.006740000000000021  0.25196  0.21848000000000004  1.0000
  C   C24       1.0  0.08896  0.29824  0.23208  1.0000
  C   C25       1.0  0.13083  0.2932199999999999  0.17996  1.0000
  C   C26       1.0  0.08962  0.23934999999999998  0.11444  1.0000
  C   C27       1.0  0.008449999999999996  0.1919  0.10067  1.0000
  C   C28       1.0  0.31154  0.6867899999999999  0.35679  1.0000
  C   C29       1.0  0.14913000000000004  0.67187  0.34134  1.0000
  C   C30       1.0  0.18501  0.7410099999999998  0.37603  1.0000
  C   C31       1.0  0.22839  0.5640299999999998  0.29743  1.0000
  C   C32       1.0  0.31727000000000005  0.5353099999999998  0.29457  1.0000
  C   C33       1.0  0.31512  0.46357  0.26471  1.0000
  C   C34       1.0  0.22542000000000004  0.41827999999999993  0.23702000000000004  1.0000
  C   C35       1.0  0.13733  0.44779  0.23959000000000003  1.0000
  C   C36       1.0  0.13847  0.51983  0.26964  1.0000
  C   C37       1.0  0.50731  0.20873999999999998  0.43298  1.0000
  C   C38       1.0  0.58582  0.17311999999999997  0.35499  1.0000
  C   C39       1.0  0.62905  0.15054  0.41035  1.0000
  C   C40       1.0  0.44202  0.24328999999999998  0.32715  1.0000
  C   C41       1.0  0.41028  0.30634999999999996  0.3588  1.0000
  C   C42       1.0  0.3440300000000001  0.33827999999999997  0.31688  1.0000
  C   C43       1.0  0.30936  0.3088099999999999  0.24321  1.0000
  C   C44       1.0  0.3413700000000001  0.24498999999999996  0.21232  1.0000
  C   C45       1.0  0.40735  0.21238999999999994  0.25354  1.0000
  C   C46       1.0  0.75631  0.05893999999999997  0.54672  1.0000
  C   C47       1.0  0.76198  0.9816699999999999  0.52687  1.0000
  C   C48       1.0  0.67339  0.9353499999999999  0.49686  1.0000
  C   C49       1.0  0.6764800000000002  0.8631599999999999  0.47692000000000007  1.0000
  C   C50       1.0  0.76961  0.8370299999999999  0.4881  1.0000
  C   C51       1.0  0.8581300000000001  0.8828399999999998  0.51608  1.0000
  C   C52       1.0  0.8547  0.9549399999999999  0.53529  1.0000
  C   C53       1.0  0.57987  0.81492  0.44668  1.0000
  C   C54       1.0  0.63273  0.9990899999999999  0.19782  1.0000
  C   C55       1.0  0.6530800000000002  0.94975  0.23778  1.0000
  C   C56       1.0  0.6097  0.88027  0.20304  1.0000
  C   C57       1.0  0.62905  0.8319099999999998  0.2379  1.0000
  C   C58       1.0  0.693  0.8537599999999999  0.30864  1.0000
  C   C59       1.0  0.73653  0.9231299999999999  0.34375  1.0000
  C   C60       1.0  0.71617  0.9711799999999998  0.30881000000000003  1.0000
  C   C61       1.0  0.58222  0.7578199999999999  0.19774  1.0000
  C   C62       1.0  0.42697  0.13216  0.06344  1.0000
  C   C63       1.0  0.3113500000000001  0.05111999999999999  0.05156  1.0000
  C   C64       1.0  0.40252  0.04488  0.09639  1.0000
  C   C65       1.0  0.2563500000000002  0.12763000000000005  0.9786500000000001  1.0000
  C   C66       1.0  0.2861  0.14597  0.9302  1.0000
  C   C67       1.0  0.2144  0.16132  0.87583  1.0000
  C   C68       1.0  0.11282000000000005  0.15764  0.86844  1.0000
  C   C69       1.0  0.08475000000000002  0.14027999999999993  0.91869  1.0000
  C   C70       1.0  0.15553  0.12573  0.97367  1.0000
  C   C71       1.0  0.029440000000000074  0.15997  0.8017200000000001  1.0000
  C   C72       1.0  0.6491600000000001  0.33447  0.85309  1.0000
  C   C73       1.0  0.7588900000000002  0.42366999999999994  0.8742200000000001  1.0000
  C   C74       1.0  0.66861  0.44695999999999997  0.87532  1.0000
  C   C75       1.0  0.8151200000000002  0.30333  0.8470500000000001  1.0000
  C   C76       1.0  0.78865  0.24936000000000003  0.7817400000000001  1.0000
  C   C77       1.0  0.8568400000000002  0.20248999999999995  0.76797  1.0000
  C   C78       1.0  0.95087  0.20741999999999997  0.81972  1.0000
  C   C79       1.0  0.97558  0.26175999999999994  0.885  1.0000
  C   C80       1.0  0.90862  0.30976999999999993  0.89891  1.0000
  C   C81       1.0  0.9551200000000002  0.81326  0.64344  1.0000
  C   C82       1.0  0.80813  0.82878  0.65899  1.0000
  C   C83       1.0  0.8095  0.75958  0.62454  1.0000
  C   C84       1.0  0.9311  0.9362899999999997  0.70251  1.0000
  C   C85       1.0  0.022579999999999985  0.96471  0.70495  1.0000
  C   C86       1.0  0.05010999999999999  0.03642000000000003  0.73462  1.0000
  C   C87       1.0  0.98819  0.08201999999999995  0.76253  1.0000
  C   C88       1.0  0.8978  0.05280000000000002  0.76043  1.0000
  C   C89       1.0  0.86907  0.98077  0.73057  1.0000
  C   C90       1.0  0.07397999999999999  0.29185  0.56671  1.0000
  C   C91       1.0  0.23028999999999994  0.32682  0.64435  1.0000
  C   C92       1.0  0.21821000000000004  0.34961000000000003  0.58911  1.0000
  C   C93       1.0  0.11463000000000005  0.25677  0.67219  1.0000
  C   C94       1.0  0.051409999999999956  0.19385999999999998  0.64057  1.0000
  C   C95       1.0  0.027209999999999977  0.16189  0.68251  1.0000
  C   C96       1.0  0.06615000000000001  0.19124  0.75618  1.0000
  C   C97       1.0  0.12898  0.25488  0.78707  1.0000
  C   C98       1.0  0.15364000000000008  0.28747000000000006  0.7458100000000001  1.0000
  C   C99       1.0  0.21094  0.44068999999999997  0.45371  1.0000
  C   C100      1.0  0.23535  0.51783  0.4724  1.0000
  C   C101      1.0  0.17624  0.56426  0.50211  1.0000
  C   C102      1.0  0.19955000000000003  0.6364799999999999  0.5227  1.0000
  C   C103      1.0  0.28211  0.66251  0.51212  1.0000
  C   C104      1.0  0.34249  0.61652  0.48364000000000007  1.0000
  C   C105      1.0  0.31961  0.54442  0.46399  1.0000
  C   C106      1.0  0.13326  0.6848699999999999  0.55362  1.0000
  C   C107      1.0  0.5644100000000002  0.5021799999999998  0.20052000000000003  1.0000
  C   C108      1.0  0.58327  0.45227  0.23955000000000004  1.0000
  C   C109      1.0  0.59172  0.38278  0.20438  1.0000
  C   C110      1.0  0.6070700000000001  0.3341599999999999  0.23890000000000003  1.0000
  C   C111      1.0  0.6134400000000002  0.35564000000000007  0.30963  1.0000
  C   C112      1.0  0.60544  0.4251  0.34524  1.0000
  C   C113      1.0  0.59147  0.47349999999999987  0.31075  1.0000
  C   C114      1.0  0.61339  0.25995  0.19807  1.0000
  C   C115      1.0  0.6358  0.6321  0.06425  1.0000
  C   C116      1.0  0.7415100000000002  0.55191  0.05361  1.0000
  C   C117      1.0  0.69427  0.5454399999999999  0.09798  1.0000
  C   C118      1.0  0.7228800000000001  0.6279099999999999  0.98006  1.0000
  C   C119      1.0  0.64492  0.64656  0.93176  1.0000
  C   C120      1.0  0.66219  0.66167  0.8772  1.0000
  C   C121      1.0  0.75618  0.6575399999999999  0.86942  1.0000
  C   C122      1.0  0.8342200000000001  0.63985  0.9194500000000001  1.0000
  C   C123      1.0  0.81849  0.62555  0.97461  1.0000
  C   C124      1.0  0.77298  0.6595399999999998  0.80257  1.0000
  C   C125      1.0  0.20601  0.8325699999999999  0.8549800000000001  1.0000
  C   C126      1.0  0.11458999999999993  0.9210399999999999  0.8722699999999999  1.0000
  C   C127      1.0  0.20617000000000005  0.94453  0.8740100000000001  1.0000
  C   C128      1.0  0.03318000000000002  0.8011199999999998  0.84734  1.0000
  C   C129      1.0  0.99422  0.74733  0.78197  1.0000
  C   C130      1.0  0.9118900000000002  0.70111  0.76833  1.0000
  C   C131      1.0  0.8695800000000001  0.70648  0.82029  1.0000
  C   C132      1.0  0.9104700000000002  0.7605699999999996  0.88568  1.0000
  C   C133      1.0  0.99165  0.80799  0.89945  1.0000
  C   C134      1.0  0.6872500000000002  0.31347999999999987  0.64359  1.0000
  C   C135      1.0  0.84904  0.32794  0.65711  1.0000
  C   C136      1.0  0.81264  0.25896  0.6222  1.0000
  C   C137      1.0  0.77118  0.43581  0.70262  1.0000
  C   C138      1.0  0.6824  0.46472  0.70552  1.0000
  C   C139      1.0  0.68489  0.53645  0.73555  1.0000
  C   C140      1.0  0.7747600000000002  0.5815399999999998  0.76326  1.0000
  C   C141      1.0  0.86277  0.5518499999999998  0.7608  1.0000
  C   C142      1.0  0.8613500000000002  0.4798099999999999  0.73065  1.0000
  C   C143      1.0  0.4939299999999999  0.79255  0.5686  1.0000
  C   C144      1.0  0.41377  0.8261399999999998  0.64573  1.0000
  C   C145      1.0  0.37102  0.8495599999999998  0.59093  1.0000
  C   C146      1.0  0.55829  0.7565699999999997  0.67352  1.0000
  C   C147      1.0  0.58937  0.69334  0.64171  1.0000
  C   C148      1.0  0.6557  0.66137  0.68355  1.0000
  C   C149      1.0  0.69098  0.69106  0.7572  1.0000
  C   C150      1.0  0.6595  0.7550399999999998  0.78822  1.0000
  C   C151      1.0  0.59345  0.7876599999999999  0.74709  1.0000
  C   C152      1.0  0.24279000000000003  0.9425499999999998  0.45389000000000007  1.0000
  C   C153      1.0  0.2358  0.019560000000000004  0.47276  1.0000
  C   C154      1.0  0.32416  0.06573  0.50176  1.0000
  C   C155      1.0  0.32137000000000004  0.13788  0.5220500000000001  1.0000
  C   C156      1.0  0.22826  0.16409  0.51189  1.0000
  C   C157      1.0  0.13975000000000007  0.11824000000000001  0.4841500000000001  1.0000
  C   C158      1.0  0.14314000000000002  0.046140000000000014  0.46499000000000007  1.0000
  C   C159      1.0  0.41826  0.18522999999999995  0.55111  1.0000
  C   C160      1.0  0.36730000000000007  0.001090000000000007  0.8021700000000002  1.0000
  C   C161      1.0  0.3466100000000001  0.050250000000000045  0.7620200000000001  1.0000
  C   C162      1.0  0.39014  0.11969000000000005  0.79661  1.0000
  C   C163      1.0  0.37074000000000007  0.16797000000000004  0.7616900000000001  1.0000
  C   C164      1.0  0.30652  0.14611  0.69101  1.0000
  C   C165      1.0  0.2626700000000001  0.07677999999999996  0.65609  1.0000
  C   C166      1.0  0.28307  0.02878999999999998  0.69109  1.0000
  C   C167      1.0  0.4177500000000001  0.24200999999999998  0.80181  1.0000
  C   C168      1.0  0.57309  0.86808  0.9362999999999999  1.0000
  C   C169      1.0  0.68853  0.94929  0.9482699999999998  1.0000
  C   C170      1.0  0.5972800000000001  0.95554  0.9035200000000001  1.0000
  C   C171      1.0  0.74369  0.87261  0.02101  1.0000
  C   C172      1.0  0.71394  0.8543  0.06948  1.0000
  C   C173      1.0  0.78563  0.8388499999999999  0.12378  1.0000
  C   C174      1.0  0.8871800000000002  0.84237  0.13105  1.0000
  C   C175      1.0  0.9152200000000003  0.8596799999999998  0.08076  1.0000
  C   C176      1.0  0.8444500000000001  0.8743599999999998  0.02588  1.0000
  C   C177      1.0  0.97063  0.8401599999999998  0.19778  1.0000
  C   C178      1.0  0.35106  0.6654900000000001  0.1467  1.0000
  C   C179      1.0  0.24099  0.57652  0.12563  1.0000
  C   C180      1.0  0.33115  0.55302  0.12451  1.0000
  C   C181      1.0  0.18517000000000006  0.6969599999999999  0.15269  1.0000
  C   C182      1.0  0.21182  0.75122  0.21781  1.0000
  C   C183      1.0  0.14353  0.79803  0.23153  1.0000
  C   C184      1.0  0.04927  0.79275  0.17989  1.0000
  C   C185      1.0  0.02443000000000001  0.73818  0.11477000000000001  1.0000
  C   C186      1.0  0.09146000000000001  0.6902099999999999  0.10093  1.0000
  C   C187      1.0  0.04386999999999997  0.18638  0.35637  1.0000
  C   C188      1.0  0.19196000000000002  0.17124  0.34242  1.0000
  C   C189      1.0  0.19046  0.24029999999999999  0.37728  1.0000
  C   C190      1.0  0.06868  0.06375000000000001  0.29731  1.0000
  C   C191      1.0  0.9771900000000001  0.03519999999999998  0.29479  1.0000
  C   C192      1.0  0.94968  0.9635199999999998  0.26488  1.0000
  C   C193      1.0  0.011690000000000004  0.9180899999999999  0.23693  1.0000
  C   C194      1.0  0.10196  0.94741  0.23898  1.0000
  C   C195      1.0  0.13064  0.01941  0.26899  1.0000
  C   C196      1.0  0.92599  0.7072699999999998  0.43186  1.0000
  C   C197      1.0  0.7690000000000001  0.67388  0.35498  1.0000
  C   C198      1.0  0.78125  0.6503799999999997  0.40977  1.0000
  C   C199      1.0  0.88513  0.74349  0.32707  1.0000
  C   C200      1.0  0.9478400000000001  0.8065799999999997  0.35885  1.0000
  C   C201      1.0  0.97229  0.8385299999999999  0.31697  1.0000
  C   C202      1.0  0.93392  0.80894  0.24331  1.0000
  C   C203      1.0  0.8714  0.7451699999999999  0.21232  1.0000
  C   C204      1.0  0.8466200000000002  0.7125599999999999  0.2535  1.0000
  C   C205      1.0  0.78793  0.5585  0.54712  1.0000
  C   C206      1.0  0.76242  0.48124  0.52742  1.0000
  C   C207      1.0  0.8223399999999998  0.43539  0.4981499999999999  1.0000
  C   C208      1.0  0.80035  0.3630999999999999  0.47741000000000006  1.0000
  C   C209      1.0  0.71777  0.3363399999999999  0.48750000000000004  1.0000
  C   C210      1.0  0.65643  0.38181  0.51548  1.0000
  C   C211      1.0  0.67796  0.45404  0.53505  1.0000
  C   C212      1.0  0.8690100000000002  0.31631  0.44802999999999993  1.0000
  N   N1        1.0  0.37090000000000006  0.40341000000000005  0.8952500000000001  1.0000
  N   N2        1.0  0.29695  0.3925999999999999  0.96801  1.0000
  N   N3        1.0  0.73788  0.11084  0.1365  1.0000
  N   N4        1.0  0.88494  0.15  0.14032  1.0000
  N   N5        1.0  0.28586000000000006  0.7494  0.38495  1.0000
  N   N6        1.0  0.22965  0.63737  0.32896  1.0000
  N   N7        1.0  0.57967  0.17282  0.45846  1.0000
  N   N8        1.0  0.50865  0.20998  0.36977  1.0000
  N   N9        1.0  0.47345  0.09583999999999998  0.1036  1.0000
  N   N10       1.0  0.32774  0.10651999999999999  0.030590000000000003  1.0000
  N   N11       1.0  0.60109  0.39104  0.86236  1.0000
  N   N12       1.0  0.74546  0.35197  0.85983  1.0000
  N   N13       1.0  0.9013900000000001  0.7508  0.61553  1.0000
  N   N14       1.0  0.90093  0.86298  0.67119  1.0000
  N   N15       1.0  0.12086000000000001  0.32775  0.54123  1.0000
  N   N16       1.0  0.13845  0.29025999999999996  0.62968  1.0000
  N   N17       1.0  0.62919  0.59594  0.1046  1.0000
  N   N18       1.0  0.70342  0.6068999999999999  0.03206  1.0000
  N   N19       1.0  0.26226  0.8890999999999999  0.86361  1.0000
  N   N20       1.0  0.11538999999999994  0.84971  0.8599099999999998  1.0000
  N   N21       1.0  0.71189  0.25069  0.61429  1.0000
  N   N22       1.0  0.7694400000000002  0.36262999999999995  0.6708  1.0000
  N   N23       1.0  0.42159  0.82862  0.54356  1.0000
  N   N24       1.0  0.49166  0.7901  0.6311  1.0000
  N   N25       1.0  0.52649  0.9044899999999998  0.89629  1.0000
  N   N26       1.0  0.67229  0.8937899999999999  0.96913  1.0000
  N   N27       1.0  0.39888  0.6087999999999999  0.13743  1.0000
  N   N28       1.0  0.25472  0.6482  0.14  1.0000
  N   N29       1.0  0.09778999999999997  0.249  0.38548  1.0000
  N   N30       1.0  0.09876000000000004  0.13691  0.32901  1.0000
  N   N31       1.0  0.87896  0.6711799999999999  0.45697000000000004  1.0000
  N   N32       1.0  0.8612200000000002  0.70987  0.36949  1.0000
  O   O1        1.0  0.41455  0.43167999999999995  0.76197  1.0000
  O   O2        1.0  0.47068  0.51935  0.86611  1.0000
  O   O3        1.0  0.37511000000000005  0.7836899999999998  0.76844  1.0000
  O   O4        1.0  0.3947300000000001  0.75683  0.8658500000000001  1.0000
  O   O5        1.0  0.6708300000000001  0.07723  0.55309  1.0000
  O   O6        1.0  0.82874  0.09975999999999999  0.55518  1.0000
  O   O7        1.0  0.5001999999999999  0.8436299999999998  0.42249  1.0000
  O   O8        1.0  0.58055  0.7542  0.4481299999999999  1.0000
  O   O9        1.0  0.65293  0.06535  0.23526  1.0000
  O   O10       1.0  0.59829  0.9758999999999999  0.13149  1.0000
  O   O11       1.0  0.59999  0.71438  0.23194000000000004  1.0000
  O   O12       1.0  0.52855  0.73981  0.13347  1.0000
  O   O13       1.0  0.11837000000000006  0.4223  0.44529  1.0000
  O   O14       1.0  0.27646999999999994  0.4002299999999999  0.4482499999999999  1.0000
  O   O15       1.0  0.07762  0.65592  0.5775  1.0000
  O   O16       1.0  0.13271  0.7459  0.55308  1.0000
  O   O17       1.0  0.58555  0.5683499999999999  0.23814999999999997  1.0000
  O   O18       1.0  0.52929  0.48072999999999994  0.13403  1.0000
  O   O19       1.0  0.62637  0.21641999999999997  0.23194000000000004  1.0000
  O   O20       1.0  0.60535  0.24313999999999997  0.13429  1.0000
  O   O21       1.0  0.3283  0.9251599999999999  0.44739000000000007  1.0000
  O   O22       1.0  0.17104000000000003  0.9020399999999998  0.44682  1.0000
  O   O23       1.0  0.4977100000000002  0.1546  0.57202  1.0000
  O   O24       1.0  0.41948000000000013  0.24664  0.55189  1.0000
  O   O25       1.0  0.34769  0.93478  0.76483  1.0000
  O   O26       1.0  0.40135999999999994  0.02453999999999997  0.8684999999999999  1.0000
  O   O27       1.0  0.39982  0.28539999999999993  0.76758  1.0000
  O   O28       1.0  0.47161000000000003  0.26011000000000006  0.8660500000000001  1.0000
  O   O29       1.0  0.8797  0.57558  0.55328  1.0000
  O   O30       1.0  0.7238000000000001  0.5994499999999999  0.55546  1.0000
  O   O31       1.0  0.92716  0.34741  0.4273600000000001  1.0000
  O   O32       1.0  0.87082  0.25482  0.44715000000000005  1.0000
