data_image0
_chemical_formula_structural       Tb4Zn38H108C108N144Cl16O72
_chemical_formula_sum              "Tb4 Zn38 H108 C108 N144 Cl16 O72"
_cell_length_a       18.37412
_cell_length_b       18.37856
_cell_length_c       24.496149999999997
_cell_angle_alpha    90.00488
_cell_angle_beta     89.99673
_cell_angle_gamma    120.2049

_space_group_name_H-M_alt    "P 1"
_space_group_IT_number       1

loop_
  _space_group_symop_operation_xyz
  'x, y, z'

loop_
  _atom_site_type_symbol
  _atom_site_label
  _atom_site_symmetry_multiplicity
  _atom_site_fract_x
  _atom_site_fract_y
  _atom_site_fract_z
  _atom_site_occupancy
  Tb  Tb1       1.0  0.9997800000000001  0.9986799999999999  0.86943  1.0000
  Tb  Tb2       1.0  0.0014000000000000351  0.99858  0.36588  1.0000
  Tb  Tb3       1.0  1e-05  2.9999999999999997e-05  0.62467  1.0000
  Tb  Tb4       1.0  0.0029  0.00101  0.12949  1.0000
  Zn  Zn1       1.0  1.9999999999997393e-05  0.21045  0.85841  1.0000
  Zn  Zn2       1.0  0.9998799999999999  0.33436  0.09031  1.0000
  Zn  Zn3       1.0  0.21087  0.00020999999999999998  0.8582400000000002  1.0000
  Zn  Zn4       1.0  0.33451000000000003  0.99991  0.09029  1.0000
  Zn  Zn5       1.0  0.78906  0.7893099999999997  0.85826  1.0000
  Zn  Zn6       1.0  0.66561  0.66564  0.09035  1.0000
  Zn  Zn7       1.0  0.99979  0.78836  0.35834  1.0000
  Zn  Zn8       1.0  8.000000000003791e-05  0.66576  0.5904500000000001  1.0000
  Zn  Zn9       1.0  0.78964  0.00032  0.3584800000000001  1.0000
  Zn  Zn10      1.0  0.66595  0.0001  0.59035  1.0000
  Zn  Zn11      1.0  0.21042  0.21088  0.35844000000000004  1.0000
  Zn  Zn12      1.0  0.3343  0.33434  0.59048  1.0000
  Zn  Zn13      1.0  0.7895  0.78949  0.64168  1.0000
  Zn  Zn14      1.0  0.6655  0.66559  0.40974  1.0000
  Zn  Zn15      1.0  0.21055  0.9999899999999999  0.6416  1.0000
  Zn  Zn16      1.0  0.33466  0.99996  0.40992  1.0000
  Zn  Zn17      1.0  0.99999  0.21064  0.6416300000000001  1.0000
  Zn  Zn18      1.0  0.9999  0.33409  0.4097800000000001  1.0000
  Zn  Zn19      1.0  0.21091  0.21107  0.14168  1.0000
  Zn  Zn20      1.0  0.33427  0.33434  0.9095700000000002  1.0000
  Zn  Zn21      1.0  0.78931  0.99989  0.1416  1.0000
  Zn  Zn22      1.0  0.66575  0.00012  0.90956  1.0000
  Zn  Zn23      1.0  0.99975  0.78919  0.14146000000000003  1.0000
  Zn  Zn24      1.0  8.000000000003791e-05  0.66548  0.90971  1.0000
  Zn  Zn25      1.0  0.9999700000000001  0.4998399999999999  0.0  1.0000
  Zn  Zn26      1.0  0.49961000000000005  2.0000000000000015e-05  0.9996500000000001  1.0000
  Zn  Zn27      1.0  0.49995  0.49997  0.9999800000000001  1.0000
  Zn  Zn28      1.0  0.99999  0.4993399999999999  0.50035  1.0000
  Zn  Zn29      1.0  0.50006  1e-05  0.50015  1.0000
  Zn  Zn30      1.0  0.50026  0.50026  0.5001  1.0000
  Zn  Zn31      1.0  0.6668200000000001  0.33365  0.11232  1.0000
  Zn  Zn32      1.0  0.3332400000000001  0.66637  0.6123300000000002  1.0000
  Zn  Zn33      1.0  0.3335400000000001  0.66672  0.38759  1.0000
  Zn  Zn34      1.0  0.6663999999999999  0.33326  0.8876400000000002  1.0000
  Zn  Zn35      1.0  0.33329  0.66639  0.8876500000000002  1.0000
  Zn  Zn36      1.0  0.6668300000000003  0.33363  0.38771  1.0000
  Zn  Zn37      1.0  0.66641  0.33328  0.6123500000000001  1.0000
  Zn  Zn38      1.0  0.33365  0.66679  0.11236000000000003  1.0000
  H   H1        1.0  0.81845  0.47053  0.05176  1.0000
  H   H2        1.0  0.8341300000000001  0.22732  0.15394000000000002  1.0000
  H   H3        1.0  0.74166  0.22887  0.16557  1.0000
  H   H4        1.0  0.65226  0.1817  0.05179  1.0000
  H   H5        1.0  0.3930100000000001  0.16579  0.15396  1.0000
  H   H6        1.0  0.48728  0.25835  0.16552  1.0000
  H   H7        1.0  0.52916  0.34752999999999995  0.051650000000000015  1.0000
  H   H8        1.0  0.7728599999999999  0.6070499999999998  0.15399  1.0000
  H   H9        1.0  0.77104  0.51282  0.16549  1.0000
  H   H10       1.0  0.18160000000000004  0.5295  0.5517800000000002  1.0000
  H   H11       1.0  0.1658799999999999  0.7726599999999998  0.6539800000000001  1.0000
  H   H12       1.0  0.25835  0.77107  0.6655500000000001  1.0000
  H   H13       1.0  0.34768  0.81826  0.5518  1.0000
  H   H14       1.0  0.60699  0.83431  0.65394  1.0000
  H   H15       1.0  0.5126800000000001  0.74167  0.6655  1.0000
  H   H16       1.0  0.47082  0.65249  0.55171  1.0000
  H   H17       1.0  0.22709000000000001  0.39293  0.6540400000000002  1.0000
  H   H18       1.0  0.22896  0.48716  0.6655  1.0000
  H   H19       1.0  0.34741  0.52922  0.44826  1.0000
  H   H20       1.0  0.60702  0.77283  0.3459700000000001  1.0000
  H   H21       1.0  0.51287  0.77103  0.3345000000000001  1.0000
  H   H22       1.0  0.47057000000000004  0.81846  0.44826  1.0000
  H   H23       1.0  0.22743000000000005  0.83413  0.3459700000000001  1.0000
  H   H24       1.0  0.22884  0.74165  0.33442  1.0000
  H   H25       1.0  0.18183000000000005  0.65238  0.4482400000000001  1.0000
  H   H26       1.0  0.16569  0.39301  0.34608000000000005  1.0000
  H   H27       1.0  0.25836000000000003  0.48735  0.33452  1.0000
  H   H28       1.0  0.65253  0.47079  0.9482900000000002  1.0000
  H   H29       1.0  0.39293  0.22712  0.846  1.0000
  H   H30       1.0  0.48723  0.229  0.8345  1.0000
  H   H31       1.0  0.52948  0.1816  0.94821  1.0000
  H   H32       1.0  0.77269  0.16588  0.84606  1.0000
  H   H33       1.0  0.77111  0.25839  0.8344300000000001  1.0000
  H   H34       1.0  0.81829  0.34769  0.94821  1.0000
  H   H35       1.0  0.8342500000000002  0.60695  0.846  1.0000
  H   H36       1.0  0.7416400000000001  0.51266  0.8344800000000002  1.0000
  H   H37       1.0  0.18157999999999994  0.52947  0.94818  1.0000
  H   H38       1.0  0.16586999999999988  0.7726599999999998  0.8460500000000002  1.0000
  H   H39       1.0  0.25833  0.7711  0.8344200000000003  1.0000
  H   H40       1.0  0.34766000000000014  0.81822  0.9481900000000002  1.0000
  H   H41       1.0  0.607  0.83429  0.84604  1.0000
  H   H42       1.0  0.5125899999999999  0.7416199999999997  0.8344900000000002  1.0000
  H   H43       1.0  0.47083  0.65253  0.9483100000000002  1.0000
  H   H44       1.0  0.22715000000000002  0.39295  0.8460200000000002  1.0000
  H   H45       1.0  0.22899000000000008  0.48719  0.8344900000000002  1.0000
  H   H46       1.0  0.8184099999999999  0.47052  0.44825  1.0000
  H   H47       1.0  0.83415  0.22732  0.3461200000000001  1.0000
  H   H48       1.0  0.74166  0.22888  0.33441000000000004  1.0000
  H   H49       1.0  0.6523  0.18171  0.44823  1.0000
  H   H50       1.0  0.39304000000000006  0.16569999999999993  0.34604  1.0000
  H   H51       1.0  0.4873700000000001  0.25837  0.33448  1.0000
  H   H52       1.0  0.52926  0.34757  0.44831  1.0000
  H   H53       1.0  0.7727700000000002  0.60698  0.34593  1.0000
  H   H54       1.0  0.77097  0.51277  0.33448  1.0000
  H   H55       1.0  0.6524500000000001  0.47079  0.55169  1.0000
  H   H56       1.0  0.39298000000000005  0.22713999999999995  0.65411  1.0000
  H   H57       1.0  0.48722000000000004  0.22902  0.6655200000000001  1.0000
  H   H58       1.0  0.52949  0.18155  0.5518  1.0000
  H   H59       1.0  0.7727000000000003  0.16588  0.65393  1.0000
  H   H60       1.0  0.77116  0.25833  0.66559  1.0000
  H   H61       1.0  0.81828  0.3477  0.5517800000000002  1.0000
  H   H62       1.0  0.8343100000000002  0.60702  0.6539200000000002  1.0000
  H   H63       1.0  0.74166  0.51267  0.66553  1.0000
  H   H64       1.0  0.3475400000000001  0.52924  0.05172000000000001  1.0000
  H   H65       1.0  0.60709  0.77285  0.15403000000000003  1.0000
  H   H66       1.0  0.5128000000000001  0.77098  0.16551  1.0000
  H   H67       1.0  0.47048999999999996  0.81843  0.051780000000000014  1.0000
  H   H68       1.0  0.22732  0.83414  0.15395000000000003  1.0000
  H   H69       1.0  0.22879000000000002  0.74167  0.16556000000000004  1.0000
  H   H70       1.0  0.18176  0.65231  0.05183  1.0000
  H   H71       1.0  0.16571  0.393  0.15391000000000002  1.0000
  H   H72       1.0  0.25831  0.48731  0.16552  1.0000
  H   H73       1.0  1.0000000000004739e-05  0.21038  0.98603  1.0000
  H   H74       1.0  0.99999  0.45342  0.87406  1.0000
  H   H75       1.0  0.99999  0.37358  0.83532  1.0000
  H   H76       1.0  0.21040000000000003  2.0000000000000015e-05  0.9861000000000002  1.0000
  H   H77       1.0  0.45342  2.0000000000000015e-05  0.8740700000000002  1.0000
  H   H78       1.0  0.37358  0.99998  0.83532  1.0000
  H   H79       1.0  0.79  0.79001  0.98612  1.0000
  H   H80       1.0  0.5463  0.54631  0.87403  1.0000
  H   H81       1.0  0.62646  0.62646  0.8352400000000001  1.0000
  H   H82       1.0  0.99998  0.78969  0.4860800000000001  1.0000
  H   H83       1.0  0.0  0.5466599999999998  0.37410000000000004  1.0000
  H   H84       1.0  0.9999700000000001  0.62629  0.3352800000000001  1.0000
  H   H85       1.0  0.78967  1e-05  0.48604  1.0000
  H   H86       1.0  0.54661  0.99996  0.37409  1.0000
  H   H87       1.0  0.6264300000000002  0.99996  0.33532  1.0000
  H   H88       1.0  0.20996  0.21001  0.4861100000000001  1.0000
  H   H89       1.0  0.4537  0.45373  0.37405  1.0000
  H   H90       1.0  0.37356000000000006  0.37356  0.33529  1.0000
  H   H91       1.0  0.79  0.79002  0.51387  1.0000
  H   H92       1.0  0.54633  0.54632  0.6259200000000001  1.0000
  H   H93       1.0  0.62647  0.62646  0.66475  1.0000
  H   H94       1.0  0.21034999999999998  0.9999899999999999  0.5139600000000001  1.0000
  H   H95       1.0  0.4533400000000001  0.99994  0.62593  1.0000
  H   H96       1.0  0.37349  0.99996  0.66466  1.0000
  H   H97       1.0  0.99999  0.21035  0.51393  1.0000
  H   H98       1.0  2.000000000003365e-05  0.4534  0.6259  1.0000
  H   H99       1.0  0.9999600000000001  0.37354  0.66471  1.0000
  H   H100      1.0  0.21002  0.21004  0.01382  1.0000
  H   H101      1.0  0.45376000000000005  0.45369  0.12593000000000001  1.0000
  H   H102      1.0  0.37357  0.3735  0.16473  1.0000
  H   H103      1.0  0.7897000000000001  1e-05  0.01388  1.0000
  H   H104      1.0  0.5467  4e-05  0.12579  1.0000
  H   H105      1.0  0.6262000000000001  0.99997  0.16476  1.0000
  H   H106      1.0  9.999999999992655e-06  0.78965  0.01395  1.0000
  H   H107      1.0  0.99998  0.54659  0.12592  1.0000
  H   H108      1.0  0.99998  0.6264  0.16471  1.0000
  C   C1        1.0  0.84671  0.04808999999999999  0.8899600000000002  1.0000
  C   C2        1.0  0.82379  0.31833  0.11253  1.0000
  C   C3        1.0  0.83297  0.42491  0.06848  1.0000
  C   C4        1.0  0.20127  0.15324  0.8899600000000002  1.0000
  C   C5        1.0  0.49454  0.17615  0.11251000000000003  1.0000
  C   C6        1.0  0.5921  0.16722  0.06857  1.0000
  C   C7        1.0  0.9519000000000001  0.7985699999999998  0.8899900000000002  1.0000
  C   C8        1.0  0.6817  0.50558  0.11253  1.0000
  C   C9        1.0  0.5749500000000001  0.4078  0.06844000000000001  1.0000
  C   C10       1.0  0.15351  0.95194  0.3900000000000001  1.0000
  C   C11       1.0  0.1762  0.68166  0.6125  1.0000
  C   C12       1.0  0.16709000000000004  0.57511  0.56847  1.0000
  C   C13       1.0  0.7993200000000003  0.84699  0.3898800000000001  1.0000
  C   C14       1.0  0.50548  0.82389  0.6125  1.0000
  C   C15       1.0  0.40786  0.83273  0.56855  1.0000
  C   C16       1.0  0.048250000000000015  0.20129  0.3899400000000001  1.0000
  C   C17       1.0  0.31828  0.49442  0.6125300000000001  1.0000
  C   C18       1.0  0.42505000000000004  0.59219  0.56847  1.0000
  C   C19       1.0  0.79904  0.95192  0.61009  1.0000
  C   C20       1.0  0.5055200000000001  0.68168  0.3874800000000001  1.0000
  C   C21       1.0  0.40771  0.57496  0.4315  1.0000
  C   C22       1.0  0.048129999999999985  0.84676  0.61  1.0000
  C   C23       1.0  0.31838999999999995  0.8237899999999999  0.38747  1.0000
  C   C24       1.0  0.42495  0.83292  0.43151000000000006  1.0000
  C   C25       1.0  0.15310000000000004  0.20122  0.61001  1.0000
  C   C26       1.0  0.1761  0.49454  0.3875  1.0000
  C   C27       1.0  0.16727000000000006  0.59218  0.43147  1.0000
  C   C28       1.0  0.20129  0.0481  0.11  1.0000
  C   C29       1.0  0.49446  0.3182899999999999  0.88748  1.0000
  C   C30       1.0  0.5922300000000001  0.42502  0.9315300000000002  1.0000
  C   C31       1.0  0.95203  0.15316  0.11004000000000003  1.0000
  C   C32       1.0  0.68168  0.17625  0.8874600000000002  1.0000
  C   C33       1.0  0.57511  0.16710999999999995  0.93151  1.0000
  C   C34       1.0  0.84665  0.79858  0.10996000000000003  1.0000
  C   C35       1.0  0.82387  0.50549  0.88748  1.0000
  C   C36       1.0  0.8327699999999999  0.40789  0.93145  1.0000
  C   C37       1.0  0.1530800000000001  0.95197  0.11004000000000003  1.0000
  C   C38       1.0  0.17624000000000006  0.68167  0.8874700000000001  1.0000
  C   C39       1.0  0.16706999999999994  0.5750999999999998  0.9315000000000001  1.0000
  C   C40       1.0  0.7988  0.84672  0.10999000000000003  1.0000
  C   C41       1.0  0.5055100000000001  0.82387  0.88751  1.0000
  C   C42       1.0  0.40786  0.83272  0.93146  1.0000
  C   C43       1.0  0.048200000000000014  0.20147  0.10998000000000002  1.0000
  C   C44       1.0  0.31829  0.49445  0.8874600000000002  1.0000
  C   C45       1.0  0.42507  0.59222  0.93157  1.0000
  C   C46       1.0  0.8471  0.04824  0.61006  1.0000
  C   C47       1.0  0.8237800000000001  0.31835  0.38747  1.0000
  C   C48       1.0  0.83296  0.4249399999999999  0.43153  1.0000
  C   C49       1.0  0.20101000000000002  0.15313  0.6099800000000001  1.0000
  C   C50       1.0  0.49451000000000006  0.17614  0.38749  1.0000
  C   C51       1.0  0.5920999999999998  0.16723  0.43147  1.0000
  C   C52       1.0  0.95181  0.79864  0.6100200000000001  1.0000
  C   C53       1.0  0.68173  0.50557  0.38746000000000014  1.0000
  C   C54       1.0  0.57499  0.40786  0.4315400000000001  1.0000
  C   C55       1.0  0.20138999999999996  0.047989999999999984  0.38999000000000006  1.0000
  C   C56       1.0  0.4944200000000001  0.31826  0.61252  1.0000
  C   C57       1.0  0.5921700000000001  0.425  0.56846  1.0000
  C   C58       1.0  0.952  0.15313  0.38989  1.0000
  C   C59       1.0  0.68169  0.17625  0.61254  1.0000
  C   C60       1.0  0.57512  0.16707  0.56849  1.0000
  C   C61       1.0  0.8471  0.7988799999999998  0.3899100000000001  1.0000
  C   C62       1.0  0.8238900000000002  0.50553  0.61251  1.0000
  C   C63       1.0  0.83277  0.40792  0.56852  1.0000
  C   C64       1.0  0.79863  0.95189  0.88998  1.0000
  C   C65       1.0  0.50562  0.68175  0.11254000000000003  1.0000
  C   C66       1.0  0.40783  0.57497  0.06849  1.0000
  C   C67       1.0  0.04806999999999998  0.84672  0.89001  1.0000
  C   C68       1.0  0.31834  0.82381  0.11254000000000003  1.0000
  C   C69       1.0  0.42489  0.83299  0.06847000000000002  1.0000
  C   C70       1.0  0.15329  0.20121  0.8899600000000002  1.0000
  C   C71       1.0  0.17614  0.49452  0.1125  1.0000
  C   C72       1.0  0.16724  0.59212  0.06858  1.0000
  C   C73       1.0  0.95117  0.2119  0.7499900000000003  1.0000
  C   C74       1.0  0.26077  0.04861999999999998  0.7500300000000002  1.0000
  C   C75       1.0  0.78799  0.73936  0.7500100000000001  1.0000
  C   C76       1.0  0.048769999999999994  0.78797  0.24998000000000004  1.0000
  C   C77       1.0  0.73919  0.95144  0.24996  1.0000
  C   C78       1.0  0.21227  0.26078  0.24995000000000003  1.0000
  C   C79       1.0  0.7393500000000001  0.7879999999999998  0.7499900000000003  1.0000
  C   C80       1.0  0.21211  0.9512  0.7500300000000002  1.0000
  C   C81       1.0  0.04872000000000002  0.26067  0.7499900000000003  1.0000
  C   C82       1.0  0.26066  0.21216999999999994  0.24998000000000004  1.0000
  C   C83       1.0  0.78784  0.04866  0.24996  1.0000
  C   C84       1.0  0.95126  0.73916  0.24994000000000005  1.0000
  C   C85       1.0  0.99999  0.26583  0.9717100000000002  1.0000
  C   C86       1.0  0.99999  0.35773  0.9182800000000002  1.0000
  C   C87       1.0  0.26581  0.99998  0.97173  1.0000
  C   C88       1.0  0.35768  0.99998  0.91829  1.0000
  C   C89       1.0  0.7344000000000003  0.73438  0.9717400000000003  1.0000
  C   C90       1.0  0.64223  0.64223  0.9182500000000002  1.0000
  C   C91       1.0  3.0000000000026303e-05  0.73428  0.47173000000000004  1.0000
  C   C92       1.0  3.999999999997062e-05  0.64235  0.4183  1.0000
  C   C93       1.0  0.73422  0.99998  0.47171000000000013  1.0000
  C   C94       1.0  0.64233  0.0  0.41829  1.0000
  C   C95       1.0  0.26564  0.26563  0.47177000000000013  1.0000
  C   C96       1.0  0.35786  0.3578  0.41831000000000007  1.0000
  C   C97       1.0  0.7344100000000001  0.73442  0.52827  1.0000
  C   C98       1.0  0.64224  0.64225  0.5817400000000001  1.0000
  C   C99       1.0  0.26581999999999995  0.9999899999999999  0.52828  1.0000
  C   C100      1.0  0.3577  2e-05  0.58171  1.0000
  C   C101      1.0  9.999999999992655e-06  0.26582  0.52829  1.0000
  C   C102      1.0  0.0  0.35768  0.58178  1.0000
  C   C103      1.0  0.26564  0.26564  0.028230000000000005  1.0000
  C   C104      1.0  0.35781  0.3578099999999999  0.08173  1.0000
  C   C105      1.0  0.7342800000000003  1e-05  0.02828  1.0000
  C   C106      1.0  0.64242  1e-05  0.08173  1.0000
  C   C107      1.0  1.999999999998531e-05  0.7342  0.028270000000000007  1.0000
  C   C108      1.0  3.0000000000026303e-05  0.64232  0.08175  1.0000
  N   N1        1.0  0.90117  0.42183  0.056700000000000014  1.0000
  N   N2        1.0  0.7813999999999999  0.36156  0.10382000000000001  1.0000
  N   N3        1.0  0.89613  0.35399  0.08459000000000001  1.0000
  N   N4        1.0  0.79414  0.2481  0.14306000000000002  1.0000
  N   N5        1.0  0.52047  0.0989  0.05685000000000001  1.0000
  N   N6        1.0  0.58045  0.21875  0.10379000000000001  1.0000
  N   N7        1.0  0.4575600000000001  0.10377  0.08464  1.0000
  N   N8        1.0  0.45400000000000007  0.20576  0.14299  1.0000
  N   N9        1.0  0.57827  0.47925  0.05685000000000001  1.0000
  N   N10       1.0  0.63829  0.41968  0.10368000000000002  1.0000
  N   N11       1.0  0.64633  0.5424  0.08478  1.0000
  N   N12       1.0  0.75195  0.54616  0.14312000000000002  1.0000
  N   N13       1.0  0.09886000000000005  0.57817  0.55669  1.0000
  N   N14       1.0  0.21865000000000004  0.63848  0.6038  1.0000
  N   N15       1.0  0.10386  0.64598  0.58457  1.0000
  N   N16       1.0  0.20587  0.75191  0.64305  1.0000
  N   N17       1.0  0.47951000000000005  0.90108  0.55683  1.0000
  N   N18       1.0  0.41955  0.78128  0.60379  1.0000
  N   N19       1.0  0.5424900000000001  0.89627  0.58462  1.0000
  N   N20       1.0  0.54599  0.79427  0.64298  1.0000
  N   N21       1.0  0.42174  0.52077  0.5568500000000001  1.0000
  N   N22       1.0  0.36171  0.58031  0.6037000000000001  1.0000
  N   N23       1.0  0.35366999999999993  0.4576099999999999  0.58476  1.0000
  N   N24       1.0  0.24801  0.4538  0.64311  1.0000
  N   N25       1.0  0.47914000000000007  0.57826  0.44317  1.0000
  N   N26       1.0  0.41964  0.63828  0.39627  1.0000
  N   N27       1.0  0.54229  0.6463  0.41527  1.0000
  N   N28       1.0  0.54618  0.75195  0.35692000000000007  1.0000
  N   N29       1.0  0.42187  0.90111  0.4433000000000001  1.0000
  N   N30       1.0  0.3616  0.78138  0.39614  1.0000
  N   N31       1.0  0.3540500000000001  0.8961  0.41540000000000005  1.0000
  N   N32       1.0  0.24808000000000002  0.79411  0.3569500000000001  1.0000
  N   N33       1.0  0.09891  0.52052  0.44317  1.0000
  N   N34       1.0  0.21872000000000003  0.58045  0.3961900000000001  1.0000
  N   N35       1.0  0.10372000000000005  0.45759  0.41539  1.0000
  N   N36       1.0  0.20571000000000006  0.45403  0.357  1.0000
  N   N37       1.0  0.5207899999999999  0.4217199999999999  0.9431800000000002  1.0000
  N   N38       1.0  0.58034  0.36171  0.89631  1.0000
  N   N39       1.0  0.45764  0.35366  0.9152700000000003  1.0000
  N   N40       1.0  0.45383000000000007  0.24804  0.8568900000000003  1.0000
  N   N41       1.0  0.5781400000000001  0.09892  0.94329  1.0000
  N   N42       1.0  0.6384800000000002  0.21868  0.89619  1.0000
  N   N43       1.0  0.64598  0.10391  0.9154000000000002  1.0000
  N   N44       1.0  0.7518800000000001  0.20586999999999994  0.8568900000000003  1.0000
  N   N45       1.0  0.9011200000000001  0.47953  0.94317  1.0000
  N   N46       1.0  0.7813  0.41959  0.8962000000000002  1.0000
  N   N47       1.0  0.8962800000000001  0.54248  0.9153700000000001  1.0000
  N   N48       1.0  0.7942300000000001  0.54599  0.8570100000000003  1.0000
  N   N49       1.0  0.09888  0.57815  0.9433100000000001  1.0000
  N   N50       1.0  0.21865000000000004  0.63846  0.8961700000000002  1.0000
  N   N51       1.0  0.1039  0.64599  0.9154200000000002  1.0000
  N   N52       1.0  0.20587  0.75191  0.85694  1.0000
  N   N53       1.0  0.47948  0.90107  0.9431900000000001  1.0000
  N   N54       1.0  0.41957000000000005  0.78126  0.8962100000000002  1.0000
  N   N55       1.0  0.54246  0.89627  0.9154000000000002  1.0000
  N   N56       1.0  0.5459800000000001  0.7942399999999997  0.857  1.0000
  N   N57       1.0  0.42171  0.52079  0.9431900000000001  1.0000
  N   N58       1.0  0.36173  0.58035  0.89631  1.0000
  N   N59       1.0  0.35366999999999993  0.45765  0.91526  1.0000
  N   N60       1.0  0.24806000000000003  0.45385  0.85688  1.0000
  N   N61       1.0  0.9011500000000001  0.42186  0.44329  1.0000
  N   N62       1.0  0.78137  0.36157  0.3961900000000001  1.0000
  N   N63       1.0  0.8961200000000001  0.35402  0.4153800000000001  1.0000
  N   N64       1.0  0.7941500000000001  0.24812  0.35692000000000007  1.0000
  N   N65       1.0  0.52048  0.09888  0.44317  1.0000
  N   N66       1.0  0.5804200000000002  0.21871999999999994  0.39623000000000014  1.0000
  N   N67       1.0  0.45752  0.10373  0.41534000000000004  1.0000
  N   N68       1.0  0.45403  0.20578  0.357  1.0000
  N   N69       1.0  0.5783200000000001  0.47929  0.44317  1.0000
  N   N70       1.0  0.63829  0.4196999999999999  0.3963  1.0000
  N   N71       1.0  0.6464  0.54241  0.4152300000000001  1.0000
  N   N72       1.0  0.75204  0.54619  0.35692000000000007  1.0000
  N   N73       1.0  0.52073  0.42166  0.55681  1.0000
  N   N74       1.0  0.58032  0.36172  0.60369  1.0000
  N   N75       1.0  0.4576  0.35361  0.58473  1.0000
  N   N76       1.0  0.45380000000000004  0.24796  0.6430700000000001  1.0000
  N   N77       1.0  0.57822  0.09892  0.55669  1.0000
  N   N78       1.0  0.63847  0.21865  0.60383  1.0000
  N   N79       1.0  0.64607  0.10395  0.58459  1.0000
  N   N80       1.0  0.75192  0.20586  0.6431  1.0000
  N   N81       1.0  0.9011000000000001  0.4795799999999999  0.5568  1.0000
  N   N82       1.0  0.7812999999999999  0.41961  0.6038  1.0000
  N   N83       1.0  0.8962699999999998  0.5425299999999997  0.58461  1.0000
  N   N84       1.0  0.79426  0.546  0.64301  1.0000
  N   N85       1.0  0.47924  0.57828  0.05684  1.0000
  N   N86       1.0  0.4197  0.6383  0.10372000000000003  1.0000
  N   N87       1.0  0.5423700000000001  0.64634  0.08475000000000003  1.0000
  N   N88       1.0  0.5462200000000001  0.7520099999999997  0.14310000000000003  1.0000
  N   N89       1.0  0.4218  0.90113  0.056660000000000016  1.0000
  N   N90       1.0  0.36156  0.78142  0.10384  1.0000
  N   N91       1.0  0.3539700000000001  0.8961  0.08459000000000001  1.0000
  N   N92       1.0  0.24809  0.79418  0.14309000000000002  1.0000
  N   N93       1.0  0.09889999999999999  0.52049  0.05686000000000001  1.0000
  N   N94       1.0  0.21874000000000002  0.58042  0.10380000000000003  1.0000
  N   N95       1.0  0.10374999999999998  0.45757  0.08462000000000001  1.0000
  N   N96       1.0  0.20574  0.454  0.14298  1.0000
  N   N97       1.0  1.0000000000016825e-05  0.28347  0.9177  1.0000
  N   N98       1.0  0.9999700000000001  0.32369  0.00364  1.0000
  N   N99       1.0  0.9999700000000001  0.38458  0.9693100000000002  1.0000
  N   N100      1.0  9.999999999992655e-06  0.39858  0.87195  1.0000
  N   N101      1.0  0.28341999999999995  0.9999899999999999  0.9177300000000003  1.0000
  N   N102      1.0  0.3236899999999999  0.99995  0.00365  1.0000
  N   N103      1.0  0.38458000000000003  0.99996  0.9693100000000002  1.0000
  N   N104      1.0  0.39855000000000007  1.0000000000000008e-05  0.8719700000000001  1.0000
  N   N105      1.0  0.7167700000000001  0.71675  0.9177300000000003  1.0000
  N   N106      1.0  0.6762400000000001  0.67621  0.0035900000000000003  1.0000
  N   N107      1.0  0.6151700000000002  0.61516  0.9692500000000002  1.0000
  N   N108      1.0  0.60137  0.60137  0.87189  1.0000
  N   N109      1.0  5.000000000001161e-05  0.71659  0.41773  1.0000
  N   N110      1.0  9.999999999992655e-06  0.67638  0.50359  1.0000
  N   N111      1.0  9.999999999992655e-06  0.6155  0.46927  1.0000
  N   N112      1.0  1.9999999999888634e-05  0.6014999999999998  0.37196  1.0000
  N   N113      1.0  0.71657  0.99992  0.41772  1.0000
  N   N114      1.0  0.67634  3.0000000000000004e-05  0.5036400000000001  1.0000
  N   N115      1.0  0.61547  5.000000000000001e-05  0.4692900000000001  1.0000
  N   N116      1.0  0.6015100000000001  7e-05  0.37196  1.0000
  N   N117      1.0  0.28335000000000005  0.28326  0.4177700000000001  1.0000
  N   N118      1.0  0.32376  0.32379  0.5036400000000001  1.0000
  N   N119      1.0  0.38487  0.38488  0.46931000000000006  1.0000
  N   N120      1.0  0.39868999999999993  0.3986299999999999  0.37193  1.0000
  N   N121      1.0  0.71679  0.71681  0.58228  1.0000
  N   N122      1.0  0.67627  0.67625  0.49640000000000006  1.0000
  N   N123      1.0  0.6152  0.61518  0.53074  1.0000
  N   N124      1.0  0.6013800000000001  0.60139  0.6281000000000001  1.0000
  N   N125      1.0  0.28344  4e-05  0.5822500000000002  1.0000
  N   N126      1.0  0.3237  0.99995  0.49634000000000006  1.0000
  N   N127      1.0  0.38461999999999996  0.99997  0.53071  1.0000
  N   N128      1.0  0.39857  0.0001  0.6280400000000002  1.0000
  N   N129      1.0  4.0000000000018956e-05  0.28343  0.58231  1.0000
  N   N130      1.0  0.99998  0.32372  0.49642000000000003  1.0000
  N   N131      1.0  0.99998  0.38455  0.53077  1.0000
  N   N132      1.0  0.0  0.3985299999999999  0.62808  1.0000
  N   N133      1.0  0.28331  0.28327  0.08221  1.0000
  N   N134      1.0  0.32381  0.32383  0.99636  1.0000
  N   N135      1.0  0.38489  0.38491  0.030750000000000006  1.0000
  N   N136      1.0  0.3986100000000001  0.39872  0.1281  1.0000
  N   N137      1.0  0.71668  1.0000000000000003e-05  0.08228000000000003  1.0000
  N   N138      1.0  0.67631  1.0000000000000021e-05  0.9964300000000003  1.0000
  N   N139      1.0  0.61545  4.266272362029719e-22  0.03079000000000001  1.0000
  N   N140      1.0  0.60148  0.99997  0.12806  1.0000
  N   N141      1.0  5.000000000001161e-05  0.71661  0.08230000000000001  1.0000
  N   N142      1.0  1.9999999999888634e-05  0.6762999999999998  0.99641  1.0000
  N   N143      1.0  1.0000000000040994e-05  0.61544  0.030750000000000006  1.0000
  N   N144      1.0  3.999999999997062e-05  0.60147  0.12807  1.0000
  Cl  Cl1       1.0  0.99999  0.33616  0.18269  1.0000
  Cl  Cl2       1.0  0.33610999999999996  0.99994  0.18267  1.0000
  Cl  Cl3       1.0  0.66375  0.66374  0.18276000000000006  1.0000
  Cl  Cl4       1.0  0.0  0.66374  0.6828  1.0000
  Cl  Cl5       1.0  0.66375  0.99995  0.68268  1.0000
  Cl  Cl6       1.0  0.33614  0.33612  0.6827800000000002  1.0000
  Cl  Cl7       1.0  0.6638900000000002  0.66385  0.31739  1.0000
  Cl  Cl8       1.0  0.33584  0.99989  0.31747000000000003  1.0000
  Cl  Cl9       1.0  9.999999999999906e-05  0.33625  0.31735  1.0000
  Cl  Cl10      1.0  0.33624  0.33626  0.81729  1.0000
  Cl  Cl11      1.0  0.6638300000000001  0.99997  0.8172  1.0000
  Cl  Cl12      1.0  0.9999100000000001  0.6639  0.81741  1.0000
  Cl  Cl13      1.0  0.9999600000000001  0.99986  0.75026  1.0000
  Cl  Cl14      1.0  0.0008300000000000188  0.99989  0.25109  1.0000
  Cl  Cl15      1.0  0.00017000000000002015  0.99989  0.00152  1.0000
  Cl  Cl16      1.0  0.0004899999999999784  0.9998799999999999  0.50293  1.0000
  O   O1        1.0  0.9246300000000001  0.08039  0.87532  1.0000
  O   O2        1.0  0.9154000000000001  0.19632  0.79627  1.0000
  O   O3        1.0  0.8116700000000002  0.08778  0.9044400000000001  1.0000
  O   O4        1.0  0.15568  0.07523  0.87544  1.0000
  O   O5        1.0  0.2810000000000001  0.08456  0.79617  1.0000
  O   O6        1.0  0.27628  0.18819  0.90448  1.0000
  O   O7        1.0  0.9198700000000001  0.84437  0.8753300000000003  1.0000
  O   O8        1.0  0.8036600000000002  0.71934  0.79629  1.0000
  O   O9        1.0  0.91151  0.7236  0.90454  1.0000
  O   O10       1.0  0.07557999999999998  0.91934  0.37507  1.0000
  O   O11       1.0  0.08448000000000001  0.80377  0.29627  1.0000
  O   O12       1.0  0.1880699999999999  0.9118899999999998  0.40460000000000007  1.0000
  O   O13       1.0  0.8453400000000001  0.9248  0.37484  1.0000
  O   O14       1.0  0.71921  0.9155  0.29619  1.0000
  O   O15       1.0  0.7243500000000002  0.81206  0.4045  1.0000
  O   O16       1.0  0.08048000000000001  0.15571  0.3750600000000001  1.0000
  O   O17       1.0  0.19654999999999997  0.28088999999999986  0.29613  1.0000
  O   O18       1.0  0.08819  0.27621  0.40455000000000013  1.0000
  O   O19       1.0  0.84493  0.91986  0.6245  1.0000
  O   O20       1.0  0.7194100000000002  0.80364  0.70368  1.0000
  O   O21       1.0  0.7239799999999997  0.9116899999999998  0.5958000000000001  1.0000
  O   O22       1.0  0.08056999999999993  0.92482  0.6245100000000001  1.0000
  O   O23       1.0  0.19639999999999988  0.9155099999999998  0.7037200000000001  1.0000
  O   O24       1.0  0.08777999999999996  0.81171  0.59561  1.0000
  O   O25       1.0  0.07508  0.15543  0.62453  1.0000
  O   O26       1.0  0.08447999999999997  0.28074  0.70367  1.0000
  O   O27       1.0  0.18836000000000003  0.27622  0.5956200000000001  1.0000
  O   O28       1.0  0.15559  0.08031  0.12467000000000003  1.0000
  O   O29       1.0  0.28070000000000006  0.19632  0.20378000000000002  1.0000
  O   O30       1.0  0.2763  0.08828  0.09568000000000002  1.0000
  O   O31       1.0  0.9200300000000001  0.07525  0.12471  1.0000
  O   O32       1.0  0.80375  0.08465  0.20380000000000006  1.0000
  O   O33       1.0  0.91206  0.18798  0.09572  1.0000
  O   O34       1.0  0.9246900000000001  0.8443  0.12473000000000002  1.0000
  O   O35       1.0  0.91555  0.71932  0.20363000000000003  1.0000
  O   O36       1.0  0.8114799999999999  0.72359  0.09550000000000002  1.0000
  O   O37       1.0  0.07499999999999991  0.9198  0.12475000000000001  1.0000
  O   O38       1.0  0.08457999999999999  0.80384  0.20369  1.0000
  O   O39       1.0  0.18764  0.91181  0.09586000000000001  1.0000
  O   O40       1.0  0.8446700000000001  0.92462  0.12471  1.0000
  O   O41       1.0  0.7190399999999999  0.91534  0.20383000000000007  1.0000
  O   O42       1.0  0.7237199999999999  0.8114699999999998  0.09554000000000003  1.0000
  O   O43       1.0  0.08052  0.1559  0.12464000000000003  1.0000
  O   O44       1.0  0.19638  0.28063  0.20369  1.0000
  O   O45       1.0  0.08832  0.27651  0.09561  1.0000
  O   O46       1.0  0.92514  0.08065  0.62455  1.0000
  O   O47       1.0  0.9154499999999999  0.19632  0.70368  1.0000
  O   O48       1.0  0.8120400000000001  0.08792  0.59574  1.0000
  O   O49       1.0  0.15507  0.07497  0.62446  1.0000
  O   O50       1.0  0.28067000000000003  0.08441  0.70373  1.0000
  O   O51       1.0  0.2760000000000001  0.18819  0.59559  1.0000
  O   O52       1.0  0.9197900000000001  0.84447  0.6244800000000001  1.0000
  O   O53       1.0  0.8036199999999999  0.7193499999999998  0.7037200000000001  1.0000
  O   O54       1.0  0.9117600000000001  0.72361  0.59567  1.0000
  O   O55       1.0  0.15545000000000003  0.07969999999999998  0.3750600000000001  1.0000
  O   O56       1.0  0.28056  0.19627  0.29618000000000005  1.0000
  O   O57       1.0  0.27634  0.08851999999999997  0.40448000000000006  1.0000
  O   O58       1.0  0.9195500000000001  0.07537  0.37486000000000014  1.0000
  O   O59       1.0  0.80356  0.08441  0.29621  1.0000
  O   O60       1.0  0.9124200000000001  0.1882  0.40456  1.0000
  O   O61       1.0  0.9252100000000001  0.84448  0.3749700000000001  1.0000
  O   O62       1.0  0.91534  0.71899  0.29618000000000005  1.0000
  O   O63       1.0  0.81222  0.72397  0.40453  1.0000
  O   O64       1.0  0.84419  0.91959  0.8754500000000002  1.0000
  O   O65       1.0  0.71925  0.80359  0.7962600000000001  1.0000
  O   O66       1.0  0.72358  0.91177  0.90443  1.0000
  O   O67       1.0  0.08037000000000008  0.9247  0.87535  1.0000
  O   O68       1.0  0.1964500000000001  0.91529  0.7961600000000002  1.0000
  O   O69       1.0  0.08820999999999998  0.81215  0.9044900000000002  1.0000
  O   O70       1.0  0.07539  0.15539  0.8753000000000002  1.0000
  O   O71       1.0  0.08456000000000001  0.28085  0.79627  1.0000
  O   O72       1.0  0.18844  0.27625  0.9044700000000001  1.0000
