data_image0
_chemical_formula_structural       Cd8H192C200N32O32
_chemical_formula_sum              "Cd8 H192 C200 N32 O32"
_cell_length_a       12.28218
_cell_length_b       23.04556
_cell_length_c       25.47625
_cell_angle_alpha    87.66115999999998
_cell_angle_beta     94.61609
_cell_angle_gamma    105.50099

_symmetry_space_group_name_H-M    'P 1'
_symmetry_Int_Tables_number       1

loop_
  _symmetry_equiv_pos_as_xyz
  'x,y,z'

loop_
  _atom_site_type_symbol
  _atom_site_label
  _atom_site_symmetry_multiplicity
  _atom_site_fract_x
  _atom_site_fract_y
  _atom_site_fract_z
  _atom_site_occupancy
  Cd  Cd1       1.0  0.79842  0.69039  0.91201  1.0000
  Cd  Cd2       1.0  0.07515000000000001  0.31161  0.37831  1.0000
  Cd  Cd3       1.0  0.57412  0.0002700000000000005  0.43811  1.0000
  Cd  Cd4       1.0  0.65739  0.017160000000000005  0.92614  1.0000
  Cd  Cd5       1.0  0.9254599999999998  0.6881100000000001  0.62205  1.0000
  Cd  Cd6       1.0  0.20403  0.31089  0.08776  1.0000
  Cd  Cd7       1.0  0.3462  0.98415  0.0732  1.0000
  Cd  Cd8       1.0  0.42743  0.0010500000000000004  0.56182  1.0000
  H   H1        1.0  0.9627899999999999  0.9006300000000003  0.55263  1.0000
  H   H2        1.0  0.8580100000000002  0.8094400000000003  0.6006  1.0000
  H   H3        1.0  0.5627600000000003  0.8792400000000002  0.57934  1.0000
  H   H4        1.0  0.68102  0.9678300000000001  0.53248  1.0000
  H   H5        1.0  0.7069000000000002  0.7192200000000001  0.62243  1.0000
  H   H6        1.0  0.75792  0.77211  0.67466  1.0000
  H   H7        1.0  0.44863000000000003  0.7127200000000001  0.62865  1.0000
  H   H8        1.0  0.4254800000000001  0.64838  0.6729999999999999  1.0000
  H   H9        1.0  0.29402000000000006  0.6154000000000001  0.60245  1.0000
  H   H10       1.0  0.18500000000000008  0.55415  0.52923  1.0000
  H   H11       1.0  0.47448  0.54335  0.46222  1.0000
  H   H12       1.0  0.59756  0.59824  0.53704  1.0000
  H   H13       1.0  0.49348999999999993  0.72832  0.74769  1.0000
  H   H14       1.0  0.52526  0.7874  0.69835  1.0000
  H   H15       1.0  0.47948000000000013  0.8265500000000001  0.77266  1.0000
  H   H16       1.0  0.5022300000000001  0.9167900000000001  0.8270099999999998  1.0000
  H   H17       1.0  0.8506199999999999  0.9502200000000002  0.84164  1.0000
  H   H18       1.0  0.84388  0.85775  0.7902599999999999  1.0000
  H   H19       1.0  0.7041999999999999  0.6872800000000001  0.7470899999999999  1.0000
  H   H20       1.0  0.6713400000000002  0.63491  0.69366  1.0000
  H   H21       1.0  0.74214  0.61857  0.80068  1.0000
  H   H22       1.0  0.7443099999999999  0.54471  0.8750499999999999  1.0000
  H   H23       1.0  0.39936  0.46907  0.85183  1.0000
  H   H24       1.0  0.3800100000000001  0.5450900000000001  0.78064  1.0000
  H   H25       1.0  0.5826  0.12662999999999996  0.51686  1.0000
  H   H26       1.0  0.6778699999999999  0.20403000000000002  0.58221  1.0000
  H   H27       1.0  0.9668400000000003  0.1294  0.58797  1.0000
  H   H28       1.0  0.8571000000000002  0.05400000000000001  0.5225  1.0000
  H   H29       1.0  0.82546  0.28580000000000005  0.61216  1.0000
  H   H30       1.0  0.7729200000000003  0.23654000000000006  0.666  1.0000
  H   H31       1.0  0.06778000000000003  0.29763  0.62809  1.0000
  H   H32       1.0  0.11497999999999997  0.35539  0.6764499999999999  1.0000
  H   H33       1.0  0.20001000000000005  0.35337000000000013  0.58344  1.0000
  H   H34       1.0  0.25524  0.37463  0.49205  1.0000
  H   H35       1.0  0.98984  0.45022000000000006  0.45068999999999987  1.0000
  H   H36       1.0  0.91908  0.42978  0.54193  1.0000
  H   H37       1.0  0.042989999999999993  0.28684  0.7546  1.0000
  H   H38       1.0  0.02086  0.2278  0.70778  1.0000
  H   H39       1.0  0.06969000000000002  0.19984000000000002  0.79843  1.0000
  H   H40       1.0  0.06973999999999998  0.10018  0.84142  1.0000
  H   H41       1.0  0.72239  0.03857000000000001  0.81725  1.0000
  H   H42       1.0  0.70874  0.13474  0.7694099999999999  1.0000
  H   H43       1.0  0.8244200000000002  0.3197900000000001  0.73294  1.0000
  H   H44       1.0  0.86155  0.37313000000000013  0.67888  1.0000
  H   H45       1.0  0.7822300000000002  0.3977600000000003  0.75998  1.0000
  H   H46       1.0  0.76243  0.4692600000000001  0.82782  1.0000
  H   H47       1.0  0.10725999999999992  0.52071  0.86561  1.0000
  H   H48       1.0  0.14162  0.44965000000000005  0.8006699999999999  1.0000
  H   H49       1.0  0.07889000000000002  0.12014000000000001  0.06051  1.0000
  H   H50       1.0  0.057989999999999986  0.20367  0.11314999999999999  1.0000
  H   H51       1.0  0.69503  0.13541  0.08315999999999998  1.0000
  H   H52       1.0  0.73237  0.05366  0.0323  1.0000
  H   H53       1.0  0.99529  0.29128  0.12972  1.0000
  H   H54       1.0  0.98957  0.24058000000000002  0.18561999999999998  1.0000
  H   H55       1.0  0.74779  0.3001400000000001  0.12791  1.0000
  H   H56       1.0  0.7774099999999999  0.36319  0.17093999999999998  1.0000
  H   H57       1.0  0.6843  0.3897500000000001  0.09374  1.0000
  H   H58       1.0  0.6339800000000001  0.44105  0.01122  1.0000
  H   H59       1.0  0.94359  0.45645  0.95277  1.0000
  H   H60       1.0  0.01574000000000003  0.41247000000000006  0.03656  1.0000
  H   H61       1.0  0.77073  0.29021  0.25321  1.0000
  H   H62       1.0  0.73762  0.22973000000000005  0.20682  1.0000
  H   H63       1.0  0.65974  0.20444000000000007  0.2932  1.0000
  H   H64       1.0  0.58201  0.11552000000000003  0.35092  1.0000
  H   H65       1.0  0.8752899999999999  0.05914  0.35327  1.0000
  H   H66       1.0  0.9691399999999999  0.14774000000000004  0.29664  1.0000
  H   H67       1.0  0.01874000000000001  0.33056  0.25234  1.0000
  H   H68       1.0  0.03637  0.38048  0.19527  1.0000
  H   H69       1.0  0.12701000000000004  0.4167500000000001  0.29084  1.0000
  H   H70       1.0  0.18126  0.48227  0.36950999999999995  1.0000
  H   H71       1.0  0.86432  0.51381  0.3645399999999999  1.0000
  H   H72       1.0  0.79293  0.44492  0.28829  1.0000
  H   H73       1.0  0.46266000000000007  0.9069500000000001  0.03452  1.0000
  H   H74       1.0  0.47259000000000007  0.8264400000000002  0.10068  1.0000
  H   H75       1.0  0.8358700000000001  0.8758100000000001  0.08799  1.0000
  H   H76       1.0  0.81004  0.9564800000000002  0.02323  1.0000
  H   H77       1.0  0.52602  0.73307  0.12569  1.0000
  H   H78       1.0  0.5333  0.78371  0.17864999999999998  1.0000
  H   H79       1.0  0.7637099999999999  0.71955  0.14144  1.0000
  H   H80       1.0  0.74271  0.65889  0.18904  1.0000
  H   H81       1.0  0.8343799999999999  0.6493900000000001  0.10446  1.0000
  H   H82       1.0  0.87406  0.6084400000000001  0.02187  1.0000
  H   H83       1.0  0.53516  0.5520300000000001  0.9721599999999999  1.0000
  H   H84       1.0  0.47779000000000005  0.5880500000000001  0.05505  1.0000
  H   H85       1.0  0.7519399999999999  0.72962  0.26471  1.0000
  H   H86       1.0  0.7808800000000001  0.7908400000000002  0.21745  1.0000
  H   H87       1.0  0.88114  0.82813  0.29194  1.0000
  H   H88       1.0  0.9679100000000002  0.9180600000000002  0.3442099999999999  1.0000
  H   H89       1.0  0.65936  0.9557600000000003  0.35518  1.0000
  H   H90       1.0  0.55647  0.86521  0.30394  1.0000
  H   H91       1.0  0.4872099999999999  0.6930800000000001  0.2431  1.0000
  H   H92       1.0  0.48609  0.64208  0.19132  1.0000
  H   H93       1.0  0.36651000000000006  0.5865900000000001  0.23535  1.0000
  H   H94       1.0  0.25769000000000003  0.4970500000000001  0.28104  1.0000
  H   H95       1.0  0.53959  0.48020000000000007  0.37455  1.0000
  H   H96       1.0  0.6626500000000001  0.5708100000000002  0.33275  1.0000
  H   H97       1.0  0.9208099999999999  0.8788900000000001  0.94122  1.0000
  H   H98       1.0  0.9414  0.79772  0.88566  1.0000
  H   H99       1.0  0.30448  0.867  0.9134  1.0000
  H   H100      1.0  0.26777000000000006  0.94654  0.9675899999999998  1.0000
  H   H101      1.0  0.003510000000000041  0.7120200000000002  0.86788  1.0000
  H   H102      1.0  0.011570000000000028  0.7612200000000001  0.81093  1.0000
  H   H103      1.0  0.25121999999999994  0.70134  0.8699599999999998  1.0000
  H   H104      1.0  0.2209000000000001  0.6367100000000001  0.82884  1.0000
  H   H105      1.0  0.3149600000000001  0.61278  0.90585  1.0000
  H   H106      1.0  0.3633799999999999  0.55929  0.9872299999999999  1.0000
  H   H107      1.0  0.052999999999999964  0.54321  0.04524999999999999  1.0000
  H   H108      1.0  0.9831999999999997  0.58993  0.9623299999999998  1.0000
  H   H109      1.0  0.22753000000000007  0.7090100000000001  0.745  1.0000
  H   H110      1.0  0.26318  0.77003  0.79088  1.0000
  H   H111      1.0  0.3403200000000001  0.7955600000000003  0.7050699999999999  1.0000
  H   H112      1.0  0.41999000000000003  0.8864500000000002  0.64956  1.0000
  H   H113      1.0  0.12550000000000008  0.9415300000000001  0.6460599999999999  1.0000
  H   H114      1.0  0.02970999999999999  0.8509300000000001  0.7005099999999997  1.0000
  H   H115      1.0  0.98009  0.6687  0.74618  1.0000
  H   H116      1.0  0.96367  0.62097  0.80491  1.0000
  H   H117      1.0  0.87182  0.58215  0.70937  1.0000
  H   H118      1.0  0.81781  0.5172200000000001  0.63025  1.0000
  H   H119      1.0  0.13520999999999994  0.4866  0.63459  1.0000
  H   H120      1.0  0.20605999999999997  0.55444  0.71147  1.0000
  H   H121      1.0  0.53739  0.09276000000000002  0.96518  1.0000
  H   H122      1.0  0.5273  0.17357000000000003  0.8992  1.0000
  H   H123      1.0  0.16425  0.12409000000000003  0.9117299999999998  1.0000
  H   H124      1.0  0.18999999999999995  0.043340000000000004  0.9766399999999997  1.0000
  H   H125      1.0  0.474  0.26672  0.8745199999999999  1.0000
  H   H126      1.0  0.46663  0.21633  0.82138  1.0000
  H   H127      1.0  0.23622000000000004  0.28033  0.85861  1.0000
  H   H128      1.0  0.25737  0.34115  0.81116  1.0000
  H   H129      1.0  0.16515  0.35056  0.89538  1.0000
  H   H130      1.0  0.12507  0.39225  0.9776  1.0000
  H   H131      1.0  0.46390999999999993  0.4487900000000001  0.027629999999999995  1.0000
  H   H132      1.0  0.52144  0.4120400000000001  0.94496  1.0000
  H   H133      1.0  0.24786  0.27039  0.73548  1.0000
  H   H134      1.0  0.21919  0.20907000000000003  0.78259  1.0000
  H   H135      1.0  0.11865  0.17195  0.70853  1.0000
  H   H136      1.0  0.03153  0.08214  0.65606  1.0000
  H   H137      1.0  0.33993999999999996  0.04449  0.6444899999999999  1.0000
  H   H138      1.0  0.44319  0.13502000000000003  0.69569  1.0000
  H   H139      1.0  0.5128200000000002  0.30704  0.75704  1.0000
  H   H140      1.0  0.51371  0.3578900000000001  0.8088999999999998  1.0000
  H   H141      1.0  0.63333  0.41378  0.76535  1.0000
  H   H142      1.0  0.74197  0.50326  0.71976  1.0000
  H   H143      1.0  0.46062  0.51967  0.62558  1.0000
  H   H144      1.0  0.33764  0.42884  0.6671599999999999  1.0000
  H   H145      1.0  0.03737  0.09963  0.44737  1.0000
  H   H146      1.0  0.14206  0.19087  0.39921  1.0000
  H   H147      1.0  0.43758  0.1214  0.4207199999999999  1.0000
  H   H148      1.0  0.31966  0.03297  0.46785  1.0000
  H   H149      1.0  0.2929  0.28131000000000006  0.37783999999999995  1.0000
  H   H150      1.0  0.24215000000000003  0.22879000000000005  0.32535  1.0000
  H   H151      1.0  0.55056  0.28723  0.37117999999999995  1.0000
  H   H152      1.0  0.57444  0.35190000000000005  0.32706  1.0000
  H   H153      1.0  0.70596  0.3850900000000001  0.39718  1.0000
  H   H154      1.0  0.81536  0.4456500000000001  0.47070999999999996  1.0000
  H   H155      1.0  0.52616  0.4562100000000001  0.53827  1.0000
  H   H156      1.0  0.40279  0.40207  0.4631099999999999  1.0000
  H   H157      1.0  0.50625  0.27201  0.25211  1.0000
  H   H158      1.0  0.47513  0.21301  0.30139  1.0000
  H   H159      1.0  0.52024  0.17403  0.22740999999999997  1.0000
  H   H160      1.0  0.49790999999999996  0.08404  0.17273  1.0000
  H   H161      1.0  0.14963  0.05059000000000002  0.15771  1.0000
  H   H162      1.0  0.15569  0.14269  0.20941  1.0000
  H   H163      1.0  0.29545  0.31325000000000003  0.2531  1.0000
  H   H164      1.0  0.33009  0.366  0.30618  1.0000
  H   H165      1.0  0.25815  0.38216  0.19941999999999996  1.0000
  H   H166      1.0  0.25591  0.45594  0.12518  1.0000
  H   H167      1.0  0.60138  0.53102  0.14769  1.0000
  H   H168      1.0  0.6210000000000002  0.45551  0.21906  1.0000
  H   H169      1.0  0.4190900000000001  0.8731300000000001  0.48510999999999993  1.0000
  H   H170      1.0  0.3257500000000001  0.7973700000000001  0.41784  1.0000
  H   H171      1.0  0.03755999999999998  0.8728800000000001  0.41072999999999993  1.0000
  H   H172      1.0  0.14438000000000012  0.9463700000000003  0.47852  1.0000
  H   H173      1.0  0.17251000000000016  0.7144000000000004  0.39103999999999994  1.0000
  H   H174      1.0  0.2311  0.7607400000000001  0.3362  1.0000
  H   H175      1.0  0.93426  0.70372  0.37265  1.0000
  H   H176      1.0  0.8859700000000001  0.6467900000000001  0.32359  1.0000
  H   H177      1.0  0.8011  0.6472200000000002  0.41647  1.0000
  H   H178      1.0  0.74522  0.62573  0.5079  1.0000
  H   H179      1.0  0.008919999999999992  0.54891  0.54898  1.0000
  H   H180      1.0  0.08022  0.5694800000000001  0.45798  1.0000
  H   H181      1.0  0.96647  0.71601  0.24484999999999998  1.0000
  H   H182      1.0  0.9768099999999998  0.77178  0.29395  1.0000
  H   H183      1.0  0.93185  0.80219  0.20435999999999999  1.0000
  H   H184      1.0  0.9304  0.89845  0.15683  1.0000
  H   H185      1.0  0.27715000000000006  0.9633700000000002  0.18051999999999999  1.0000
  H   H186      1.0  0.29363000000000006  0.8710700000000001  0.23327  1.0000
  H   H187      1.0  0.17552000000000012  0.6813500000000002  0.2666  1.0000
  H   H188      1.0  0.14056000000000002  0.6283200000000001  0.32106  1.0000
  H   H189      1.0  0.21804999999999997  0.6018  0.2417  1.0000
  H   H190      1.0  0.23729000000000003  0.5302800000000001  0.17424999999999993  1.0000
  H   H191      1.0  0.8931200000000001  0.48049000000000003  0.13489  1.0000
  H   H192      1.0  0.85843  0.55172  0.19953  1.0000
  C   C1        1.0  0.87387  0.8949500000000001  0.55928  1.0000
  C   C2        1.0  0.81535  0.8435600000000001  0.58674  1.0000
  C   C3        1.0  0.70146  0.83777  0.59459  1.0000
  C   C4        1.0  0.65128  0.88265  0.57415  1.0000
  C   C5        1.0  0.7180499999999999  0.9318800000000003  0.54789  1.0000
  C   C6        1.0  0.6829700000000002  0.7484000000000001  0.65004  1.0000
  C   C7        1.0  0.5915099999999999  0.71087  0.6848099999999999  1.0000
  C   C8        1.0  0.48726000000000014  0.6794100000000001  0.64914  1.0000
  C   C9        1.0  0.45646  0.61455  0.57388  1.0000
  C   C10       1.0  0.33842  0.60102  0.57233  1.0000
  C   C11       1.0  0.27703  0.56679  0.53028  1.0000
  C   C12       1.0  0.4368400000000001  0.5600500000000002  0.4938  1.0000
  C   C13       1.0  0.50642  0.59162  0.53468  1.0000
  C   C14       1.0  0.55802  0.7536300000000002  0.72165  1.0000
  C   C15       1.0  0.66064  0.8339900000000001  0.77861  1.0000
  C   C16       1.0  0.56329  0.85149  0.7879299999999999  1.0000
  C   C17       1.0  0.57677  0.90263  0.8180799999999999  1.0000
  C   C18       1.0  0.77055  0.9199400000000001  0.82693  1.0000
  C   C19       1.0  0.7666800000000003  0.8693100000000002  0.79812  1.0000
  C   C20       1.0  0.63807  0.66383  0.71802  1.0000
  C   C21       1.0  0.55999  0.58722  0.78434  1.0000
  C   C22       1.0  0.66401  0.5866500000000001  0.8108199999999998  1.0000
  C   C23       1.0  0.66519  0.54447  0.85206  1.0000
  C   C24       1.0  0.47381  0.50344  0.84007  1.0000
  C   C25       1.0  0.46215000000000006  0.5450100000000001  0.8001399999999999  1.0000
  C   C26       1.0  0.66868  0.12905000000000003  0.53287  1.0000
  C   C27       1.0  0.72222  0.17255000000000004  0.57003  1.0000
  C   C28       1.0  0.8316099999999998  0.17306  0.59026  1.0000
  C   C29       1.0  0.88189  0.13016  0.5728  1.0000
  C   C30       1.0  0.8208500000000001  0.08887000000000002  0.53563  1.0000
  C   C31       1.0  0.8487100000000001  0.25844000000000006  0.64535  1.0000
  C   C32       1.0  0.94117  0.2982  0.6827499999999999  1.0000
  C   C33       1.0  0.042160000000000024  0.3307  0.65081  1.0000
  C   C34       1.0  0.04988000000000003  0.38706000000000007  0.56855  1.0000
  C   C35       1.0  0.14901999999999999  0.37393000000000004  0.55543  1.0000
  C   C36       1.0  0.18083000000000002  0.38675  0.5038  1.0000
  C   C37       1.0  0.03307  0.4277800000000001  0.48095  1.0000
  C   C38       1.0  0.9927900000000001  0.4167600000000001  0.53096  1.0000
  C   C39       1.0  0.9814100000000001  0.25868000000000013  0.7259799999999997  1.0000
  C   C40       1.0  0.88959  0.17377000000000006  0.7789899999999998  1.0000
  C   C41       1.0  0.99167  0.16460000000000002  0.80081  1.0000
  C   C42       1.0  0.9904799999999999  0.10921000000000002  0.8258  1.0000
  C   C43       1.0  0.79782  0.07549  0.81195  1.0000
  C   C44       1.0  0.78986  0.12869000000000003  0.78561  1.0000
  C   C45       1.0  0.8926699999999999  0.34403  0.70849  1.0000
  C   C46       1.0  0.96383  0.4183600000000001  0.77561  1.0000
  C   C47       1.0  0.85595  0.42399000000000003  0.78303  1.0000
  C   C48       1.0  0.84585  0.46451  0.82052  1.0000
  C   C49       1.0  0.036839999999999984  0.49288  0.84149  1.0000
  C   C50       1.0  0.056730000000000017  0.45349  0.80573  1.0000
  C   C51       1.0  0.99429  0.12414000000000001  0.06647  1.0000
  C   C52       1.0  0.9826699999999999  0.17149  0.09644  1.0000
  C   C53       1.0  0.87353  0.17614000000000002  0.103  1.0000
  C   C54       1.0  0.78144  0.13339000000000004  0.07916  1.0000
  C   C55       1.0  0.80303  0.08782  0.05070999999999999  1.0000
  C   C56       1.0  0.93997  0.26354  0.15837  1.0000
  C   C57       1.0  0.88449  0.30291  0.18906  1.0000
  C   C58       1.0  0.8149899999999999  0.33377000000000007  0.14965  1.0000
  C   C59       1.0  0.85366  0.3946700000000001  0.07044  1.0000
  C   C60       1.0  0.74492  0.40343  0.06373  1.0000
  C   C61       1.0  0.71644  0.43160000000000004  0.01679  1.0000
  C   C62       1.0  0.8890900000000002  0.4408100000000001  0.98508  1.0000
  C   C63       1.0  0.92871  0.41553  0.03089  1.0000
  C   C64       1.0  0.80622  0.26285  0.22828  1.0000
  C   C65       1.0  0.82211  0.18362000000000003  0.29085  1.0000
  C   C66       1.0  0.7113  0.17385000000000006  0.30584  1.0000
  C   C67       1.0  0.66814  0.12378000000000002  0.3384  1.0000
  C   C68       1.0  0.8318099999999999  0.09347  0.34026999999999996  1.0000
  C   C69       1.0  0.8837600000000001  0.1424  0.30855  1.0000
  C   C70       1.0  0.97477  0.3514900000000001  0.22062999999999997  1.0000
  C   C71       1.0  0.9544999999999999  0.4249700000000001  0.28381  1.0000
  C   C72       1.0  0.06555  0.43669  0.30619  1.0000
  C   C73       1.0  0.09663000000000002  0.47480000000000006  0.34960999999999987  1.0000
  C   C74       1.0  0.92046  0.4913800000000001  0.34724999999999995  1.0000
  C   C75       1.0  0.8801000000000002  0.45324  0.30497  1.0000
  C   C76       1.0  0.5445000000000001  0.8986300000000003  0.04678  1.0000
  C   C77       1.0  0.54986  0.85319  0.08439  1.0000
  C   C78       1.0  0.6563000000000001  0.8444500000000001  0.09932  1.0000
  C   C79       1.0  0.7519800000000001  0.8817300000000001  0.07706  1.0000
  C   C80       1.0  0.7368499999999999  0.9260600000000001  0.04055  1.0000
  C   C81       1.0  0.5812800000000001  0.7596100000000001  0.15725  1.0000
  C   C82       1.0  0.6334400000000001  0.7188900000000004  0.19518  1.0000
  C   C83       1.0  0.7002100000000001  0.68661  0.16304  1.0000
  C   C84       1.0  0.65221  0.62563  0.08448  1.0000
  C   C85       1.0  0.7649199999999999  0.62913  0.07615999999999999  1.0000
  C   C86       1.0  0.7867  0.6054700000000001  0.02951  1.0000
  C   C87       1.0  0.59892  0.57442  0.00239  1.0000
  C   C88       1.0  0.56656  0.59553  0.04764  1.0000
  C   C89       1.0  0.71429  0.7578700000000003  0.23705999999999994  1.0000
  C   C90       1.0  0.7097899999999999  0.83797  0.29397  1.0000
  C   C91       1.0  0.82711  0.8539000000000001  0.3055  1.0000
  C   C92       1.0  0.8764300000000002  0.9056500000000001  0.33488  1.0000
  C   C93       1.0  0.70584  0.9259000000000001  0.34076999999999996  1.0000
  C   C94       1.0  0.6477900000000001  0.8750900000000003  0.31223  1.0000
  C   C95       1.0  0.5392499999999999  0.6718600000000001  0.22122999999999998  1.0000
  C   C96       1.0  0.5246499999999998  0.58688  0.28028  1.0000
  C   C97       1.0  0.40929  0.5651600000000001  0.26609  1.0000
  C   C98       1.0  0.34791999999999995  0.5137  0.29177  1.0000
  C   C99       1.0  0.50346  0.5045800000000001  0.3431599999999999  1.0000
  C   C100      1.0  0.57306  0.55545  0.31998  1.0000
  C   C101      1.0  0.005340000000000002  0.87557  0.9341699999999998  1.0000
  C   C102      1.0  0.016899999999999974  0.82952  0.90254  1.0000
  C   C103      1.0  0.12606999999999996  0.82536  0.8951299999999998  1.0000
  C   C104      1.0  0.21830000000000005  0.86836  0.91871  1.0000
  C   C105      1.0  0.19694  0.9126200000000002  0.9488999999999999  1.0000
  C   C106      1.0  0.0600100000000001  0.7385400000000001  0.83903  1.0000
  C   C107      1.0  0.11483999999999991  0.6980100000000001  0.8091399999999999  1.0000
  C   C108      1.0  0.18390000000000006  0.6673400000000002  0.8489799999999998  1.0000
  C   C109      1.0  0.14549000000000006  0.6075500000000001  0.92889  1.0000
  C   C110      1.0  0.25383999999999995  0.5984400000000001  0.93549  1.0000
  C   C111      1.0  0.28126000000000007  0.5690000000000001  0.98181  1.0000
  C   C112      1.0  0.10829000000000005  0.5594100000000001  0.01333  1.0000
  C   C113      1.0  0.06972999999999994  0.58609  0.9680499999999997  1.0000
  C   C114      1.0  0.19343999999999995  0.73722  0.76959  1.0000
  C   C115      1.0  0.1781200000000001  0.81631  0.70692  1.0000
  C   C116      1.0  0.28962  0.82661  0.69283  1.0000
  C   C117      1.0  0.33339  0.8775800000000001  0.66147  1.0000
  C   C118      1.0  0.16872000000000004  0.90716  0.65904  1.0000
  C   C119      1.0  0.11598000000000015  0.8573900000000001  0.68951  1.0000
  C   C120      1.0  0.024300000000000002  0.64879  0.77848  1.0000
  C   C121      1.0  0.04436000000000002  0.57436  0.71621  1.0000
  C   C122      1.0  0.93335  0.56257  0.69378  1.0000
  C   C123      1.0  0.9024499999999999  0.52496  0.6500999999999999  1.0000
  C   C124      1.0  0.07895000000000002  0.50878  0.65215  1.0000
  C   C125      1.0  0.11904000000000003  0.5463500000000001  0.69482  1.0000
  C   C126      1.0  0.45556  0.10110000000000002  0.9529  1.0000
  C   C127      1.0  0.4501699999999999  0.14664  0.9154199999999999  1.0000
  C   C128      1.0  0.34368  0.15534000000000003  0.9005199999999999  1.0000
  C   C129      1.0  0.24796999999999997  0.11802000000000001  0.9227299999999999  1.0000
  C   C130      1.0  0.26312  0.07367000000000001  0.9592  1.0000
  C   C131      1.0  0.4187199999999999  0.24038000000000007  0.84283  1.0000
  C   C132      1.0  0.3666  0.28114000000000006  0.80491  1.0000
  C   C133      1.0  0.29978000000000005  0.31332000000000004  0.8371  1.0000
  C   C134      1.0  0.34720999999999996  0.37446  0.91556  1.0000
  C   C135      1.0  0.23442000000000002  0.37105000000000005  0.92369  1.0000
  C   C136      1.0  0.21248  0.39507  0.97013  1.0000
  C   C137      1.0  0.40025  0.42622  0.99743  1.0000
  C   C138      1.0  0.43270000000000003  0.40477  0.9523499999999999  1.0000
  C   C139      1.0  0.2857  0.24216  0.76305  1.0000
  C   C140      1.0  0.28997  0.16217  0.7060699999999999  1.0000
  C   C141      1.0  0.17254  0.14620000000000002  0.6947899999999999  1.0000
  C   C142      1.0  0.12303  0.09451  0.66533  1.0000
  C   C143      1.0  0.29358  0.07433000000000001  0.65904  1.0000
  C   C144      1.0  0.35181  0.12511  0.68759  1.0000
  C   C145      1.0  0.46074  0.3282  0.7789  1.0000
  C   C146      1.0  0.47531000000000007  0.4132100000000001  0.72005  1.0000
  C   C147      1.0  0.59049  0.43508  0.7345  1.0000
  C   C148      1.0  0.65185  0.48656000000000005  0.70888  1.0000
  C   C149      1.0  0.49667000000000006  0.49542000000000014  0.6571099999999999  1.0000
  C   C150      1.0  0.42709  0.4444700000000001  0.68016  1.0000
  C   C151      1.0  0.12635  0.10539  0.44073  1.0000
  C   C152      1.0  0.18475000000000003  0.15674  0.41309999999999997  1.0000
  C   C153      1.0  0.29876  0.16276000000000002  0.40529999999999994  1.0000
  C   C154      1.0  0.34901  0.11795000000000003  0.42580999999999997  1.0000
  C   C155      1.0  0.2824499999999999  0.06878  0.45226  1.0000
  C   C156      1.0  0.31704999999999994  0.2523  0.3500799999999999  1.0000
  C   C157      1.0  0.4084299999999999  0.28957000000000005  0.3151699999999999  1.0000
  C   C158      1.0  0.51257  0.3208500000000001  0.35081  1.0000
  C   C159      1.0  0.54362  0.3856800000000001  0.42609  1.0000
  C   C160      1.0  0.66164  0.39922000000000013  0.42752  1.0000
  C   C161      1.0  0.7232899999999999  0.43314  0.46971999999999997  1.0000
  C   C162      1.0  0.5637  0.43975000000000003  0.50647  1.0000
  C   C163      1.0  0.49395  0.40850000000000003  0.4654499999999999  1.0000
  C   C164      1.0  0.4419  0.24677  0.27829  1.0000
  C   C165      1.0  0.33908999999999995  0.16661  0.22121  1.0000
  C   C166      1.0  0.43654  0.14917  0.21195  1.0000
  C   C167      1.0  0.42332  0.09815  0.18168  1.0000
  C   C168      1.0  0.22954  0.08082  0.17265  1.0000
  C   C169      1.0  0.23312999999999998  0.13133  0.20156999999999997  1.0000
  C   C170      1.0  0.3623000000000001  0.33660000000000007  0.28189  1.0000
  C   C171      1.0  0.44067  0.41308  0.21554  1.0000
  C   C172      1.0  0.3365  0.4138900000000001  0.18926999999999997  1.0000
  C   C173      1.0  0.33518999999999993  0.45608000000000004  0.14805  1.0000
  C   C174      1.0  0.52682  0.49683  0.15967  1.0000
  C   C175      1.0  0.5385700000000001  0.45531000000000005  0.19967  1.0000
  C   C176      1.0  0.3337300000000001  0.8716800000000001  0.46833  1.0000
  C   C177      1.0  0.2815499999999999  0.82892  0.43018999999999996  1.0000
  C   C178      1.0  0.17240000000000008  0.8286700000000002  0.40939  1.0000
  C   C179      1.0  0.12201000000000005  0.87177  0.42653  1.0000
  C   C180      1.0  0.1815300000000001  0.9120800000000002  0.46484  1.0000
  C   C181      1.0  0.15361999999999998  0.7414000000000002  0.35655  1.0000
  C   C182      1.0  0.06089000000000007  0.7028500000000001  0.31842  1.0000
  C   C183      1.0  0.9590200000000001  0.6704300000000001  0.34972  1.0000
  C   C184      1.0  0.95032  0.6130600000000002  0.43145  1.0000
  C   C185      1.0  0.85133  0.6263000000000001  0.4446  1.0000
  C   C186      1.0  0.81927  0.6132000000000001  0.4962  1.0000
  C   C187      1.0  0.96616  0.57153  0.51874  1.0000
  C   C188      1.0  0.006749999999999978  0.58283  0.46880999999999995  1.0000
  C   C189      1.0  0.021990000000000055  0.7435300000000001  0.27583  1.0000
  C   C190      1.0  0.11303000000000006  0.8298200000000001  0.22416  1.0000
  C   C191      1.0  0.010189999999999998  0.83697  0.20115999999999998  1.0000
  C   C192      1.0  0.009989999999999988  0.89072  0.17355  1.0000
  C   C193      1.0  0.20225000000000015  0.9265700000000002  0.18713  1.0000
  C   C194      1.0  0.21186000000000005  0.87525  0.2162  1.0000
  C   C195      1.0  0.10837000000000002  0.65729  0.29179  1.0000
  C   C196      1.0  0.036359999999999996  0.58281  0.22500999999999993  1.0000
  C   C197      1.0  0.14409999999999995  0.57641  0.21824  1.0000
  C   C198      1.0  0.15399000000000004  0.5355900000000001  0.18098999999999998  1.0000
  C   C199      1.0  0.96334  0.50816  0.15921  1.0000
  C   C200      1.0  0.94344  0.54785  0.1947  1.0000
  N   N1        1.0  0.8281300000000004  0.9390000000000005  0.54002  1.0000
  N   N2        1.0  0.32283  0.5474  0.49053  1.0000
  N   N3        1.0  0.57314  0.5022  0.86624  1.0000
  N   N4        1.0  0.67733  0.9365700000000002  0.83732  1.0000
  N   N5        1.0  0.7156500000000001  0.08799  0.51543  1.0000
  N   N6        1.0  0.12432  0.41215  0.46623  1.0000
  N   N7        1.0  0.9335400000000001  0.4993300000000001  0.84938  1.0000
  N   N8        1.0  0.89625  0.0647  0.8314599999999999  1.0000
  N   N9        1.0  0.9074100000000002  0.08216  0.04390999999999999  1.0000
  N   N10       1.0  0.7843499999999999  0.44895000000000007  0.9771299999999999  1.0000
  N   N11       1.0  0.02683999999999998  0.50245  0.37005  1.0000
  N   N12       1.0  0.72565  0.08386  0.35557  1.0000
  N   N13       1.0  0.63475  0.9346200000000002  0.024839999999999997  1.0000
  N   N14       1.0  0.70714  0.57968  0.9921299999999998  1.0000
  N   N15       1.0  0.39185000000000003  0.4826500000000001  0.32976  1.0000
  N   N16       1.0  0.81876  0.94186  0.35261  1.0000
  N   N17       1.0  0.09244000000000015  0.9169100000000002  0.95745  1.0000
  N   N18       1.0  0.21252  0.55058  0.02101  1.0000
  N   N19       1.0  0.97266  0.4977900000000001  0.62942  1.0000
  N   N20       1.0  0.2756900000000001  0.9174900000000001  0.64463  1.0000
  N   N21       1.0  0.36526999999999993  0.06506  0.9747899999999999  1.0000
  N   N22       1.0  0.2919300000000001  0.4210700000000001  0.0075099999999999984  1.0000
  N   N23       1.0  0.60808  0.51755  0.67079  1.0000
  N   N24       1.0  0.18058999999999992  0.05837  0.64739  1.0000
  N   N25       1.0  0.17234  0.06149  0.46018999999999993  1.0000
  N   N26       1.0  0.6777000000000001  0.45227000000000006  0.50968  1.0000
  N   N27       1.0  0.42735  0.4981500000000001  0.13364  1.0000
  N   N28       1.0  0.32287  0.06431000000000002  0.16223  1.0000
  N   N29       1.0  0.2857200000000001  0.91222  0.48618  1.0000
  N   N30       1.0  0.87552  0.58759  0.53367  1.0000
  N   N31       1.0  0.06649999999999999  0.50125  0.15169  1.0000
  N   N32       1.0  0.10309000000000006  0.93542  0.16643999999999998  1.0000
  O   O1        1.0  0.63281  0.7913400000000003  0.62156  1.0000
  O   O2        1.0  0.52939  0.64762  0.61131  1.0000
  O   O3        1.0  0.6608800000000001  0.7836300000000003  0.75185  1.0000
  O   O4        1.0  0.54342  0.62641  0.74464  1.0000
  O   O5        1.0  0.8958600000000001  0.21296000000000004  0.62656  1.0000
  O   O6        1.0  0.0024000000000000423  0.3724700000000001  0.61569  1.0000
  O   O7        1.0  0.8817099999999999  0.22474000000000002  0.7506399999999998  1.0000
  O   O8        1.0  0.98584  0.3800200000000001  0.74108  1.0000
  O   O9        1.0  0.84831  0.22003000000000003  0.13089  1.0000
  O   O10       1.0  0.89432  0.36811  0.11391  1.0000
  O   O11       1.0  0.87601  0.23148  0.2603  1.0000
  O   O12       1.0  0.9099899999999999  0.38735000000000014  0.24306  1.0000
  O   O13       1.0  0.6763300000000001  0.8019700000000001  0.13537  1.0000
  O   O14       1.0  0.61725  0.6491400000000002  0.12667  1.0000
  O   O15       1.0  0.6500600000000002  0.7889800000000002  0.26493  1.0000
  O   O16       1.0  0.5934100000000001  0.6369800000000001  0.2582  1.0000
  O   O17       1.0  0.15175000000000016  0.7826000000000001  0.86602  1.0000
  O   O18       1.0  0.10532  0.63473  0.88575  1.0000
  O   O19       1.0  0.12407000000000008  0.76824  0.7371599999999999  1.0000
  O   O20       1.0  0.08841999999999998  0.61187  0.7570699999999998  1.0000
  O   O21       1.0  0.32362  0.19783000000000006  0.8645199999999998  1.0000
  O   O22       1.0  0.3825200000000001  0.3506500000000001  0.87363  1.0000
  O   O23       1.0  0.34991  0.21119000000000002  0.73501  1.0000
  O   O24       1.0  0.40657  0.36300000000000004  0.74196  1.0000
  O   O25       1.0  0.36738  0.20930000000000007  0.37841  1.0000
  O   O26       1.0  0.47056000000000003  0.3526600000000001  0.38873  1.0000
  O   O27       1.0  0.33882999999999996  0.21681000000000003  0.24816  1.0000
  O   O28       1.0  0.45707  0.37345  0.25488  1.0000
  O   O29       1.0  0.10840000000000018  0.7886200000000002  0.37313999999999997  1.0000
  O   O30       1.0  0.99729  0.62765  0.38422  1.0000
  O   O31       1.0  0.12292999999999998  0.78067  0.25465  1.0000
  O   O32       1.0  0.014360000000000107  0.6209100000000002  0.25971  1.0000
