data_image0
_chemical_formula_structural       Zn20H104C180N60O48
_chemical_formula_sum              "Zn20 H104 C180 N60 O48"
_cell_length_a       26.38665
_cell_length_b       26.396039999999996
_cell_length_c       26.39151
_cell_angle_alpha    101.31832
_cell_angle_beta     113.70408
_cell_angle_gamma    113.76833

_space_group_name_H-M_alt    "P 1"
_space_group_IT_number       1

loop_
  _space_group_symop_operation_xyz
  'x, y, z'

loop_
  _atom_site_type_symbol
  _atom_site_label
  _atom_site_symmetry_multiplicity
  _atom_site_fract_x
  _atom_site_fract_y
  _atom_site_fract_z
  _atom_site_occupancy
  Zn  Zn1       1.0  0.09566000000000002  0.6736100000000002  0.09541  1.0000
  Zn  Zn2       1.0  0.9197400000000002  0.4498200000000001  0.8693  1.0000
  Zn  Zn3       1.0  0.9036400000000002  0.99957  0.57672  1.0000
  Zn  Zn4       1.0  0.07795000000000002  0.9491600000000002  0.5279  1.0000
  Zn  Zn5       1.0  0.57627  0.57599  0.6722  1.0000
  Zn  Zn6       1.0  0.5787700000000001  0.5280500000000001  0.4495799999999999  1.0000
  Zn  Zn7       1.0  0.4213600000000001  0.09553  0.9993  1.0000
  Zn  Zn8       1.0  0.41767000000000004  0.8692200000000001  0.94689  1.0000
  Zn  Zn9       1.0  0.57686  0.16995000000000005  0.07242  1.0000
  Zn  Zn10      1.0  0.5778200000000002  0.9517800000000002  0.027479999999999997  1.0000
  Zn  Zn11      1.0  0.42148  0.49619000000000013  0.59299  1.0000
  Zn  Zn12      1.0  0.41946  0.44718  0.37155999999999995  1.0000
  Zn  Zn13      1.0  0.9016700000000002  0.07308999999999999  0.49520999999999993  1.0000
  Zn  Zn14      1.0  0.07436000000000001  0.027330000000000024  0.44737  1.0000
  Zn  Zn15      1.0  0.09695  0.59321  0.16979  1.0000
  Zn  Zn16      1.0  0.92361  0.3732000000000001  0.95192  1.0000
  Zn  Zn17      1.0  0.008199999999999994  0.52274  0.01841  1.0000
  Zn  Zn18      1.0  0.9899400000000002  0.01004000000000001  0.51266  1.0000
  Zn  Zn19      1.0  0.50198  0.51289  0.52201  1.0000
  Zn  Zn20      1.0  0.4952600000000001  0.01838  0.00976  1.0000
  H   H1        1.0  0.11440999999999989  0.5623199999999999  0.8222999999999999  1.0000
  H   H2        1.0  0.20707999999999996  0.62956  0.81362  1.0000
  H   H3        1.0  0.14863000000000007  0.61889  0.02688  1.0000
  H   H4        1.0  0.81557  0.69813  0.83351  1.0000
  H   H5        1.0  0.2174900000000001  0.6915300000000002  0.00997  1.0000
  H   H6        1.0  0.9123200000000002  0.7009200000000001  0.90959  1.0000
  H   H7        1.0  0.30698999999999993  0.7591499999999999  0.9993499999999998  1.0000
  H   H8        1.0  0.9943399999999999  0.70835  0.00356  1.0000
  H   H9        1.0  0.6899000000000002  0.5105  0.79137  1.0000
  H   H10       1.0  0.78662  0.51202  0.8675  1.0000
  H   H11       1.0  0.11508000000000013  0.8142800000000001  0.21589999999999998  1.0000
  H   H12       1.0  0.11510000000000001  0.8650100000000001  0.4671699999999999  1.0000
  H   H13       1.0  0.11225999999999998  0.88834  0.28757  1.0000
  H   H14       1.0  0.88332  0.70702  0.44759  1.0000
  H   H15       1.0  0.78999  0.60576  0.42184  1.0000
  H   H16       1.0  0.8494900000000002  0.8774600000000001  0.46954999999999997  1.0000
  H   H17       1.0  0.18376000000000006  0.01777000000000003  0.88147  1.0000
  H   H18       1.0  0.78167  0.79271  0.47452999999999995  1.0000
  H   H19       1.0  0.08708000000000002  0.9971400000000001  0.7874699999999999  1.0000
  H   H20       1.0  0.69131  0.69252  0.45202  1.0000
  H   H21       1.0  0.0054599999999999866  0.009570000000000004  0.71344  1.0000
  H   H22       1.0  0.30940000000000006  0.10162999999999993  0.81964  1.0000
  H   H23       1.0  0.21268000000000006  0.08086000000000007  0.72435  1.0000
  H   H24       1.0  0.8851600000000001  0.10129  0.69955  1.0000
  H   H25       1.0  0.8829600000000002  0.35114  0.74855  1.0000
  H   H26       1.0  0.88763  0.17548999999999998  0.7761799999999999  1.0000
  H   H27       1.0  0.73983  0.44756  0.56291  1.0000
  H   H28       1.0  0.81534  0.4219800000000001  0.63025  1.0000
  H   H29       1.0  0.59167  0.46955  0.61915  1.0000
  H   H30       1.0  0.8644500000000003  0.8822800000000001  0.69894  1.0000
  H   H31       1.0  0.68097  0.47405  0.69173  1.0000
  H   H32       1.0  0.7909200000000002  0.7883600000000002  0.70159  1.0000
  H   H33       1.0  0.75849  0.45164  0.75909  1.0000
  H   H34       1.0  0.70375  0.71303  0.70831  1.0000
  H   H35       1.0  0.71887  0.81971  0.51104  1.0000
  H   H36       1.0  0.6441700000000002  0.7245700000000003  0.51258  1.0000
  H   H37       1.0  0.5985500000000002  0.6997000000000002  0.81481  1.0000
  H   H38       1.0  0.39610000000000006  0.74818  0.8638699999999999  1.0000
  H   H39       1.0  0.6002200000000001  0.77626  0.88855  1.0000
  H   H40       1.0  0.2586599999999999  0.82355  0.70596  1.0000
  H   H41       1.0  0.18301000000000012  0.8154  0.60473  1.0000
  H   H42       1.0  0.4068799999999999  0.027689999999999944  0.8776599999999999  1.0000
  H   H43       1.0  0.13515000000000005  0.8336000000000001  0.01823  1.0000
  H   H44       1.0  0.31811000000000006  0.011300000000000013  0.7916099999999999  1.0000
  H   H45       1.0  0.20816000000000012  0.90971  0.99733  1.0000
  H   H46       1.0  0.24018000000000006  0.0011300000000000051  0.6915  1.0000
  H   H47       1.0  0.2948700000000001  0.00387  0.00928  1.0000
  H   H48       1.0  0.2814200000000001  0.7922100000000001  0.10133  1.0000
  H   H49       1.0  0.3555800000000002  0.8685200000000001  0.08047  1.0000
  H   H50       1.0  0.40137000000000017  0.21573  0.10044  1.0000
  H   H51       1.0  0.60232  0.46781  0.35142  1.0000
  H   H52       1.0  0.39919000000000004  0.28761  0.17493  1.0000
  H   H53       1.0  0.7595200000000001  0.09010999999999997  0.9848099999999999  1.0000
  H   H54       1.0  0.8426700000000001  0.16355999999999996  0.9694499999999999  1.0000
  H   H55       1.0  0.5774300000000002  0.11460000000000001  0.9609  1.0000
  H   H56       1.0  0.8640500000000001  0.19676999999999997  0.37403999999999993  1.0000
  H   H57       1.0  0.66112  0.18820999999999988  0.9565599999999999  1.0000
  H   H58       1.0  0.7870200000000002  0.19701  0.28007  1.0000
  H   H59       1.0  0.74403  0.26032  0.9412399999999999  1.0000
  H   H60       1.0  0.70433  0.20445000000000005  0.20608  1.0000
  H   H61       1.0  0.7168  0.013540000000000002  0.32315  1.0000
  H   H62       1.0  0.6387400000000001  0.012029999999999997  0.2273  1.0000
  H   H63       1.0  0.61162  0.32023  0.20928  1.0000
  H   H64       1.0  0.39357000000000003  0.33748000000000006  0.25038  1.0000
  H   H65       1.0  0.6111800000000002  0.39261  0.28556  1.0000
  H   H66       1.0  0.23947  0.22383000000000003  0.32992  1.0000
  H   H67       1.0  0.15610000000000004  0.12526  0.31994  1.0000
  H   H68       1.0  0.42004  0.38358  0.53659  1.0000
  H   H69       1.0  0.13520000000000001  0.5104  0.33157999999999993  1.0000
  H   H70       1.0  0.3378300000000002  0.29392000000000007  0.52657  1.0000
  H   H71       1.0  0.21201000000000012  0.49347000000000013  0.40897  1.0000
  H   H72       1.0  0.25491  0.19565000000000002  0.51563  1.0000
  H   H73       1.0  0.29444  0.50275  0.49936  1.0000
  H   H74       1.0  0.28252000000000005  0.6062900000000001  0.29554  1.0000
  H   H75       1.0  0.3603500000000001  0.58859  0.37231  1.0000
  H   H76       1.0  0.38817  0.59755  0.70837  1.0000
  H   H77       1.0  0.6051200000000002  0.8569600000000002  0.9447899999999999  1.0000
  H   H78       1.0  0.3881800000000001  0.67386  0.7808899999999999  1.0000
  H   H79       1.0  0.8931900000000003  0.98504  0.22361  1.0000
  H   H80       1.0  0.80416  0.9692  0.12499  1.0000
  H   H81       1.0  0.8452200000000003  0.9622300000000003  0.3822  1.0000
  H   H82       1.0  0.1772700000000001  0.3742800000000001  0.51006  1.0000
  H   H83       1.0  0.76662  0.9564300000000001  0.29374  1.0000
  H   H84       1.0  0.08312999999999998  0.28037  0.49321  1.0000
  H   H85       1.0  0.67899  0.94049  0.19543  1.0000
  H   H86       1.0  0.0018700000000000073  0.20689  0.50189  1.0000
  H   H87       1.0  0.3097400000000001  0.32344000000000006  0.60577  1.0000
  H   H88       1.0  0.21538  0.22779000000000002  0.58825  1.0000
  H   H89       1.0  0.8888  0.20969000000000002  0.59794  1.0000
  H   H90       1.0  0.9123200000000002  0.2514  0.85739  1.0000
  H   H91       1.0  0.8923500000000001  0.28559  0.67445  1.0000
  H   H92       1.0  0.10470000000000003  0.32979  0.0892  1.0000
  H   H93       1.0  0.19343000000000002  0.31982000000000005  0.16226  1.0000
  H   H94       1.0  0.15330000000000005  0.5366600000000001  0.11532999999999999  1.0000
  H   H95       1.0  0.8224200000000003  0.33247  0.19671  1.0000
  H   H96       1.0  0.23165  0.52654  0.18853  1.0000
  H   H97       1.0  0.91647  0.40977  0.19687  1.0000
  H   H98       1.0  0.3189  0.51538  0.26019  1.0000
  H   H99       1.0  0.9977  0.49997000000000014  0.20433000000000004  1.0000
  H   H100      1.0  0.68956  0.2958799999999999  0.013449999999999998  1.0000
  H   H101      1.0  0.78386  0.37261  0.012049999999999998  1.0000
  H   H102      1.0  0.11062000000000015  0.7087400000000003  0.32034  1.0000
  H   H103      1.0  0.08681999999999993  0.9441600000000001  0.33767  1.0000
  H   H104      1.0  0.10667000000000008  0.7815400000000002  0.39251  1.0000
  C   C1        1.0  0.15710999999999997  0.60507  0.8609899999999999  1.0000
  C   C2        1.0  0.10811000000000012  0.5844000000000003  0.92437  1.0000
  C   C3        1.0  0.20833  0.64245  0.85608  1.0000
  C   C4        1.0  0.10976  0.58868  0.9794  1.0000
  C   C5        1.0  0.15997  0.6218900000000002  0.9169199999999998  1.0000
  C   C6        1.0  0.26271  0.69839  0.90602  1.0000
  C   C7        1.0  0.6908  0.60539  0.7641  1.0000
  C   C8        1.0  0.8104300000000001  0.65792  0.84143  1.0000
  C   C9        1.0  0.21541000000000005  0.6776500000000001  0.96719  1.0000
  C   C10       1.0  0.8638100000000002  0.6592200000000003  0.8838999999999999  1.0000
  C   C11       1.0  0.7474200000000001  0.6041499999999999  0.8077499999999999  1.0000
  C   C12       1.0  0.26538  0.7154500000000001  0.9614799999999999  1.0000
  C   C13       1.0  0.31736  0.7409400000000002  0.9011799999999999  1.0000
  C   C14       1.0  0.97232  0.6595200000000001  0.9894799999999999  1.0000
  C   C15       1.0  0.85576  0.60647  0.89396  1.0000
  C   C16       1.0  0.9106900000000001  0.60846  0.94024  1.0000
  C   C17       1.0  0.73902  0.55145  0.81726  1.0000
  C   C18       1.0  0.7923900000000003  0.55227  0.8593699999999999  1.0000
  C   C19       1.0  0.11351000000000008  0.8080900000000001  0.25491  1.0000
  C   C20       1.0  0.09030000000000005  0.9276500000000001  0.37261999999999995  1.0000
  C   C21       1.0  0.11168999999999997  0.84909  0.295  1.0000
  C   C22       1.0  0.8407400000000003  0.7032300000000002  0.44767999999999997  1.0000
  C   C23       1.0  0.8902100000000003  0.8157900000000002  0.47589  1.0000
  C   C24       1.0  0.78917  0.6471800000000001  0.43366  1.0000
  C   C25       1.0  0.8884000000000003  0.86904  0.4781  1.0000
  C   C26       1.0  0.8383600000000001  0.7565400000000001  0.46184  1.0000
  C   C27       1.0  0.7349400000000003  0.6430500000000001  0.43521  1.0000
  C   C28       1.0  0.30863  0.07334000000000006  0.91347  1.0000
  C   C29       1.0  0.18894  0.03093999999999999  0.84646  1.0000
  C   C30       1.0  0.7831800000000002  0.75173  0.46239  1.0000
  C   C31       1.0  0.13556999999999994  0.020019999999999993  0.79433  1.0000
  C   C32       1.0  0.2519100000000001  0.06035000000000004  0.85575  1.0000
  C   C33       1.0  0.73284  0.6961100000000001  0.44995999999999997  1.0000
  C   C34       1.0  0.67986  0.58355  0.42267  1.0000
  C   C35       1.0  0.027179999999999996  0.017239999999999995  0.68638  1.0000
  C   C36       1.0  0.14362  0.03819000000000003  0.74965  1.0000
  C   C37       1.0  0.08869  0.029589999999999998  0.69676  1.0000
  C   C38       1.0  0.26031999999999994  0.07831999999999996  0.8114699999999999  1.0000
  C   C39       1.0  0.20695999999999992  0.06698999999999995  0.7588599999999999  1.0000
  C   C40       1.0  0.88646  0.14170000000000002  0.69475  1.0000
  C   C41       1.0  0.90837  0.28246  0.8368999999999999  1.0000
  C   C42       1.0  0.88806  0.18353000000000008  0.7374500000000002  1.0000
  C   C43       1.0  0.7436400000000001  0.44758  0.60552  1.0000
  C   C44       1.0  0.6594700000000002  0.47580000000000006  0.58456  1.0000
  C   C45       1.0  0.78567  0.43359000000000003  0.64295  1.0000
  C   C46       1.0  0.60864  0.4782800000000001  0.58882  1.0000
  C   C47       1.0  0.7044600000000001  0.46163  0.62215  1.0000
  C   C48       1.0  0.79124  0.43500000000000005  0.69865  1.0000
  C   C49       1.0  0.8411  0.91436  0.60617  1.0000
  C   C50       1.0  0.8162300000000002  0.8472200000000001  0.65864  1.0000
  C   C51       1.0  0.7097  0.462  0.67779  1.0000
  C   C52       1.0  0.7749700000000003  0.7951000000000001  0.6599  1.0000
  C   C53       1.0  0.7961599999999999  0.8563899999999999  0.6048899999999999  1.0000
  C   C54       1.0  0.7528600000000001  0.44957  0.71553  1.0000
  C   C55       1.0  0.8380200000000003  0.42243000000000014  0.74119  1.0000
  C   C56       1.0  0.6691800000000001  0.68619  0.65945  1.0000
  C   C57       1.0  0.71212  0.75019  0.60703  1.0000
  C   C58       1.0  0.6676100000000003  0.6971000000000003  0.60868  1.0000
  C   C59       1.0  0.73391  0.81187  0.55211  1.0000
  C   C60       1.0  0.69259  0.75924  0.55285  1.0000
  C   C61       1.0  0.55311  0.69471  0.80839  1.0000
  C   C62       1.0  0.5534700000000002  0.8365000000000002  0.9278499999999998  1.0000
  C   C63       1.0  0.5536200000000002  0.7373400000000001  0.84919  1.0000
  C   C64       1.0  0.25498000000000004  0.8623900000000001  0.70217  1.0000
  C   C65       1.0  0.3392299999999999  0.9254  0.81466  1.0000
  C   C66       1.0  0.21285000000000012  0.8577600000000002  0.64615  1.0000
  C   C67       1.0  0.38981000000000005  0.98019  0.86855  1.0000
  C   C68       1.0  0.29433000000000015  0.9182300000000002  0.75549  1.0000
  C   C69       1.0  0.2072900000000001  0.9079000000000003  0.64209  1.0000
  C   C70       1.0  0.15901000000000004  0.7643100000000002  0.07327  1.0000
  C   C71       1.0  0.18334  0.84167  0.03119  1.0000
  C   C72       1.0  0.28914  0.96865  0.75069  1.0000
  C   C73       1.0  0.22433  0.88419  0.02014  1.0000
  C   C74       1.0  0.20374000000000012  0.8082100000000002  0.06042999999999999  1.0000
  C   C75       1.0  0.24584000000000011  0.9632200000000003  0.6951099999999999  1.0000
  C   C76       1.0  0.16020999999999996  0.90336  0.5827  1.0000
  C   C77       1.0  0.3294400000000002  0.9896700000000003  0.01677  1.0000
  C   C78       1.0  0.2871800000000001  0.89441  0.03805  1.0000
  C   C79       1.0  0.3312800000000001  0.94055  0.02914  1.0000
  C   C80       1.0  0.26603000000000016  0.8179000000000002  0.07816  1.0000
  C   C81       1.0  0.30711000000000005  0.86009  0.06678  1.0000
  C   C82       1.0  0.4466800000000001  0.25483  0.14099  1.0000
  C   C83       1.0  0.44501000000000007  0.37283000000000005  0.28173  1.0000
  C   C84       1.0  0.44589  0.29501  0.18291  1.0000
  C   C85       1.0  0.7566400000000001  0.12742  0.9751999999999998  1.0000
  C   C86       1.0  0.6568600000000002  0.09279000000000008  0.98066  1.0000
  C   C87       1.0  0.80254  0.1679499999999999  0.96685  1.0000
  C   C88       1.0  0.59936  0.08884000000000007  0.97444  1.0000
  C   C89       1.0  0.7045700000000001  0.13398000000000002  0.97131  1.0000
  C   C90       1.0  0.79829  0.21634999999999993  0.95494  1.0000
  C   C91       1.0  0.84257  0.10773000000000006  0.4111  1.0000
  C   C92       1.0  0.81464  0.15699000000000002  0.3414  1.0000
  C   C93       1.0  0.7002  0.18228000000000005  0.9584899999999998  1.0000
  C   C94       1.0  0.7716200000000002  0.15693  0.28949  1.0000
  C   C95       1.0  0.7949600000000002  0.10499000000000003  0.35354  1.0000
  C   C96       1.0  0.7462800000000003  0.22262  0.95027  1.0000
  C   C97       1.0  0.8487900000000003  0.2606  0.94714  1.0000
  C   C98       1.0  0.6675300000000001  0.15583  0.1814  1.0000
  C   C99       1.0  0.7074  0.10438000000000003  0.24774  1.0000
  C   C100      1.0  0.66258  0.10521000000000001  0.19456999999999997  1.0000
  C   C101      1.0  0.7311600000000001  0.05287999999999999  0.31256  1.0000
  C   C102      1.0  0.6880200000000003  0.05206000000000001  0.2599  1.0000
  C   C103      1.0  0.56567  0.31401  0.20259999999999997  1.0000
  C   C104      1.0  0.5650400000000002  0.3543600000000001  0.24498  1.0000
  C   C105      1.0  0.24226000000000006  0.21701000000000006  0.37006  1.0000
  C   C106      1.0  0.34154000000000007  0.32239999999999996  0.43515999999999994  1.0000
  C   C107      1.0  0.19629000000000005  0.16275000000000003  0.36455  1.0000
  C   C108      1.0  0.39851  0.37431  0.48866  1.0000
  C   C109      1.0  0.29418000000000005  0.26526  0.4288  1.0000
  C   C110      1.0  0.20043999999999998  0.15513000000000002  0.41718999999999995  1.0000
  C   C111      1.0  0.15628000000000003  0.5681  0.26361  1.0000
  C   C112      1.0  0.18452000000000002  0.5269800000000001  0.34116  1.0000
  C   C113      1.0  0.29867000000000005  0.25676  0.48148  1.0000
  C   C114      1.0  0.22747  0.51819  0.38427  1.0000
  C   C115      1.0  0.20415000000000003  0.55855  0.30867  1.0000
  C   C116      1.0  0.25256  0.20239999999999997  0.47561999999999993  1.0000
  C   C117      1.0  0.14935  0.09717000000000002  0.41073  1.0000
  C   C118      1.0  0.33121000000000006  0.5143600000000002  0.48759  1.0000
  C   C119      1.0  0.29165  0.54053  0.39599  1.0000
  C   C120      1.0  0.33628  0.5321500000000001  0.4418  1.0000
  C   C121      1.0  0.26798  0.58138  0.32049  1.0000
  C   C122      1.0  0.31106000000000006  0.5719200000000002  0.36297  1.0000
  C   C123      1.0  0.4340800000000001  0.6368800000000001  0.74819  1.0000
  C   C124      1.0  0.43448  0.6797499999999999  0.7890399999999999  1.0000
  C   C125      1.0  0.8461200000000002  0.9751100000000001  0.21678  1.0000
  C   C126      1.0  0.8863800000000002  0.98085  0.32201  1.0000
  C   C127      1.0  0.79711  0.96646  0.16246  1.0000
  C   C128      1.0  0.8843500000000003  0.9751800000000003  0.37353  1.0000
  C   C129      1.0  0.8356900000000002  0.97129  0.26498  1.0000
  C   C130      1.0  0.73668  0.95425  0.15481  1.0000
  C   C131      1.0  0.30344  0.41131000000000006  0.56795  1.0000
  C   C132      1.0  0.1845  0.34167  0.52665  1.0000
  C   C133      1.0  0.7745000000000001  0.95826  0.25658  1.0000
  C   C134      1.0  0.13264  0.2898  0.51789  1.0000
  C   C135      1.0  0.24867  0.3538  0.55815  1.0000
  C   C136      1.0  0.7257800000000002  0.9496600000000002  0.20218999999999998  1.0000
  C   C137      1.0  0.68465  0.94672  0.09679  1.0000
  C   C138      1.0  0.025380000000000014  0.1819  0.51369  1.0000
  C   C139      1.0  0.14335000000000003  0.24806000000000003  0.54021  1.0000
  C   C140      1.0  0.08912  0.19487  0.53174  1.0000
  C   C141      1.0  0.25977  0.31287  0.5809  1.0000
  C   C142      1.0  0.20788000000000006  0.26028  0.57155  1.0000
  C   C143      1.0  0.88847  0.20293000000000005  0.63721  1.0000
  C   C144      1.0  0.89029  0.24518000000000006  0.68015  1.0000
  C   C145      1.0  0.15170000000000006  0.36996  0.12669  1.0000
  C   C146      1.0  0.11171999999999997  0.43525  0.09272999999999999  1.0000
  C   C147      1.0  0.20046000000000005  0.36441  0.16699  1.0000
  C   C148      1.0  0.11400000000000005  0.48889000000000005  0.08915  1.0000
  C   C149      1.0  0.16232000000000005  0.42873  0.13376  1.0000
  C   C150      1.0  0.26078  0.41701  0.21573  1.0000
  C   C151      1.0  0.6961300000000002  0.26443  0.10779  1.0000
  C   C152      1.0  0.8150900000000003  0.34190000000000004  0.15688  1.0000
  C   C153      1.0  0.22357  0.4813900000000001  0.18225  1.0000
  C   C154      1.0  0.8669  0.38498  0.15681  1.0000
  C   C155      1.0  0.7508300000000002  0.30929  0.1049  1.0000
  C   C156      1.0  0.2720300000000001  0.47546000000000005  0.22237  1.0000
  C   C157      1.0  0.31243  0.41053  0.26007  1.0000
  C   C158      1.0  0.9739500000000002  0.48806999999999995  0.15576  1.0000
  C   C159      1.0  0.85603  0.3965700000000001  0.10432  1.0000
  C   C160      1.0  0.9101200000000004  0.4422100000000001  0.10514  1.0000
  C   C161      1.0  0.73957  0.32091  0.05281999999999999  1.0000
  C   C162      1.0  0.79141  0.36341  0.05206  1.0000
  C   C163      1.0  0.11100000000000002  0.7483800000000002  0.31400999999999996  1.0000
  C   C164      1.0  0.10894000000000009  0.7894  0.35428  1.0000
  C   C165      1.0  0.11094  0.71176  0.21786  1.0000
  C   C166      1.0  0.11252000000000005  0.75709  0.26374  1.0000
  C   C167      1.0  0.10179999999999999  0.88206  0.38250999999999996  1.0000
  C   C168      1.0  0.10851000000000018  0.8399100000000003  0.34478  1.0000
  C   C169      1.0  0.8886  0.10670999999999997  0.60078  1.0000
  C   C170      1.0  0.8872200000000002  0.15126000000000003  0.64457  1.0000
  C   C171      1.0  0.8969400000000001  0.28056  0.77972  1.0000
  C   C172      1.0  0.89078  0.23624999999999996  0.73118  1.0000
  C   C173      1.0  0.4938500000000001  0.60059  0.71205  1.0000
  C   C174      1.0  0.49335000000000007  0.6444400000000001  0.7573  1.0000
  C   C175      1.0  0.49825000000000025  0.7792900000000001  0.88189  1.0000
  C   C176      1.0  0.49437  0.73085  0.83975  1.0000
  C   C177      1.0  0.50592  0.21788  0.10633  1.0000
  C   C178      1.0  0.5065600000000001  0.2637  0.15079  1.0000
  C   C179      1.0  0.50059  0.38278000000000006  0.28019  1.0000
  C   C180      1.0  0.5049900000000002  0.34489  0.23587  1.0000
  N   N1        1.0  0.01261999999999996  0.51689  0.90155  1.0000
  N   N2        1.0  0.046180000000000054  0.5382700000000001  0.8766899999999999  1.0000
  N   N3        1.0  0.050389999999999976  0.5462700000000001  0.9641699999999999  1.0000
  N   N4        1.0  0.004539999999999976  0.63773  0.02185  1.0000
  N   N5        1.0  0.9645200000000002  0.57517  0.99361  1.0000
  N   N6        1.0  0.9087100000000002  0.5568900000000001  0.94491  1.0000
  N   N7        1.0  0.09126000000000004  0.9262700000000001  0.45499  1.0000
  N   N8        1.0  0.10201999999999994  0.8835500000000001  0.43465  1.0000
  N   N9        1.0  0.98532  0.8883800000000001  0.50286  1.0000
  N   N10       1.0  0.9520000000000001  0.8300700000000001  0.49127999999999994  1.0000
  N   N11       1.0  0.9475000000000002  0.91314  0.49438999999999994  1.0000
  N   N12       1.0  0.9946800000000002  0.01709000000000001  0.63224  1.0000
  N   N13       1.0  0.03437000000000002  0.028489999999999988  0.60935  1.0000
  N   N14       1.0  0.09031999999999998  0.03590999999999999  0.64692  1.0000
  N   N15       1.0  0.90612  0.36317000000000005  0.83364  1.0000
  N   N16       1.0  0.89589  0.33206000000000013  0.78042  1.0000
  N   N17       1.0  0.6143800000000001  0.50337  0.51702  1.0000
  N   N18       1.0  0.6607500000000002  0.4913400000000001  0.53832  1.0000
  N   N19       1.0  0.58114  0.49495  0.5464  1.0000
  N   N20       1.0  0.61492  0.63199  0.63732  1.0000
  N   N21       1.0  0.58082  0.60953  0.57474  1.0000
  N   N22       1.0  0.6113300000000003  0.6474500000000001  0.55686  1.0000
  N   N23       1.0  0.4690600000000001  0.8333  0.92576  1.0000
  N   N24       1.0  0.44716000000000006  0.7800100000000001  0.88297  1.0000
  N   N25       1.0  0.38369  0.90199  0.88673  1.0000
  N   N26       1.0  0.3377000000000001  0.8774800000000001  0.82823  1.0000
  N   N27       1.0  0.41684000000000004  0.9646300000000001  0.91233  1.0000
  N   N28       1.0  0.3833300000000001  0.0217  0.01626  1.0000
  N   N29       1.0  0.41742000000000007  0.99335  0.02764  1.0000
  N   N30       1.0  0.3872300000000001  0.9449400000000002  0.03519  1.0000
  N   N31       1.0  0.5287400000000001  0.4558  0.3628  1.0000
  N   N32       1.0  0.5512100000000001  0.43528000000000006  0.33191  1.0000
  N   N33       1.0  0.61151  0.02142000000000001  0.00449  1.0000
  N   N34       1.0  0.6619700000000002  0.049070000000000016  0.99923  1.0000
  N   N35       1.0  0.57204  0.044349999999999994  0.98921  1.0000
  N   N36       1.0  0.6134  0.13404  0.12759  1.0000
  N   N37       1.0  0.57563  0.07165000000000002  0.10743  1.0000
  N   N38       1.0  0.60404  0.05385  0.14668  1.0000
  N   N39       1.0  0.46444  0.41813000000000006  0.33262  1.0000
  N   N40       1.0  0.38667  0.3910100000000001  0.40847999999999995  1.0000
  N   N41       1.0  0.3366  0.33513  0.38598  1.0000
  N   N42       1.0  0.42571000000000003  0.416  0.4710599999999999  1.0000
  N   N43       1.0  0.3851400000000001  0.5145  0.5201  1.0000
  N   N44       1.0  0.42278000000000004  0.5314700000000001  0.49529  1.0000
  N   N45       1.0  0.3946300000000001  0.54231  0.44898999999999994  1.0000
  N   N46       1.0  0.5334200000000002  0.8677  0.95308  1.0000
  N   N47       1.0  0.98154  0.004209999999999988  0.39075999999999994  1.0000
  N   N48       1.0  0.9484700000000003  0.99881  0.33506  1.0000
  N   N49       1.0  0.9436  0.9896500000000001  0.41534999999999994  1.0000
  N   N50       1.0  0.9929  0.12799  0.51362  1.0000
  N   N51       1.0  0.03489  0.10763000000000002  0.53099  1.0000
  N   N52       1.0  0.09213000000000002  0.14677000000000007  0.54198  1.0000
  N   N53       1.0  0.9137300000000002  0.3333500000000001  0.86802  1.0000
  N   N54       1.0  0.016529999999999937  0.40909  0.02119  1.0000
  N   N55       1.0  0.04942000000000005  0.38629000000000013  0.048740000000000006  1.0000
  N   N56       1.0  0.05474000000000001  0.47164  0.04452  1.0000
  N   N57       1.0  0.006089999999999982  0.52032  0.13401  1.0000
  N   N58       1.0  0.9638700000000003  0.49540000000000006  0.07162  1.0000
  N   N59       1.0  0.9067500000000001  0.4491300000000001  0.05379  1.0000
  N   N60       1.0  0.0840600000000001  0.9530900000000001  0.41757999999999995  1.0000
  O   O1        1.0  0.6961900000000002  0.6560400000000001  0.77037  1.0000
  O   O2        1.0  0.3269400000000001  0.7203400000000002  0.86083  1.0000
  O   O3        1.0  0.638  0.55327  0.7213099999999999  1.0000
  O   O4        1.0  0.3503900000000001  0.7971000000000001  0.94133  1.0000
  O   O5        1.0  0.11033000000000001  0.7234  0.17298  1.0000
  O   O6        1.0  0.30376999999999993  0.07412999999999997  0.9590399999999999  1.0000
  O   O7        1.0  0.6705600000000002  0.5336300000000002  0.39266  1.0000
  O   O8        1.0  0.36136  0.08355000000000007  0.91409  1.0000
  O   O9        1.0  0.6462600000000001  0.59043  0.44504999999999995  1.0000
  O   O10       1.0  0.8886000000000004  0.06208999999999999  0.61259  1.0000
  O   O11       1.0  0.88566  0.95966  0.65686  1.0000
  O   O12       1.0  0.8579700000000001  0.3924100000000001  0.7206999999999999  1.0000
  O   O13       1.0  0.83165  0.91507  0.55411  1.0000
  O   O14       1.0  0.85318  0.44478  0.7971  1.0000
  O   O15       1.0  0.55018  0.6122300000000002  0.7236  1.0000
  O   O16       1.0  0.11458000000000002  0.7702300000000001  0.07464  1.0000
  O   O17       1.0  0.14007000000000017  0.8625900000000002  0.53277  1.0000
  O   O18       1.0  0.16819  0.72139  0.08265  1.0000
  O   O19       1.0  0.14490999999999998  0.94396  0.58973  1.0000
  O   O20       1.0  0.44922000000000006  0.17287000000000005  0.06223999999999999  1.0000
  O   O21       1.0  0.89008  0.15917  0.45324  1.0000
  O   O22       1.0  0.88108  0.24527  0.93139  1.0000
  O   O23       1.0  0.8312100000000001  0.055839999999999994  0.4138  1.0000
  O   O24       1.0  0.8548200000000002  0.31374  0.95773  1.0000
  O   O25       1.0  0.56115  0.22744000000000003  0.11657  1.0000
  O   O26       1.0  0.10929000000000011  0.5634500000000001  0.26813  1.0000
  O   O27       1.0  0.11561000000000002  0.04915000000000003  0.36264  1.0000
  O   O28       1.0  0.16678000000000012  0.5809800000000002  0.22230999999999998  1.0000
  O   O29       1.0  0.14413999999999993  0.10190999999999999  0.4582899999999999  1.0000
  O   O30       1.0  0.43822000000000016  0.5562300000000001  0.66606  1.0000
  O   O31       1.0  0.29459000000000013  0.45386000000000004  0.56364  1.0000
  O   O32       1.0  0.6845800000000002  0.9323800000000001  0.048740000000000006  1.0000
  O   O33       1.0  0.35765  0.4137300000000001  0.58078  1.0000
  O   O34       1.0  0.64163  0.95625  0.1016  1.0000
  O   O35       1.0  0.8902100000000003  0.11766  0.55636  1.0000
  O   O36       1.0  0.7050400000000002  0.26953  0.1593  1.0000
  O   O37       1.0  0.3125100000000001  0.3626300000000001  0.24509999999999998  1.0000
  O   O38       1.0  0.6420400000000002  0.22271  0.05587  1.0000
  O   O39       1.0  0.35521000000000014  0.45782  0.31312  1.0000
  O   O40       1.0  0.10967  0.66586  0.22723  1.0000
  O   O41       1.0  0.08923999999999999  0.59755  0.09497  1.0000
  O   O42       1.0  0.9289600000000003  0.44631000000000004  0.94413  1.0000
  O   O43       1.0  0.9095000000000002  0.005770000000000011  0.50704  1.0000
  O   O44       1.0  0.06874  0.014519999999999988  0.51509  1.0000
  O   O45       1.0  0.50013  0.5071600000000002  0.59642  1.0000
  O   O46       1.0  0.50024  0.51505  0.44551  1.0000
  O   O47       1.0  0.4971000000000001  0.09498  0.005979999999999999  1.0000
  O   O48       1.0  0.4963500000000002  0.9435500000000002  0.01319  1.0000
