data_image0
_chemical_formula_structural       Na4Zn6H160C200O56
_chemical_formula_sum              "Na4 Zn6 H160 C200 O56"
_cell_length_a       17.10314
_cell_length_b       20.35174
_cell_length_c       20.57804
_cell_angle_alpha    90.03422
_cell_angle_beta     89.98412
_cell_angle_gamma    89.05737

_symmetry_space_group_name_H-M    'P 1'
_symmetry_Int_Tables_number       1

loop_
  _symmetry_equiv_pos_as_xyz
  'x,y,z'

loop_
  _atom_site_type_symbol
  _atom_site_label
  _atom_site_symmetry_multiplicity
  _atom_site_fract_x
  _atom_site_fract_y
  _atom_site_fract_z
  _atom_site_occupancy
  Na  Na1       1.0  0.60546  0.24333999999999997  0.34744  1.0000
  Na  Na2       1.0  0.89845  0.25667  0.85068  1.0000
  Na  Na3       1.0  0.39454999999999996  0.75666  0.65256  1.0000
  Na  Na4       1.0  0.10156  0.74333  0.14932000000000004  1.0000
  Zn  Zn1       1.0  0.34664  0.37341  0.9949200000000001  1.0000
  Zn  Zn2       1.0  0.15338  0.12636  0.49490000000000006  1.0000
  Zn  Zn3       1.0  0.65337  0.62659  0.00509  1.0000
  Zn  Zn4       1.0  0.84663  0.87364  0.5051  1.0000
  Zn  Zn5       1.0  0.50001  0.49999  0.0  1.0000
  Zn  Zn6       1.0  0.0  0.0  0.5  1.0000
  H   H1        1.0  0.45326  0.27839  0.83151  1.0000
  H   H2        1.0  0.50462  0.24658  0.7217500000000001  1.0000
  H   H3        1.0  0.58742  0.44373  0.69554  1.0000
  H   H4        1.0  0.53892  0.47314  0.80598  1.0000
  H   H5        1.0  0.87323  0.12912  0.50542  1.0000
  H   H6        1.0  0.80112  0.23538  0.52576  1.0000
  H   H7        1.0  0.59482  0.12792  0.57601  1.0000
  H   H8        1.0  0.66935  0.02201  0.55721  1.0000
  H   H9        1.0  0.37467  0.37152  0.20426  1.0000
  H   H10       1.0  0.41892  0.38916  0.31879  1.0000
  H   H11       1.0  0.6456  0.4439  0.24786000000000002  1.0000
  H   H12       1.0  0.5993  0.42743000000000003  0.13365  1.0000
  H   H13       1.0  0.63299  0.74149  0.37804  1.0000
  H   H14       1.0  0.58321  0.62864  0.36114  1.0000
  H   H15       1.0  0.73092  0.55904  0.5173700000000001  1.0000
  H   H16       1.0  0.77969  0.67279  0.5323800000000001  1.0000
  H   H17       1.0  0.54222  0.41872000000000004  0.59291  1.0000
  H   H18       1.0  0.61946  0.22829999999999998  0.65992  1.0000
  H   H19       1.0  0.59534  0.53173  0.32681000000000004  1.0000
  H   H20       1.0  0.64537  0.48429  0.5266100000000001  1.0000
  H   H21       1.0  0.78467  0.33156  0.47767000000000004  1.0000
  H   H22       1.0  0.72233  0.37796  0.42464  1.0000
  H   H23       1.0  0.41121  0.3187  0.39925000000000005  1.0000
  H   H24       1.0  0.44918  0.34881  0.47390000000000004  1.0000
  H   H25       1.0  0.83697  0.32824  0.36626000000000003  1.0000
  H   H26       1.0  0.80746  0.24793  0.39013  1.0000
  H   H27       1.0  0.51033  0.24096  0.49916000000000005  1.0000
  H   H28       1.0  0.40936  0.23050999999999996  0.48340000000000005  1.0000
  H   H29       1.0  0.81687  0.30382  0.25206  1.0000
  H   H30       1.0  0.79432  0.22190000000000001  0.27564  1.0000
  H   H31       1.0  0.38519  0.14479  0.3985  1.0000
  H   H32       1.0  0.39048  0.22085  0.35563  1.0000
  H   H33       1.0  0.6808  0.3179  0.20647  1.0000
  H   H34       1.0  0.73551  0.25371  0.16774  1.0000
  H   H35       1.0  0.49404  0.09994  0.32620000000000005  1.0000
  H   H36       1.0  0.41107  0.12744  0.28032  1.0000
  H   H37       1.0  0.55538  0.27319  0.19079000000000002  1.0000
  H   H38       1.0  0.60146  0.21262  0.14001  1.0000
  H   H39       1.0  0.47399  0.17352  0.18368  1.0000
  H   H40       1.0  0.55352  0.12345  0.21286000000000002  1.0000
  H   H41       1.0  0.04681  0.22163  0.33157  1.0000
  H   H42       1.0  0.99543  0.25343  0.22184  1.0000
  H   H43       1.0  0.91254  0.05627999999999999  0.19551  1.0000
  H   H44       1.0  0.9610599999999999  0.0269  0.30590000000000006  1.0000
  H   H45       1.0  0.62688  0.37085  0.00545  1.0000
  H   H46       1.0  0.6989099999999999  0.26463  0.025740000000000002  1.0000
  H   H47       1.0  0.90519  0.37209  0.07608  1.0000
  H   H48       1.0  0.83075  0.47796999999999995  0.05724000000000001  1.0000
  H   H49       1.0  0.12536  0.12851  0.70431  1.0000
  H   H50       1.0  0.08116  0.11081  0.81884  1.0000
  H   H51       1.0  0.8544  0.05611  0.748  1.0000
  H   H52       1.0  0.90072  0.07259  0.6337800000000001  1.0000
  H   H53       1.0  0.86716  0.75843  0.8778800000000001  1.0000
  H   H54       1.0  0.91685  0.87132  0.86111  1.0000
  H   H55       1.0  0.76906  0.9409299999999999  0.017380000000000003  1.0000
  H   H56       1.0  0.7204  0.8271399999999999  0.03237  1.0000
  H   H57       1.0  0.9578499999999999  0.08122  0.09305  1.0000
  H   H58       1.0  0.88072  0.27178  0.16005  1.0000
  H   H59       1.0  0.90437  0.96816  0.8267100000000002  1.0000
  H   H60       1.0  0.85442  0.01573  0.02654  1.0000
  H   H61       1.0  0.71536  0.16861  0.9778600000000001  1.0000
  H   H62       1.0  0.77771  0.12198  0.9248700000000001  1.0000
  H   H63       1.0  0.0901  0.18107  0.89985  1.0000
  H   H64       1.0  0.05188  0.15119  0.9744600000000001  1.0000
  H   H65       1.0  0.66362  0.17172  0.8660700000000001  1.0000
  H   H66       1.0  0.6928  0.25198  0.89037  1.0000
  H   H67       1.0  0.9902799999999999  0.25888  0.9993500000000001  1.0000
  H   H68       1.0  0.09114  0.26962  0.98372  1.0000
  H   H69       1.0  0.6839  0.19601  0.7527  1.0000
  H   H70       1.0  0.70657  0.27801  0.7758700000000002  1.0000
  H   H71       1.0  0.11523000000000001  0.35532  0.8986600000000001  1.0000
  H   H72       1.0  0.11002  0.2793  0.85557  1.0000
  H   H73       1.0  0.81938  0.18172  0.70645  1.0000
  H   H74       1.0  0.76559  0.24685999999999997  0.66836  1.0000
  H   H75       1.0  0.006290000000000001  0.40012999999999993  0.82636  1.0000
  H   H76       1.0  0.08929  0.37266  0.7805000000000001  1.0000
  H   H77       1.0  0.9455199999999999  0.22656  0.69059  1.0000
  H   H78       1.0  0.89803  0.28723  0.6407700000000001  1.0000
  H   H79       1.0  0.02616  0.32662  0.68391  1.0000
  H   H80       1.0  0.94626  0.37617  0.7132800000000001  1.0000
  H   H81       1.0  0.54675  0.72162  0.16849000000000006  1.0000
  H   H82       1.0  0.49539  0.75342  0.27825000000000005  1.0000
  H   H83       1.0  0.41259  0.55627  0.30446  1.0000
  H   H84       1.0  0.46108  0.52686  0.19403  1.0000
  H   H85       1.0  0.12678  0.8708899999999999  0.4945800000000001  1.0000
  H   H86       1.0  0.19888  0.76462  0.47424000000000005  1.0000
  H   H87       1.0  0.40518  0.87208  0.42399000000000003  1.0000
  H   H88       1.0  0.33066  0.978  0.4427900000000001  1.0000
  H   H89       1.0  0.62534  0.62849  0.79575  1.0000
  H   H90       1.0  0.58109  0.61085  0.68121  1.0000
  H   H91       1.0  0.35441  0.55611  0.7521400000000003  1.0000
  H   H92       1.0  0.40071000000000007  0.57257  0.8663500000000001  1.0000
  H   H93       1.0  0.36702  0.25851  0.62196  1.0000
  H   H94       1.0  0.41679  0.37137  0.63886  1.0000
  H   H95       1.0  0.26908  0.44097  0.48263  1.0000
  H   H96       1.0  0.22031  0.32722  0.46763000000000005  1.0000
  H   H97       1.0  0.4577899999999999  0.58128  0.40709000000000006  1.0000
  H   H98       1.0  0.38054  0.7717  0.34008000000000005  1.0000
  H   H99       1.0  0.40467  0.4682799999999999  0.67319  1.0000
  H   H100      1.0  0.35464  0.51572  0.47339  1.0000
  H   H101      1.0  0.21534  0.66845  0.5223300000000001  1.0000
  H   H102      1.0  0.27768  0.62205  0.5753600000000001  1.0000
  H   H103      1.0  0.5888  0.6813  0.60075  1.0000
  H   H104      1.0  0.55083  0.6512  0.52611  1.0000
  H   H105      1.0  0.16303  0.67176  0.63374  1.0000
  H   H106      1.0  0.19254  0.75207  0.60987  1.0000
  H   H107      1.0  0.48968000000000006  0.75905  0.5008400000000001  1.0000
  H   H108      1.0  0.59065  0.7695  0.5166000000000001  1.0000
  H   H109      1.0  0.18314  0.69619  0.74794  1.0000
  H   H110      1.0  0.20569  0.7781  0.7243600000000002  1.0000
  H   H111      1.0  0.61482  0.8552099999999999  0.6015100000000001  1.0000
  H   H112      1.0  0.60952  0.77915  0.6443800000000001  1.0000
  H   H113      1.0  0.31921  0.68211  0.7935300000000001  1.0000
  H   H114      1.0  0.2645  0.74629  0.83226  1.0000
  H   H115      1.0  0.50597  0.9000599999999999  0.6738  1.0000
  H   H116      1.0  0.58893  0.87256  0.71968  1.0000
  H   H117      1.0  0.44463  0.72681  0.8092100000000001  1.0000
  H   H118      1.0  0.39855  0.78739  0.86  1.0000
  H   H119      1.0  0.52601  0.82648  0.8163200000000002  1.0000
  H   H120      1.0  0.44649  0.87656  0.78714  1.0000
  H   H121      1.0  0.9532  0.77837  0.66843  1.0000
  H   H122      1.0  0.004579999999999998  0.74657  0.77816  1.0000
  H   H123      1.0  0.08747  0.94372  0.8044900000000001  1.0000
  H   H124      1.0  0.03895  0.9731  0.6941000000000002  1.0000
  H   H125      1.0  0.37313  0.62916  0.9945600000000001  1.0000
  H   H126      1.0  0.3011  0.73538  0.97426  1.0000
  H   H127      1.0  0.09482  0.62791  0.92392  1.0000
  H   H128      1.0  0.16925  0.52203  0.94276  1.0000
  H   H129      1.0  0.87465  0.8714899999999999  0.29569000000000006  1.0000
  H   H130      1.0  0.91884  0.8891899999999999  0.18116  1.0000
  H   H131      1.0  0.14560000000000003  0.9438899999999999  0.25201  1.0000
  H   H132      1.0  0.09928  0.9274099999999998  0.36622000000000005  1.0000
  H   H133      1.0  0.13285  0.24156999999999998  0.12212000000000002  1.0000
  H   H134      1.0  0.08315999999999998  0.12868  0.13890000000000002  1.0000
  H   H135      1.0  0.23095  0.05908  0.98262  1.0000
  H   H136      1.0  0.2796  0.17286  0.96764  1.0000
  H   H137      1.0  0.042159999999999996  0.91879  0.9069500000000001  1.0000
  H   H138      1.0  0.11929  0.72822  0.8399500000000002  1.0000
  H   H139      1.0  0.09564  0.03184  0.17329000000000003  1.0000
  H   H140      1.0  0.14559  0.98428  0.9734600000000001  1.0000
  H   H141      1.0  0.28465  0.8314  0.02214  1.0000
  H   H142      1.0  0.22229999999999997  0.8780199999999999  0.07513000000000002  1.0000
  H   H143      1.0  0.90991  0.81894  0.10015  1.0000
  H   H144      1.0  0.94813  0.84882  0.025540000000000004  1.0000
  H   H145      1.0  0.33638999999999997  0.8282799999999999  0.13393  1.0000
  H   H146      1.0  0.30721000000000004  0.74803  0.10963  1.0000
  H   H147      1.0  0.009730000000000003  0.74113  0.00065  1.0000
  H   H148      1.0  0.90887  0.73038  0.016290000000000002  1.0000
  H   H149      1.0  0.31611  0.804  0.24731  1.0000
  H   H150      1.0  0.29343  0.722  0.22413000000000002  1.0000
  H   H151      1.0  0.88477  0.64468  0.10134  1.0000
  H   H152      1.0  0.88999  0.7207  0.14443  1.0000
  H   H153      1.0  0.18062999999999999  0.81829  0.29355000000000003  1.0000
  H   H154      1.0  0.23441  0.75315  0.33164  1.0000
  H   H155      1.0  0.9937200000000002  0.59988  0.17364  1.0000
  H   H156      1.0  0.9107099999999999  0.62734  0.2195  1.0000
  H   H157      1.0  0.05448999999999999  0.77344  0.30941  1.0000
  H   H158      1.0  0.10198  0.71277  0.35923  1.0000
  H   H159      1.0  0.97384  0.67339  0.31609  1.0000
  H   H160      1.0  0.05374999999999999  0.62384  0.28672  1.0000
  C   C1        1.0  0.4934799999999999  0.37758  0.82524  1.0000
  C   C2        1.0  0.48404  0.31353  0.80147  1.0000
  C   C3        1.0  0.51272  0.29613  0.74026  1.0000
  C   C4        1.0  0.54961  0.34288  0.70082  1.0000
  C   C5        1.0  0.5582  0.40709999999999996  0.7249300000000001  1.0000
  C   C6        1.0  0.53127  0.42399  0.7865800000000001  1.0000
  C   C7        1.0  0.4623099999999999  0.3980699999999999  0.8908900000000001  1.0000
  C   C8        1.0  0.77471  0.06991  0.52921  1.0000
  C   C9        1.0  0.81221  0.13007  0.52042  1.0000
  C   C10       1.0  0.77166  0.18876  0.53167  1.0000
  C   C11       1.0  0.69284  0.18874  0.55121  1.0000
  C   C12       1.0  0.65606  0.12831  0.56141  1.0000
  C   C13       1.0  0.69698  0.06932  0.55067  1.0000
  C   C14       1.0  0.81865  0.0076300000000000005  0.51327  1.0000
  C   C15       1.0  0.48460999999999993  0.3982399999999999  0.16265  1.0000
  C   C16       1.0  0.43405  0.38668  0.21494000000000002  1.0000
  C   C17       1.0  0.45926  0.39638  0.27865  1.0000
  C   C18       1.0  0.53534  0.41827  0.2912100000000001  1.0000
  C   C19       1.0  0.58622  0.42802999999999997  0.23844000000000004  1.0000
  C   C20       1.0  0.56115  0.41832  0.17486000000000002  1.0000
  C   C21       1.0  0.73694  0.78343  0.46508000000000005  1.0000
  C   C22       1.0  0.70891  0.71388  0.45631  1.0000
  C   C23       1.0  0.65381  0.70065  0.4078400000000001  1.0000
  C   C24       1.0  0.62646  0.63731  0.39874  1.0000
  C   C25       1.0  0.65275  0.58496  0.43826  1.0000
  C   C26       1.0  0.70823  0.59861  0.48687  1.0000
  C   C27       1.0  0.73607  0.66204  0.4955800000000001  1.0000
  C   C28       1.0  0.45675  0.39252  0.09383000000000002  1.0000
  C   C29       1.0  0.60354  0.35928  0.52297  1.0000
  C   C30       1.0  0.57325  0.37232  0.58485  1.0000
  C   C31       1.0  0.57903  0.32619  0.63537  1.0000
  C   C32       1.0  0.61468  0.2652  0.6218500000000001  1.0000
  C   C33       1.0  0.64988  0.25162  0.56164  1.0000
  C   C34       1.0  0.64517  0.29986  0.51267  1.0000
  C   C35       1.0  0.59371  0.4082  0.4701600000000001  1.0000
  C   C36       1.0  0.56049  0.39144  0.40986  1.0000
  C   C37       1.0  0.56246  0.43563  0.35740000000000005  1.0000
  C   C38       1.0  0.594  0.49801000000000006  0.3677600000000001  1.0000
  C   C39       1.0  0.62234  0.51802  0.42857000000000006  1.0000
  C   C40       1.0  0.62178  0.47181  0.47918  1.0000
  C   C41       1.0  0.74429  0.32831  0.43617000000000006  1.0000
  C   C42       1.0  0.45932  0.31343  0.4343000000000001  1.0000
  C   C43       1.0  0.78611  0.29802  0.37862  1.0000
  C   C44       1.0  0.46545999999999993  0.24391  0.46127000000000007  1.0000
  C   C45       1.0  0.76905  0.27131  0.26680000000000004  1.0000
  C   C46       1.0  0.42458  0.17745  0.37156  1.0000
  C   C47       1.0  0.70799  0.26908  0.21387  1.0000
  C   C48       1.0  0.45871  0.14348  0.31235  1.0000
  C   C49       1.0  0.58332  0.22401  0.19033  1.0000
  C   C50       1.0  0.52683  0.17303  0.21441000000000002  1.0000
  C   C51       1.0  0.00653  0.12244  0.3252200000000001  1.0000
  C   C52       1.0  0.01599  0.18649  0.30152  1.0000
  C   C53       1.0  0.9872999999999998  0.2039  0.24034000000000003  1.0000
  C   C54       1.0  0.95037  0.15714  0.20091  1.0000
  C   C55       1.0  0.94176  0.09292  0.22493  1.0000
  C   C56       1.0  0.96871  0.07604  0.28654  1.0000
  C   C57       1.0  0.0377  0.1019  0.3908400000000001  1.0000
  C   C58       1.0  0.72536  0.43010999999999994  0.02922  1.0000
  C   C59       1.0  0.6879  0.36992  0.02044  1.0000
  C   C60       1.0  0.72843  0.31122  0.0317  1.0000
  C   C61       1.0  0.80722  0.31121  0.0513  1.0000
  C   C62       1.0  0.84397  0.37168  0.06146  1.0000
  C   C63       1.0  0.80307  0.43068  0.05069  1.0000
  C   C64       1.0  0.68141  0.49241000000000007  0.01321  1.0000
  C   C65       1.0  0.015419999999999998  0.10161999999999999  0.66273  1.0000
  C   C66       1.0  0.06602000000000001  0.11323999999999998  0.71498  1.0000
  C   C67       1.0  0.04084  0.10355  0.7787000000000001  1.0000
  C   C68       1.0  0.9648100000000001  0.08155  0.79128  1.0000
  C   C69       1.0  0.91383  0.07188  0.7385800000000002  1.0000
  C   C70       1.0  0.93889  0.0816  0.67499  1.0000
  C   C71       1.0  0.76294  0.71654  0.96499  1.0000
  C   C72       1.0  0.79114  0.78604  0.9562000000000002  1.0000
  C   C73       1.0  0.8462399999999999  0.79926  0.90772  1.0000
  C   C74       1.0  0.87356  0.8626300000000001  0.8986800000000001  1.0000
  C   C75       1.0  0.84721  0.9149899999999999  0.93821  1.0000
  C   C76       1.0  0.7917499999999998  0.90134  0.9868300000000002  1.0000
  C   C77       1.0  0.76397  0.8378999999999999  0.9955100000000002  1.0000
  C   C78       1.0  0.04333  0.10675000000000001  0.5938800000000002  1.0000
  C   C79       1.0  0.89672  0.14063  0.02308  1.0000
  C   C80       1.0  0.92685  0.12762  0.08497  1.0000
  C   C81       1.0  0.92099  0.1738  0.13549000000000003  1.0000
  C   C82       1.0  0.88543  0.23482000000000003  0.12198000000000003  1.0000
  C   C83       1.0  0.85023  0.24834  0.0618  1.0000
  C   C84       1.0  0.85502  0.20001  0.012850000000000002  1.0000
  C   C85       1.0  0.90665  0.09161  0.9702900000000001  1.0000
  C   C86       1.0  0.94023  0.10812  0.91009  1.0000
  C   C87       1.0  0.9378499999999999  0.06408  0.8574600000000001  1.0000
  C   C88       1.0  0.90597  0.00183  0.8677100000000001  1.0000
  C   C89       1.0  0.87762  0.9819  0.92853  1.0000
  C   C90       1.0  0.87821  0.02812  0.97919  1.0000
  C   C91       1.0  0.75583  0.17167  0.93639  1.0000
  C   C92       1.0  0.04167  0.18631  0.9346700000000001  1.0000
  C   C93       1.0  0.71441  0.20197  0.8787600000000002  1.0000
  C   C94       1.0  0.03521  0.25598  0.96148  1.0000
  C   C95       1.0  0.73182  0.22856  0.7672500000000001  1.0000
  C   C96       1.0  0.0759  0.32266  0.8716800000000001  1.0000
  C   C97       1.0  0.79281  0.23072  0.7143100000000002  1.0000
  C   C98       1.0  0.04167  0.3566  0.81254  1.0000
  C   C99       1.0  0.91718  0.27561  0.69073  1.0000
  C   C100      1.0  0.9734200000000001  0.32679  0.7147300000000001  1.0000
  C   C101      1.0  0.50653  0.6224200000000001  0.17476000000000003  1.0000
  C   C102      1.0  0.51596  0.68647  0.19853000000000004  1.0000
  C   C103      1.0  0.48729000000000006  0.70387  0.25974  1.0000
  C   C104      1.0  0.4504  0.65713  0.29918  1.0000
  C   C105      1.0  0.44181  0.5929  0.27507  1.0000
  C   C106      1.0  0.46873999999999993  0.57601  0.21342  1.0000
  C   C107      1.0  0.5377  0.60193  0.10912000000000001  1.0000
  C   C108      1.0  0.2253  0.93009  0.47079  1.0000
  C   C109      1.0  0.18779999999999997  0.86994  0.4795800000000001  1.0000
  C   C110      1.0  0.22835  0.81124  0.46833  1.0000
  C   C111      1.0  0.30716  0.81126  0.44879000000000013  1.0000
  C   C112      1.0  0.34395  0.87169  0.43859  1.0000
  C   C113      1.0  0.30302  0.9306899999999999  0.44933000000000006  1.0000
  C   C114      1.0  0.18135  0.9923799999999999  0.48673000000000005  1.0000
  C   C115      1.0  0.5154  0.60177  0.8373500000000001  1.0000
  C   C116      1.0  0.56596  0.61332  0.78506  1.0000
  C   C117      1.0  0.54075  0.60362  0.72135  1.0000
  C   C118      1.0  0.46465999999999996  0.58173  0.7087900000000001  1.0000
  C   C119      1.0  0.41378  0.57197  0.7615600000000001  1.0000
  C   C120      1.0  0.43886  0.58169  0.82515  1.0000
  C   C121      1.0  0.26307  0.21658  0.53492  1.0000
  C   C122      1.0  0.2911  0.28612  0.54369  1.0000
  C   C123      1.0  0.34619  0.29935  0.59216  1.0000
  C   C124      1.0  0.37355  0.36269999999999997  0.6012600000000002  1.0000
  C   C125      1.0  0.34726  0.4150499999999999  0.5617400000000001  1.0000
  C   C126      1.0  0.29178  0.40139  0.51313  1.0000
  C   C127      1.0  0.26394  0.33796  0.50442  1.0000
  C   C128      1.0  0.54325  0.60748  0.90617  1.0000
  C   C129      1.0  0.39646  0.64073  0.47703000000000007  1.0000
  C   C130      1.0  0.42676  0.62768  0.41515  1.0000
  C   C131      1.0  0.42098  0.67381  0.36463  1.0000
  C   C132      1.0  0.38532  0.7348  0.37815000000000004  1.0000
  C   C133      1.0  0.35013  0.74839  0.43836  1.0000
  C   C134      1.0  0.35484  0.70014  0.4873300000000001  1.0000
  C   C135      1.0  0.4063  0.59181  0.52984  1.0000
  C   C136      1.0  0.43952  0.60857  0.5901400000000002  1.0000
  C   C137      1.0  0.43755  0.56438  0.6426  1.0000
  C   C138      1.0  0.40601  0.50199  0.63225  1.0000
  C   C139      1.0  0.37766  0.48198  0.57144  1.0000
  C   C140      1.0  0.37823  0.5282  0.52082  1.0000
  C   C141      1.0  0.25572  0.6717  0.56383  1.0000
  C   C142      1.0  0.54068  0.68658  0.5657  1.0000
  C   C143      1.0  0.2139  0.70198  0.6213800000000002  1.0000
  C   C144      1.0  0.53455  0.75609  0.53873  1.0000
  C   C145      1.0  0.23095999999999997  0.72869  0.7332  1.0000
  C   C146      1.0  0.57542  0.8225599999999998  0.62844  1.0000
  C   C147      1.0  0.29202  0.73092  0.78613  1.0000
  C   C148      1.0  0.5413  0.8565200000000001  0.68765  1.0000
  C   C149      1.0  0.41668  0.77599  0.80968  1.0000
  C   C150      1.0  0.47317  0.82697  0.78559  1.0000
  C   C151      1.0  0.9934699999999999  0.8775600000000001  0.67478  1.0000
  C   C152      1.0  0.9840100000000002  0.8135099999999998  0.6984900000000003  1.0000
  C   C153      1.0  0.012710000000000006  0.7961099999999999  0.7596600000000001  1.0000
  C   C154      1.0  0.049629999999999994  0.84286  0.7991  1.0000
  C   C155      1.0  0.05825  0.9070899999999998  0.77507  1.0000
  C   C156      1.0  0.03129  0.92397  0.71346  1.0000
  C   C157      1.0  0.9623000000000002  0.8981  0.6091700000000002  1.0000
  C   C158      1.0  0.27465  0.5699  0.97078  1.0000
  C   C159      1.0  0.31211  0.63008  0.9795600000000002  1.0000
  C   C160      1.0  0.27158  0.68878  0.9683000000000002  1.0000
  C   C161      1.0  0.19277999999999998  0.6888  0.94871  1.0000
  C   C162      1.0  0.15604  0.62833  0.9385400000000002  1.0000
  C   C163      1.0  0.19693  0.56933  0.94931  1.0000
  C   C164      1.0  0.3186  0.5076  0.9867900000000001  1.0000
  C   C165      1.0  0.98459  0.89839  0.3372800000000001  1.0000
  C   C166      1.0  0.93399  0.8867700000000001  0.28502  1.0000
  C   C167      1.0  0.95916  0.89646  0.2213  1.0000
  C   C168      1.0  0.0352  0.91846  0.20872  1.0000
  C   C169      1.0  0.08618  0.92812  0.26143  1.0000
  C   C170      1.0  0.06112  0.91841  0.32501  1.0000
  C   C171      1.0  0.23706  0.28347  0.035010000000000006  1.0000
  C   C172      1.0  0.20887  0.21397  0.04381  1.0000
  C   C173      1.0  0.15377  0.20074  0.09228  1.0000
  C   C174      1.0  0.12644  0.13738  0.10133000000000002  1.0000
  C   C175      1.0  0.1528  0.08501  0.061790000000000005  1.0000
  C   C176      1.0  0.20826  0.09866  0.01317  1.0000
  C   C177      1.0  0.23604000000000003  0.1621  0.004490000000000001  1.0000
  C   C178      1.0  0.95667  0.8932599999999999  0.40612000000000004  1.0000
  C   C179      1.0  0.10328999999999999  0.8593799999999999  0.97693  1.0000
  C   C180      1.0  0.07316  0.87239  0.91503  1.0000
  C   C181      1.0  0.07901  0.8261999999999999  0.86451  1.0000
  C   C182      1.0  0.11458  0.76519  0.87802  1.0000
  C   C183      1.0  0.14977  0.75166  0.93821  1.0000
  C   C184      1.0  0.14499000000000004  0.79999  0.9871500000000002  1.0000
  C   C185      1.0  0.09336  0.9084  0.02971  1.0000
  C   C186      1.0  0.05978  0.89188  0.08991  1.0000
  C   C187      1.0  0.06216  0.93592  0.14254  1.0000
  C   C188      1.0  0.09404  0.9981800000000001  0.13229  1.0000
  C   C189      1.0  0.12237999999999999  0.0181  0.07147  1.0000
  C   C190      1.0  0.12180000000000002  0.97189  0.020820000000000005  1.0000
  C   C191      1.0  0.24417000000000003  0.8283400000000001  0.06362  1.0000
  C   C192      1.0  0.95834  0.81369  0.06533  1.0000
  C   C193      1.0  0.2856  0.79804  0.12125  1.0000
  C   C194      1.0  0.9648  0.74403  0.03852  1.0000
  C   C195      1.0  0.26819  0.77145  0.23275  1.0000
  C   C196      1.0  0.9241100000000001  0.67734  0.12832  1.0000
  C   C197      1.0  0.20719  0.76929  0.28569  1.0000
  C   C198      1.0  0.95834  0.6434  0.18746000000000002  1.0000
  C   C199      1.0  0.08282  0.72439  0.30927  1.0000
  C   C200      1.0  0.026590000000000003  0.67321  0.28527  1.0000
  O   O1        1.0  0.48026  0.45504  0.91015  1.0000
  O   O2        1.0  0.41947  0.35632  0.9197600000000001  1.0000
  O   O3        1.0  0.88053  0.01272  0.4802200000000001  1.0000
  O   O4        1.0  0.78882  0.95369  0.533  1.0000
  O   O5        1.0  0.79273  0.7893500000000001  0.50771  1.0000
  O   O6        1.0  0.70597  0.8286400000000002  0.43290000000000006  1.0000
  O   O7        1.0  0.50373  0.40692999999999996  0.04849  1.0000
  O   O8        1.0  0.38655  0.37329  0.08598  1.0000
  O   O9        1.0  0.67977  0.28608  0.45288  1.0000
  O   O10       1.0  0.53125  0.32914  0.3995100000000001  1.0000
  O   O11       1.0  0.73247  0.29669  0.32488  1.0000
  O   O12       1.0  0.4887500000000001  0.19673999999999997  0.4123300000000001  1.0000
  O   O13       1.0  0.6495699999999999  0.22309  0.23348000000000002  1.0000
  O   O14       1.0  0.50691  0.19045  0.27987  1.0000
  O   O15       1.0  0.0198  0.04491  0.40999000000000013  1.0000
  O   O16       1.0  0.08044  0.14368  0.41981  1.0000
  O   O17       1.0  0.61954  0.48724999999999996  0.9801800000000002  1.0000
  O   O18       1.0  0.7112  0.5464  0.03286  1.0000
  O   O19       1.0  0.70743  0.71079  0.00792  1.0000
  O   O20       1.0  0.79353  0.6712  0.93263  1.0000
  O   O21       1.0  0.9961499999999999  0.09285999999999998  0.54853  1.0000
  O   O22       1.0  0.11383  0.12513  0.5860100000000001  1.0000
  O   O23       1.0  0.82044  0.21382  0.95314  1.0000
  O   O24       1.0  0.9697999999999999  0.17037  0.8998200000000002  1.0000
  O   O25       1.0  0.76861  0.20356000000000002  0.82537  1.0000
  O   O26       1.0  0.011759999999999998  0.30319  0.91255  1.0000
  O   O27       1.0  0.8514  0.27637  0.73422  1.0000
  O   O28       1.0  0.9935  0.30957  0.7801900000000003  1.0000
  O   O29       1.0  0.51975  0.54497  0.08985000000000003  1.0000
  O   O30       1.0  0.58054  0.64368  0.08025  1.0000
  O   O31       1.0  0.11946999999999999  0.9872800000000002  0.51978  1.0000
  O   O32       1.0  0.21118  0.04631  0.4670000000000001  1.0000
  O   O33       1.0  0.20728  0.21065  0.49229000000000006  1.0000
  O   O34       1.0  0.29404  0.17137  0.5671100000000001  1.0000
  O   O35       1.0  0.49628000000000005  0.59308  0.9515100000000001  1.0000
  O   O36       1.0  0.61345  0.62672  0.9140200000000002  1.0000
  O   O37       1.0  0.32024  0.71392  0.54713  1.0000
  O   O38       1.0  0.46875  0.67087  0.60049  1.0000
  O   O39       1.0  0.26753  0.70332  0.67512  1.0000
  O   O40       1.0  0.51126  0.80327  0.58767  1.0000
  O   O41       1.0  0.35044  0.77692  0.7665200000000001  1.0000
  O   O42       1.0  0.4930999999999999  0.80955  0.7201300000000003  1.0000
  O   O43       1.0  0.98021  0.9550899999999999  0.5900100000000001  1.0000
  O   O44       1.0  0.9195699999999999  0.85632  0.5802  1.0000
  O   O45       1.0  0.3804699999999999  0.51276  0.01982  1.0000
  O   O46       1.0  0.2888  0.4536  0.9671500000000001  1.0000
  O   O47       1.0  0.29258  0.28922  0.9920800000000001  1.0000
  O   O48       1.0  0.20647  0.3288  0.06737  1.0000
  O   O49       1.0  0.0038600000000000028  0.90715  0.4514700000000001  1.0000
  O   O50       1.0  0.88618  0.87488  0.41399000000000014  1.0000
  O   O51       1.0  0.17957  0.78619  0.046860000000000006  1.0000
  O   O52       1.0  0.03021  0.8296299999999999  0.10018  1.0000
  O   O53       1.0  0.23139999999999997  0.7964399999999999  0.17464  1.0000
  O   O54       1.0  0.9882500000000001  0.69682  0.08745000000000003  1.0000
  O   O55       1.0  0.14860999999999996  0.72364  0.26578  1.0000
  O   O56       1.0  0.006510000000000001  0.69044  0.21981000000000003  1.0000
