data_image0
_chemical_formula_structural       Cu32H160C284N16O144
_chemical_formula_sum              "Cu32 H160 C284 N16 O144"
_cell_length_a       12.70084
_cell_length_b       12.70018
_cell_length_c       70.83638
_cell_angle_alpha    90.00044
_cell_angle_beta     90.00225
_cell_angle_gamma    90.13581

_space_group_name_H-M_alt    "P 1"
_space_group_IT_number       1

loop_
  _space_group_symop_operation_xyz
  'x, y, z'

loop_
  _atom_site_type_symbol
  _atom_site_label
  _atom_site_symmetry_multiplicity
  _atom_site_fract_x
  _atom_site_fract_y
  _atom_site_fract_z
  _atom_site_occupancy
  Cu  Cu1       1.0  0.62316  0.38674  0.83539  1.0000
  Cu  Cu2       1.0  0.6883  0.4405700000000001  0.8678999999999999  1.0000
  Cu  Cu3       1.0  0.61348  0.77967  0.74549  1.0000
  Cu  Cu4       1.0  0.64566  0.96911  0.75034  1.0000
  Cu  Cu5       1.0  0.37687  0.61344  0.33529  1.0000
  Cu  Cu6       1.0  0.31188  0.55951  0.36787  1.0000
  Cu  Cu7       1.0  0.38756  0.22039000000000003  0.2456  1.0000
  Cu  Cu8       1.0  0.3547  0.03083  0.25038999999999995  1.0000
  Cu  Cu9       1.0  0.11406  0.12541  0.58545  1.0000
  Cu  Cu10      1.0  0.05891  0.18944000000000003  0.61785  1.0000
  Cu  Cu11      1.0  0.72087  0.11301  0.49526999999999993  1.0000
  Cu  Cu12      1.0  0.53122  0.14417  0.5001  1.0000
  Cu  Cu13      1.0  0.88593  0.87458  0.08545  1.0000
  Cu  Cu14      1.0  0.9411  0.81056  0.11784999999999998  1.0000
  Cu  Cu15      1.0  0.27912  0.8869900000000002  0.99528  1.0000
  Cu  Cu16      1.0  0.46878  0.85583  0.0001  1.0000
  Cu  Cu17      1.0  0.8745700000000002  0.88592  0.9145499999999999  1.0000
  Cu  Cu18      1.0  0.81053  0.94114  0.88214  1.0000
  Cu  Cu19      1.0  0.88698  0.27911  0.00471  1.0000
  Cu  Cu20      1.0  0.8558300000000002  0.46878000000000003  0.9998999999999999  1.0000
  Cu  Cu21      1.0  0.12542  0.11407  0.41455  1.0000
  Cu  Cu22      1.0  0.18938000000000002  0.05893  0.38218  1.0000
  Cu  Cu23      1.0  0.11303000000000002  0.72088  0.50473  1.0000
  Cu  Cu24      1.0  0.14417  0.53121  0.49990000000000007  1.0000
  Cu  Cu25      1.0  0.38674  0.62319  0.16461  1.0000
  Cu  Cu26      1.0  0.44055  0.68837  0.13211  1.0000
  Cu  Cu27      1.0  0.77963  0.61243  0.2544  1.0000
  Cu  Cu28      1.0  0.9691800000000003  0.64532  0.24961000000000003  1.0000
  Cu  Cu29      1.0  0.61324  0.37684000000000006  0.66461  1.0000
  Cu  Cu30      1.0  0.55941  0.31169  0.6321  1.0000
  Cu  Cu31      1.0  0.22033  0.38632  0.75453  1.0000
  Cu  Cu32      1.0  0.030880000000000005  0.35435000000000005  0.74966  1.0000
  H   H1        1.0  0.021140000000000003  0.39712  0.86202  1.0000
  H   H2        1.0  0.62465  0.99794  0.81224  1.0000
  H   H3        1.0  0.67191  0.7766700000000001  0.85792  1.0000
  H   H4        1.0  0.63763  0.6652300000000001  0.8009199999999999  1.0000
  H   H5        1.0  0.2436  0.39648000000000005  0.81589  1.0000
  H   H6        1.0  0.61936  0.09913  0.8814099999999999  1.0000
  H   H7        1.0  0.34763  0.50861  0.88021  1.0000
  H   H8        1.0  0.9131400000000001  0.3514  0.80512  1.0000
  H   H9        1.0  0.31112  0.087  0.85949  1.0000
  H   H10       1.0  0.39362  0.17577  0.84693  1.0000
  H   H11       1.0  0.43342  0.08501  0.88645  1.0000
  H   H12       1.0  0.4369100000000001  0.21948  0.87953  1.0000
  H   H13       1.0  0.19407  0.63034  0.84051  1.0000
  H   H14       1.0  0.2772  0.56472  0.82409  1.0000
  H   H15       1.0  0.42913  0.9407900000000001  0.85413  1.0000
  H   H16       1.0  0.45460000000000006  0.01393  0.83316  1.0000
  H   H17       1.0  0.33452  0.69435  0.87318  1.0000
  H   H18       1.0  0.4692300000000001  0.67413  0.86763  1.0000
  H   H19       1.0  0.42966  0.65636  0.83396  1.0000
  H   H20       1.0  0.33747  0.75441  0.84066  1.0000
  H   H21       1.0  0.97902  0.60325  0.36199  1.0000
  H   H22       1.0  0.37556  0.00211  0.31233  1.0000
  H   H23       1.0  0.32789  0.22342  0.35798  1.0000
  H   H24       1.0  0.36211  0.33473  0.30096  1.0000
  H   H25       1.0  0.75634  0.60273  0.31589  1.0000
  H   H26       1.0  0.38019  0.90068  0.3814  1.0000
  H   H27       1.0  0.65253  0.49166  0.38018  1.0000
  H   H28       1.0  0.08667  0.64842  0.30505  1.0000
  H   H29       1.0  0.6886000000000001  0.9128200000000001  0.35956  1.0000
  H   H30       1.0  0.60627  0.82403  0.34697  1.0000
  H   H31       1.0  0.56609  0.91478  0.38648  1.0000
  H   H32       1.0  0.56267  0.78031  0.37955  1.0000
  H   H33       1.0  0.8061  0.36963  0.34048  1.0000
  H   H34       1.0  0.72287  0.43526  0.32408  1.0000
  H   H35       1.0  0.57065  0.05901  0.35414  1.0000
  H   H36       1.0  0.54527  0.98576  0.33317  1.0000
  H   H37       1.0  0.66554  0.30586  0.37319  1.0000
  H   H38       1.0  0.53087  0.32613  0.36762  1.0000
  H   H39       1.0  0.5705  0.34364  0.33395  1.0000
  H   H40       1.0  0.66265  0.24562  0.34067  1.0000
  H   H41       1.0  0.10286  0.52406  0.6123  1.0000
  H   H42       1.0  0.50113  0.12686  0.56229  1.0000
  H   H43       1.0  0.72477  0.17307  0.60768  1.0000
  H   H44       1.0  0.83355  0.13892  0.55054  1.0000
  H   H45       1.0  0.10297  0.74597  0.56611  1.0000
  H   H46       1.0  0.40121  0.11997  0.63169  1.0000
  H   H47       1.0  0.99028  0.84925  0.63046  1.0000
  H   H48       1.0  0.14805  0.41566  0.55541  1.0000
  H   H49       1.0  0.41327  0.8123  0.60949  1.0000
  H   H50       1.0  0.32461000000000007  0.8948  0.59699  1.0000
  H   H51       1.0  0.4156600000000001  0.9338600000000001  0.63653  1.0000
  H   H52       1.0  0.28108  0.9367100000000002  0.62967  1.0000
  H   H53       1.0  0.8698200000000001  0.69385  0.59081  1.0000
  H   H54       1.0  0.9354800000000001  0.7769000000000003  0.57435  1.0000
  H   H55       1.0  0.55947  0.93121  0.60438  1.0000
  H   H56       1.0  0.48704000000000003  0.95662  0.58333  1.0000
  H   H57       1.0  0.80472  0.83353  0.62325  1.0000
  H   H58       1.0  0.8240200000000002  0.9685200000000002  0.61777  1.0000
  H   H59       1.0  0.84356  0.9292  0.58408  1.0000
  H   H60       1.0  0.74542  0.83637  0.59068  1.0000
  H   H61       1.0  0.89713  0.47593  0.1123  1.0000
  H   H62       1.0  0.49886  0.8731500000000001  0.062299999999999994  1.0000
  H   H63       1.0  0.27523  0.8269200000000002  0.10769  1.0000
  H   H64       1.0  0.16644  0.86109  0.05054  1.0000
  H   H65       1.0  0.89702  0.25401  0.06611  1.0000
  H   H66       1.0  0.5988  0.88003  0.13169  1.0000
  H   H67       1.0  0.00972  0.15074  0.13046  1.0000
  H   H68       1.0  0.85195  0.58432  0.05541  1.0000
  H   H69       1.0  0.58673  0.18769  0.10949  1.0000
  H   H70       1.0  0.6753900000000002  0.10519  0.09699  1.0000
  H   H71       1.0  0.58433  0.06613  0.13653  1.0000
  H   H72       1.0  0.7189100000000002  0.06329  0.12967  1.0000
  H   H73       1.0  0.13017  0.30614  0.09081  1.0000
  H   H74       1.0  0.06451  0.22309  0.07435  1.0000
  H   H75       1.0  0.44052  0.06878  0.10438  1.0000
  H   H76       1.0  0.51295  0.04338  0.08333  1.0000
  H   H77       1.0  0.19528  0.16646  0.12325000000000001  1.0000
  H   H78       1.0  0.17598  0.03147  0.11777  1.0000
  H   H79       1.0  0.15643  0.07079  0.08408  1.0000
  H   H80       1.0  0.25457  0.16362  0.09067999999999998  1.0000
  H   H81       1.0  0.47593  0.89713  0.8877  1.0000
  H   H82       1.0  0.8731400000000002  0.49889  0.9377  1.0000
  H   H83       1.0  0.8269  0.27523  0.89232  1.0000
  H   H84       1.0  0.8610900000000001  0.16643  0.9494599999999999  1.0000
  H   H85       1.0  0.25404  0.89702  0.93389  1.0000
  H   H86       1.0  0.88003  0.59879  0.86831  1.0000
  H   H87       1.0  0.15073  0.00969  0.86954  1.0000
  H   H88       1.0  0.58432  0.8519500000000001  0.94459  1.0000
  H   H89       1.0  0.18766  0.58671  0.89051  1.0000
  H   H90       1.0  0.10517  0.67538  0.90301  1.0000
  H   H91       1.0  0.06612  0.58433  0.86347  1.0000
  H   H92       1.0  0.06327  0.71892  0.87033  1.0000
  H   H93       1.0  0.30612  0.13018  0.90919  1.0000
  H   H94       1.0  0.22309000000000004  0.06452  0.9256499999999999  1.0000
  H   H95       1.0  0.06875  0.4405000000000001  0.89562  1.0000
  H   H96       1.0  0.04335  0.51294  0.91667  1.0000
  H   H97       1.0  0.16645  0.19528000000000004  0.87675  1.0000
  H   H98       1.0  0.03148  0.17598  0.88223  1.0000
  H   H99       1.0  0.0708  0.15644  0.9159199999999998  1.0000
  H   H100      1.0  0.16362000000000004  0.25458  0.9093199999999999  1.0000
  H   H101      1.0  0.52405  0.10286000000000001  0.3877  1.0000
  H   H102      1.0  0.12682  0.50109  0.43771  1.0000
  H   H103      1.0  0.17297  0.72472  0.39232  1.0000
  H   H104      1.0  0.13894  0.83355  0.44947  1.0000
  H   H105      1.0  0.74595  0.10297  0.43389  1.0000
  H   H106      1.0  0.11991  0.40122  0.36831  1.0000
  H   H107      1.0  0.8492500000000001  0.99028  0.36954  1.0000
  H   H108      1.0  0.41568  0.14803  0.44459  1.0000
  H   H109      1.0  0.81228  0.41325  0.39051  1.0000
  H   H110      1.0  0.89478  0.32459  0.40301  1.0000
  H   H111      1.0  0.93383  0.41566  0.36347  1.0000
  H   H112      1.0  0.9366900000000002  0.28106  0.37033  1.0000
  H   H113      1.0  0.6938600000000001  0.8698  0.40919  1.0000
  H   H114      1.0  0.77689  0.93547  0.42565  1.0000
  H   H115      1.0  0.93117  0.55948  0.39562  1.0000
  H   H116      1.0  0.9565600000000001  0.48705000000000004  0.41667  1.0000
  H   H117      1.0  0.83354  0.80469  0.37675  1.0000
  H   H118      1.0  0.9685100000000001  0.824  0.38223  1.0000
  H   H119      1.0  0.92919  0.84355  0.41593  1.0000
  H   H120      1.0  0.8363800000000001  0.7454000000000001  0.40932  1.0000
  H   H121      1.0  0.39694  0.021200000000000004  0.13801  1.0000
  H   H122      1.0  0.99795  0.62456  0.18769  1.0000
  H   H123      1.0  0.77661  0.67193  0.14204  1.0000
  H   H124      1.0  0.66533  0.6376300000000001  0.19904  1.0000
  H   H125      1.0  0.39726000000000006  0.24376000000000003  0.18412  1.0000
  H   H126      1.0  0.09918  0.61938  0.11858000000000002  1.0000
  H   H127      1.0  0.50862  0.34763000000000005  0.11977999999999998  1.0000
  H   H128      1.0  0.35189000000000004  0.9133400000000002  0.19494  1.0000
  H   H129      1.0  0.08703000000000001  0.3111  0.1405  1.0000
  H   H130      1.0  0.17578  0.3936200000000001  0.15306  1.0000
  H   H131      1.0  0.08502  0.43342  0.11354  1.0000
  H   H132      1.0  0.21949  0.43688  0.12047  1.0000
  H   H133      1.0  0.63032  0.19406000000000004  0.15949  1.0000
  H   H134      1.0  0.56476  0.27721  0.1759  1.0000
  H   H135      1.0  0.94082  0.42913  0.14586  1.0000
  H   H136      1.0  0.01397  0.45461  0.16683  1.0000
  H   H137      1.0  0.69433  0.33451  0.12682  1.0000
  H   H138      1.0  0.67412  0.46923  0.13236  1.0000
  H   H139      1.0  0.65637  0.42967  0.16604  1.0000
  H   H140      1.0  0.7543900000000001  0.33747  0.15934  1.0000
  H   H141      1.0  0.60277  0.9788500000000001  0.63799  1.0000
  H   H142      1.0  0.0021  0.37537  0.68776  1.0000
  H   H143      1.0  0.22334  0.32811  0.64209  1.0000
  H   H144      1.0  0.33478  0.36235  0.69909  1.0000
  H   H145      1.0  0.60365  0.75635  0.68411  1.0000
  H   H146      1.0  0.90087  0.3805800000000001  0.61859  1.0000
  H   H147      1.0  0.49135000000000006  0.65238  0.61978  1.0000
  H   H148      1.0  0.64872  0.08684000000000001  0.69488  1.0000
  H   H149      1.0  0.91298  0.6888600000000001  0.6405  1.0000
  H   H150      1.0  0.82422  0.60637  0.65307  1.0000
  H   H151      1.0  0.91499  0.56655  0.61355  1.0000
  H   H152      1.0  0.78054  0.56306  0.62047  1.0000
  H   H153      1.0  0.36965  0.80594  0.65949  1.0000
  H   H154      1.0  0.43529  0.72279  0.67591  1.0000
  H   H155      1.0  0.05918000000000001  0.57085  0.64587  1.0000
  H   H156      1.0  0.98605  0.5454  0.66684  1.0000
  H   H157      1.0  0.30564  0.66547  0.62682  1.0000
  H   H158      1.0  0.32586  0.53075  0.63237  1.0000
  H   H159      1.0  0.34363  0.57032  0.6660399999999999  1.0000
  H   H160      1.0  0.2456  0.6625200000000001  0.65934  1.0000
  C   C1        1.0  0.03869  0.39014  0.84705  1.0000
  C   C2        1.0  0.08111000000000002  0.37008  0.80851  1.0000
  C   C3        1.0  0.63185  0.91749  0.81738  1.0000
  C   C4        1.0  0.65446  0.71001  0.83011  1.0000
  C   C5        1.0  0.65809  0.7933  0.84305  1.0000
  C   C6        1.0  0.84421  0.37754  0.84092  1.0000
  C   C7        1.0  0.65276  0.9848200000000001  0.85063  1.0000
  C   C8        1.0  0.4725900000000001  0.47212  0.86129  1.0000
  C   C9        1.0  0.614  0.22524  0.86142  1.0000
  C   C10       1.0  0.1013  0.36373000000000005  0.78775  1.0000
  C   C11       1.0  0.64431  0.8967800000000001  0.83666  1.0000
  C   C12       1.0  0.64017  0.73014  0.81089  1.0000
  C   C13       1.0  0.6309200000000001  0.83374  0.80446  1.0000
  C   C14       1.0  0.66269  0.59871  0.83672  1.0000
  C   C15       1.0  0.95592  0.37409  0.83428  1.0000
  C   C16       1.0  0.22803000000000004  0.42019000000000006  0.85483  1.0000
  C   C17       1.0  0.16359  0.38956  0.82125  1.0000
  C   C18       1.0  0.14245  0.39987000000000006  0.84058  1.0000
  C   C19       1.0  0.62385  0.85297  0.7837199999999999  1.0000
  C   C20       1.0  0.56984  0.12262  0.86948  1.0000
  C   C21       1.0  0.37118  0.53176  0.86591  1.0000
  C   C22       1.0  0.97734  0.36304  0.81504  1.0000
  C   C23       1.0  0.3932  0.10907  0.85676  1.0000
  C   C24       1.0  0.45303  0.13878  0.87485  1.0000
  C   C25       1.0  0.27201  0.59471  0.83855  1.0000
  C   C26       1.0  0.8271800000000001  0.84658  0.74911  1.0000
  C   C27       1.0  0.10242  0.56872  0.75265  1.0000
  C   C28       1.0  0.4566200000000001  0.01696  0.8486  1.0000
  C   C29       1.0  0.94115  0.8231000000000003  0.74972  1.0000
  C   C30       1.0  0.38857  0.65151  0.86385  1.0000
  C   C31       1.0  0.36163000000000006  0.6726  0.84304  1.0000
  C   C32       1.0  0.9782500000000002  0.72032  0.75006  1.0000
  C   C33       1.0  0.01975  0.9039800000000001  0.75003  1.0000
  C   C34       1.0  0.08096  0.68279  0.75094  1.0000
  C   C35       1.0  0.16225  0.7611600000000002  0.7504399999999999  1.0000
  C   C36       1.0  0.96137  0.61024  0.34702  1.0000
  C   C37       1.0  0.91885  0.62866  0.30846  1.0000
  C   C38       1.0  0.36819  0.08258  0.31745  1.0000
  C   C39       1.0  0.34533  0.2901  0.33016  1.0000
  C   C40       1.0  0.34181  0.20686  0.3431  1.0000
  C   C41       1.0  0.15586  0.6227  0.34089  1.0000
  C   C42       1.0  0.34718  0.015460000000000003  0.35069  1.0000
  C   C43       1.0  0.52757  0.52799  0.36123  1.0000
  C   C44       1.0  0.38586  0.7744600000000001  0.36141  1.0000
  C   C45       1.0  0.89872  0.6339700000000001  0.28769  1.0000
  C   C46       1.0  0.35572  0.10341  0.33672  1.0000
  C   C47       1.0  0.35958  0.26988  0.31094  1.0000
  C   C48       1.0  0.3689100000000001  0.16627000000000003  0.30452  1.0000
  C   C49       1.0  0.33725  0.40146  0.33676  1.0000
  C   C50       1.0  0.044090000000000004  0.62625  0.33425  1.0000
  C   C51       1.0  0.77211  0.57992  0.35482  1.0000
  C   C52       1.0  0.8364  0.60971  0.32123  1.0000
  C   C53       1.0  0.85761  0.60024  0.34057  1.0000
  C   C54       1.0  0.37609  0.14704  0.2837799999999999  1.0000
  C   C55       1.0  0.42982000000000004  0.8772100000000002  0.36948  1.0000
  C   C56       1.0  0.62907  0.4684  0.36588  1.0000
  C   C57       1.0  0.02259  0.63658  0.31499  1.0000
  C   C58       1.0  0.60656  0.89072  0.35679  1.0000
  C   C59       1.0  0.54659  0.861  0.37487  1.0000
  C   C60       1.0  0.72816  0.4053  0.33854  1.0000
  C   C61       1.0  0.17333  0.15314  0.24914  1.0000
  C   C62       1.0  0.8972800000000002  0.43064  0.25219  1.0000
  C   C63       1.0  0.54319  0.9828000000000001  0.34862  1.0000
  C   C64       1.0  0.0592  0.17655  0.24959999999999996  1.0000
  C   C65       1.0  0.61156  0.34867  0.36384  1.0000
  C   C66       1.0  0.63852  0.32744000000000006  0.34303  1.0000
  C   C67       1.0  0.02245000000000001  0.27956  0.24991  1.0000
  C   C68       1.0  0.9807300000000001  0.09574000000000002  0.24993999999999997  1.0000
  C   C69       1.0  0.9195500000000002  0.3166  0.25069  1.0000
  C   C70       1.0  0.83823  0.23839  0.25037  1.0000
  C   C71       1.0  0.10977  0.54129  0.59732  1.0000
  C   C72       1.0  0.12856  0.58344  0.55877  1.0000
  C   C73       1.0  0.58183  0.13385  0.56733  1.0000
  C   C74       1.0  0.79018  0.15563  0.57979  1.0000
  C   C75       1.0  0.70722  0.15942  0.59284  1.0000
  C   C76       1.0  0.1228  0.34672  0.59129  1.0000
  C   C77       1.0  0.51516  0.15469  0.60069  1.0000
  C   C78       1.0  0.02599  0.9746600000000001  0.61155  1.0000
  C   C79       1.0  0.27464  0.11445  0.61175  1.0000
  C   C80       1.0  0.13364  0.60369  0.53804  1.0000
  C   C81       1.0  0.60321  0.14617  0.58662  1.0000
  C   C82       1.0  0.76908  0.14147  0.5606  1.0000
  C   C83       1.0  0.66505  0.13274  0.55428  1.0000
  C   C84       1.0  0.9018600000000002  0.16454000000000002  0.58634  1.0000
  C   C85       1.0  0.12586  0.45842  0.58459  1.0000
  C   C86       1.0  0.08036  0.73069  0.60493  1.0000
  C   C87       1.0  0.10973  0.66598  0.57148  1.0000
  C   C88       1.0  0.09994  0.64485  0.59079  1.0000
  C   C89       1.0  0.64515  0.126  0.53353  1.0000
  C   C90       1.0  0.3776  0.0707  0.61972  1.0000
  C   C91       1.0  0.96727  0.87236  0.6161299999999998  1.0000
  C   C92       1.0  0.1363  0.47978000000000004  0.56533  1.0000
  C   C93       1.0  0.39128  0.89439  0.60682  1.0000
  C   C94       1.0  0.36168000000000006  0.95355  0.62497  1.0000
  C   C95       1.0  0.9052600000000002  0.7720200000000002  0.5888  1.0000
  C   C96       1.0  0.65213  0.32638  0.4988000000000001  1.0000
  C   C97       1.0  0.92992  0.60344  0.50221  1.0000
  C   C98       1.0  0.4835  0.95842  0.59877  1.0000
  C   C99       1.0  0.67568  0.44048  0.49957  1.0000
  C   C100      1.0  0.84743  0.8882  0.61398  1.0000
  C   C101      1.0  0.82707  0.86112  0.59315  1.0000
  C   C102      1.0  0.7787300000000001  0.47764  0.4999100000000001  1.0000
  C   C103      1.0  0.59492  0.51859  0.49994999999999995  1.0000
  C   C104      1.0  0.81589  0.58069  0.50072  1.0000
  C   C105      1.0  0.73781  0.66153  0.50037  1.0000
  C   C106      1.0  0.89023  0.4587  0.09732  1.0000
  C   C107      1.0  0.87144  0.41655  0.058769999999999996  1.0000
  C   C108      1.0  0.41817  0.86615  0.06734  1.0000
  C   C109      1.0  0.20982  0.84436  0.07979  1.0000
  C   C110      1.0  0.29278  0.84057  0.09284  1.0000
  C   C111      1.0  0.8772  0.6532700000000001  0.09128  1.0000
  C   C112      1.0  0.4848300000000001  0.8453  0.10069  1.0000
  C   C113      1.0  0.974  0.025340000000000005  0.11155  1.0000
  C   C114      1.0  0.72536  0.88554  0.11175  1.0000
  C   C115      1.0  0.86635  0.39629  0.03803  1.0000
  C   C116      1.0  0.39678  0.8538200000000001  0.08662  1.0000
  C   C117      1.0  0.23092  0.85854  0.0606  1.0000
  C   C118      1.0  0.33495  0.86727  0.05429  1.0000
  C   C119      1.0  0.09814  0.83545  0.08634  1.0000
  C   C120      1.0  0.87414  0.54157  0.08459  1.0000
  C   C121      1.0  0.91964  0.2693  0.10493  1.0000
  C   C122      1.0  0.89026  0.33401  0.07147  1.0000
  C   C123      1.0  0.90005  0.35513  0.09079  1.0000
  C   C124      1.0  0.35485  0.87402  0.03353  1.0000
  C   C125      1.0  0.6224  0.9293  0.11971999999999998  1.0000
  C   C126      1.0  0.03273  0.12763  0.11613000000000001  1.0000
  C   C127      1.0  0.8637000000000002  0.5202  0.06532  1.0000
  C   C128      1.0  0.60871  0.1056  0.10683  1.0000
  C   C129      1.0  0.6383200000000001  0.04644  0.12498  1.0000
  C   C130      1.0  0.09473  0.22797  0.0888  1.0000
  C   C131      1.0  0.3478300000000001  0.67362  0.9988100000000001  1.0000
  C   C132      1.0  0.07008  0.39657  0.00221  1.0000
  C   C133      1.0  0.51649  0.04158  0.09877  1.0000
  C   C134      1.0  0.32432000000000005  0.55953  0.99959  1.0000
  C   C135      1.0  0.15257  0.11178  0.11398000000000001  1.0000
  C   C136      1.0  0.17293000000000003  0.13887  0.09315  1.0000
  C   C137      1.0  0.22126  0.52235  0.9999199999999999  1.0000
  C   C138      1.0  0.40509  0.48142  0.99995  1.0000
  C   C139      1.0  0.18411  0.41931000000000007  0.00072  1.0000
  C   C140      1.0  0.2622  0.33847  0.00036  1.0000
  C   C141      1.0  0.4587  0.89023  0.90268  1.0000
  C   C142      1.0  0.41656000000000004  0.87143  0.94123  1.0000
  C   C143      1.0  0.8661500000000002  0.41818  0.93266  1.0000
  C   C144      1.0  0.8443500000000003  0.20981  0.9202100000000001  1.0000
  C   C145      1.0  0.8405500000000002  0.29278  0.90716  1.0000
  C   C146      1.0  0.65327  0.8772000000000002  0.9087200000000001  1.0000
  C   C147      1.0  0.84528  0.48484  0.89931  1.0000
  C   C148      1.0  0.02533  0.97399  0.88846  1.0000
  C   C149      1.0  0.8855300000000003  0.72535  0.88825  1.0000
  C   C150      1.0  0.3963  0.8663400000000001  0.96197  1.0000
  C   C151      1.0  0.85381  0.39679  0.91338  1.0000
  C   C152      1.0  0.85853  0.23091  0.9393999999999999  1.0000
  C   C153      1.0  0.8672700000000002  0.33496  0.9457099999999999  1.0000
  C   C154      1.0  0.83544  0.09813  0.91366  1.0000
  C   C155      1.0  0.54157  0.87415  0.9154099999999998  1.0000
  C   C156      1.0  0.2693  0.9196300000000001  0.89507  1.0000
  C   C157      1.0  0.33402  0.89026  0.92853  1.0000
  C   C158      1.0  0.35515  0.9000500000000001  0.9092099999999999  1.0000
  C   C159      1.0  0.87402  0.35485  0.96647  1.0000
  C   C160      1.0  0.9293000000000001  0.62239  0.88028  1.0000
  C   C161      1.0  0.12763  0.03271  0.88387  1.0000
  C   C162      1.0  0.5202  0.8637  0.93467  1.0000
  C   C163      1.0  0.10558  0.6087  0.89317  1.0000
  C   C164      1.0  0.04643000000000001  0.6383200000000001  0.87502  1.0000
  C   C165      1.0  0.22796  0.09474  0.9112  1.0000
  C   C166      1.0  0.67362  0.34783  0.00119  1.0000
  C   C167      1.0  0.39657  0.07007  0.99779  1.0000
  C   C168      1.0  0.04155000000000001  0.51648  0.90123  1.0000
  C   C169      1.0  0.55952  0.32433  0.00042  1.0000
  C   C170      1.0  0.11178  0.15257  0.88602  1.0000
  C   C171      1.0  0.13886  0.17293000000000003  0.90685  1.0000
  C   C172      1.0  0.52234  0.22126  0.0001  1.0000
  C   C173      1.0  0.48141  0.40510000000000007  5e-05  1.0000
  C   C174      1.0  0.41931000000000007  0.18411000000000002  0.99929  1.0000
  C   C175      1.0  0.33847  0.2622  0.99961  1.0000
  C   C176      1.0  0.54128  0.10975  0.40268  1.0000
  C   C177      1.0  0.58343  0.12854  0.44123  1.0000
  C   C178      1.0  0.13381  0.5818  0.43267  1.0000
  C   C179      1.0  0.1556  0.79014  0.4202199999999999  1.0000
  C   C180      1.0  0.15936000000000003  0.70718  0.40717  1.0000
  C   C181      1.0  0.34672  0.1228  0.40872  1.0000
  C   C182      1.0  0.15468  0.51512  0.39932  1.0000
  C   C183      1.0  0.97464  0.025990000000000006  0.38846  1.0000
  C   C184      1.0  0.11443000000000003  0.27465  0.38826  1.0000
  C   C185      1.0  0.6037  0.13363  0.46196  1.0000
  C   C186      1.0  0.14612  0.60317  0.41339  1.0000
  C   C187      1.0  0.14146  0.76907  0.43941  1.0000
  C   C188      1.0  0.13273  0.66503  0.44572  1.0000
  C   C189      1.0  0.16454  0.9018000000000002  0.41366  1.0000
  C   C190      1.0  0.45842000000000005  0.12584  0.41541  1.0000
  C   C191      1.0  0.73068  0.08035000000000002  0.39507  1.0000
  C   C192      1.0  0.66597  0.10973  0.42853  1.0000
  C   C193      1.0  0.6448400000000001  0.09993  0.40921  1.0000
  C   C194      1.0  0.126  0.64514  0.46648  1.0000
  C   C195      1.0  0.07065  0.37760000000000005  0.38028  1.0000
  C   C196      1.0  0.87235  0.96727  0.38387  1.0000
  C   C197      1.0  0.47979000000000005  0.13628  0.43467  1.0000
  C   C198      1.0  0.8943600000000002  0.39127  0.39317  1.0000
  C   C199      1.0  0.95352  0.36166  0.37502  1.0000
  C   C200      1.0  0.77202  0.90524  0.4112  1.0000
  C   C201      1.0  0.32641000000000003  0.65212  0.5012  1.0000
  C   C202      1.0  0.60344  0.92991  0.49779  1.0000
  C   C203      1.0  0.95838  0.4835  0.40123  1.0000
  C   C204      1.0  0.4405  0.67565  0.50044  1.0000
  C   C205      1.0  0.8882  0.84741  0.38602  1.0000
  C   C206      1.0  0.86112  0.82705  0.40685  1.0000
  C   C207      1.0  0.47767000000000004  0.77872  0.50011  1.0000
  C   C208      1.0  0.5186  0.59489  0.50005  1.0000
  C   C209      1.0  0.58069  0.81588  0.49927999999999995  1.0000
  C   C210      1.0  0.6615400000000001  0.7377900000000001  0.49961  1.0000
  C   C211      1.0  0.38999  0.0388  0.15297  1.0000
  C   C212      1.0  0.37151000000000006  0.08121  0.19154  1.0000
  C   C213      1.0  0.91749  0.63184  0.18257  1.0000
  C   C214      1.0  0.7099900000000001  0.65443  0.16985  1.0000
  C   C215      1.0  0.7932300000000001  0.6580300000000001  0.15691  1.0000
  C   C216      1.0  0.37742000000000003  0.84429  0.1591  1.0000
  C   C217      1.0  0.9847000000000001  0.65273  0.14933  1.0000
  C   C218      1.0  0.47212000000000004  0.47261  0.1387  1.0000
  C   C219      1.0  0.22527000000000005  0.614  0.13858  1.0000
  C   C220      1.0  0.36609  0.1013  0.21231  1.0000
  C   C221      1.0  0.89669  0.64427  0.16329  1.0000
  C   C222      1.0  0.7301900000000001  0.6402  0.18907  1.0000
  C   C223      1.0  0.83379  0.631  0.19549  1.0000
  C   C224      1.0  0.59869  0.66267  0.16326  1.0000
  C   C225      1.0  0.37406  0.9560200000000001  0.16575  1.0000
  C   C226      1.0  0.42013  0.22811  0.14517  1.0000
  C   C227      1.0  0.39039  0.1637  0.17878  1.0000
  C   C228      1.0  0.3999  0.14258  0.15943  1.0000
  C   C229      1.0  0.853  0.62387  0.21623  1.0000
  C   C230      1.0  0.12266  0.56984  0.13051  1.0000
  C   C231      1.0  0.53176  0.37119  0.13409  1.0000
  C   C232      1.0  0.3637000000000001  0.97747  0.18501  1.0000
  C   C233      1.0  0.10909  0.39319  0.14324  1.0000
  C   C234      1.0  0.13881  0.45302000000000003  0.12515  1.0000
  C   C235      1.0  0.59471  0.27202  0.16145  1.0000
  C   C236      1.0  0.84683  0.8266700000000001  0.25085  1.0000
  C   C237      1.0  0.56936  0.10278  0.24781  1.0000
  C   C238      1.0  0.01699  0.45662  0.15139  1.0000
  C   C239      1.0  0.82342  0.9408000000000002  0.25038  1.0000
  C   C240      1.0  0.6515  0.38857  0.13615  1.0000
  C   C241      1.0  0.6726  0.36163000000000006  0.15696  1.0000
  C   C242      1.0  0.72042  0.97757  0.25007  1.0000
  C   C243      1.0  0.9042400000000002  0.01927  0.25005  1.0000
  C   C244      1.0  0.68339  0.0805  0.24930999999999998  1.0000
  C   C245      1.0  0.76162  0.16181  0.24964999999999998  1.0000
  C   C246      1.0  0.6099  0.96128  0.65295  1.0000
  C   C247      1.0  0.62983  0.91886  0.6915  1.0000
  C   C248      1.0  0.08255  0.36819  0.68262  1.0000
  C   C249      1.0  0.29002  0.34554  0.66989  1.0000
  C   C250      1.0  0.20674  0.34195  0.65696  1.0000
  C   C251      1.0  0.6225  0.15577  0.65907  1.0000
  C   C252      1.0  0.01535  0.34727  0.64937  1.0000
  C   C253      1.0  0.52786  0.52741  0.63871  1.0000
  C   C254      1.0  0.77475  0.38598  0.63858  1.0000
  C   C255      1.0  0.6358700000000003  0.89871  0.71225  1.0000
  C   C256      1.0  0.10330000000000002  0.35578000000000004  0.66335  1.0000
  C   C257      1.0  0.26987  0.35982  0.68911  1.0000
  C   C258      1.0  0.16629  0.36908  0.69555  1.0000
  C   C259      1.0  0.40130000000000005  0.33730000000000004  0.66329  1.0000
  C   C260      1.0  0.62602  0.04405  0.66572  1.0000
  C   C261      1.0  0.57983  0.77193  0.64517  1.0000
  C   C262      1.0  0.61047  0.83637  0.67875  1.0000
  C   C263      1.0  0.60021  0.8575000000000002  0.65942  1.0000
  C   C264      1.0  0.14704  0.37615  0.71628  1.0000
  C   C265      1.0  0.8773900000000001  0.4301  0.63052  1.0000
  C   C266      1.0  0.4682100000000001  0.62883  0.63409  1.0000
  C   C267      1.0  0.63701  0.02263  0.68497  1.0000
  C   C268      1.0  0.89092  0.60678  0.64324  1.0000
  C   C269      1.0  0.86122  0.54693  0.62515  1.0000
  C   C270      1.0  0.40529000000000004  0.72798  0.66145  1.0000
  C   C271      1.0  0.15345  0.17279  0.75088  1.0000
  C   C272      1.0  0.43123  0.8975900000000001  0.74736  1.0000
  C   C273      1.0  0.98301  0.54335  0.6514  1.0000
  C   C274      1.0  0.17691000000000004  0.05883  0.75029  1.0000
  C   C275      1.0  0.34848  0.61143  0.63615  1.0000
  C   C276      1.0  0.3274  0.63836  0.65697  1.0000
  C   C277      1.0  0.2797  0.0218  0.74995  1.0000
  C   C278      1.0  0.09603000000000002  0.98026  0.74997  1.0000
  C   C279      1.0  0.3172  0.9191  0.74906  1.0000
  C   C280      1.0  0.23885000000000003  0.8377900000000001  0.74954  1.0000
  C   C281      1.0  0.12932  0.8706700000000002  0.74998  1.0000
  C   C282      1.0  0.87119  0.12882  0.25002  1.0000
  C   C283      1.0  0.62818  0.62816  0.49998  1.0000
  C   C284      1.0  0.37184  0.37185  0.99998  1.0000
  N   N1        1.0  0.28682  0.50898  0.85251  1.0000
  N   N2        1.0  0.56514  0.03789  0.85538  1.0000
  N   N3        1.0  0.71347  0.49104  0.3525  1.0000
  N   N4        1.0  0.43463  0.96195  0.35539  1.0000
  N   N5        1.0  0.9907700000000003  0.7880500000000001  0.60278  1.0000
  N   N6        1.0  0.46235  0.06681  0.60557  1.0000
  N   N7        1.0  0.00922  0.21194  0.10278  1.0000
  N   N8        1.0  0.53766  0.9331800000000002  0.10557  1.0000
  N   N9        1.0  0.21193000000000004  0.00921  0.89722  1.0000
  N   N10       1.0  0.93317  0.53764  0.89443  1.0000
  N   N11       1.0  0.7880400000000001  0.99076  0.39722  1.0000
  N   N12       1.0  0.06676  0.46234  0.39443  1.0000
  N   N13       1.0  0.50895  0.28685  0.14749  1.0000
  N   N14       1.0  0.03793  0.56515  0.14461  1.0000
  N   N15       1.0  0.49102  0.7131900000000001  0.64749  1.0000
  N   N16       1.0  0.9621  0.43481000000000003  0.64463  1.0000
  O   O1        1.0  0.54166  0.47612000000000004  0.87429  1.0000
  O   O2        1.0  0.69353  0.58234  0.85353  1.0000
  O   O3        1.0  0.65592  0.28688  0.87335  1.0000
  O   O4        1.0  0.8301700000000001  0.40243  0.85825  1.0000
  O   O5        1.0  0.74118  0.007090000000000001  0.85755  1.0000
  O   O6        1.0  0.5982  0.24284000000000006  0.84387  1.0000
  O   O7        1.0  0.77253  0.35955  0.82869  1.0000
  O   O8        1.0  0.02137  0.34419  0.77727  1.0000
  O   O9        1.0  0.60844  0.772  0.77331  1.0000
  O   O10       1.0  0.6353700000000001  0.94783  0.77796  1.0000
  O   O11       1.0  0.19553  0.3805700000000001  0.78205  1.0000
  O   O12       1.0  0.24247  0.35926  0.86839  1.0000
  O   O13       1.0  0.63501  0.52806  0.82474  1.0000
  O   O14       1.0  0.48127000000000003  0.42951  0.84504  1.0000
  O   O15       1.0  0.02136  0.50901  0.75132  1.0000
  O   O16       1.0  0.7993800000000001  0.9424300000000001  0.75141  1.0000
  O   O17       1.0  0.76726  0.76672  0.74659  1.0000
  O   O18       1.0  0.19801000000000005  0.54036  0.75513  1.0000
  O   O19       1.0  0.45873  0.52385  0.37426  1.0000
  O   O20       1.0  0.30662  0.41776  0.35359  1.0000
  O   O21       1.0  0.34413000000000005  0.7127900000000001  0.37336  1.0000
  O   O22       1.0  0.16981  0.5976  0.3582  1.0000
  O   O23       1.0  0.2588  0.9936500000000001  0.35767  1.0000
  O   O24       1.0  0.40186000000000005  0.75703  0.34387  1.0000
  O   O25       1.0  0.22742  0.64051  0.32864  1.0000
  O   O26       1.0  0.97823  0.6557100000000001  0.27725  1.0000
  O   O27       1.0  0.39131  0.22809  0.27338  1.0000
  O   O28       1.0  0.3649  0.05217  0.27801  1.0000
  O   O29       1.0  0.80495  0.61453  0.28196  1.0000
  O   O30       1.0  0.75753  0.6408  0.36838  1.0000
  O   O31       1.0  0.36495  0.47189  0.32476  1.0000
  O   O32       1.0  0.51885  0.57024  0.34496  1.0000
  O   O33       1.0  0.97831  0.49063  0.25139  1.0000
  O   O34       1.0  0.20095  0.05740000000000001  0.2515  1.0000
  O   O35       1.0  0.23316  0.23295  0.24651999999999996  1.0000
  O   O36       1.0  0.80112  0.45826  0.25422  1.0000
  O   O37       1.0  0.02126  0.04356  0.62457  1.0000
  O   O38       1.0  0.91759  0.19555  0.6031699999999999  1.0000
  O   O39       1.0  0.21172  0.15379  0.62372  1.0000
  O   O40       1.0  0.09600000000000003  0.33239  0.60852  1.0000
  O   O41       1.0  0.49234  0.24313  0.60756  1.0000
  O   O42       1.0  0.25833  0.10070000000000001  0.59411  1.0000
  O   O43       1.0  0.14291  0.27518  0.57914  1.0000
  O   O44       1.0  0.15302  0.52382  0.52758  1.0000
  O   O45       1.0  0.72599  0.11089000000000002  0.52307  1.0000
  O   O46       1.0  0.55037  0.13748  0.52774  1.0000
  O   O47       1.0  0.11641  0.69789  0.53236  1.0000
  O   O48       1.0  0.14294  0.74612  0.6182  1.0000
  O   O49       1.0  0.9731600000000001  0.13775  0.57441  1.0000
  O   O50       1.0  0.06854  0.98406  0.5953  1.0000
  O   O51       1.0  0.9895200000000002  0.52277  0.50097  1.0000
  O   O52       1.0  0.5563  0.29793  0.50103  1.0000
  O   O53       1.0  0.73218  0.26746  0.49604  1.0000
  O   O54       1.0  0.95797  0.6992200000000001  0.50467  1.0000
  O   O55       1.0  0.97874  0.9564400000000001  0.12457  1.0000
  O   O56       1.0  0.08242  0.80444  0.10317  1.0000
  O   O57       1.0  0.78829  0.8462100000000002  0.12372  1.0000
  O   O58       1.0  0.9040000000000002  0.6676  0.10852  1.0000
  O   O59       1.0  0.50765  0.75686  0.10756  1.0000
  O   O60       1.0  0.74167  0.89929  0.09411  1.0000
  O   O61       1.0  0.8570900000000001  0.72481  0.07914  1.0000
  O   O62       1.0  0.84699  0.47618000000000005  0.02758  1.0000
  O   O63       1.0  0.27399  0.8891400000000003  0.02308  1.0000
  O   O64       1.0  0.44962  0.86252  0.027749999999999997  1.0000
  O   O65       1.0  0.88356  0.3021  0.03235  1.0000
  O   O66       1.0  0.85706  0.25387  0.1182  1.0000
  O   O67       1.0  0.02684  0.86224  0.07441  1.0000
  O   O68       1.0  0.93146  0.01593  0.0953  1.0000
  O   O69       1.0  0.01048  0.47724  0.0009699999999999999  1.0000
  O   O70       1.0  0.44366  0.70209  0.00104  1.0000
  O   O71       1.0  0.26777  0.73253  0.99605  1.0000
  O   O72       1.0  0.04203  0.30079  0.00467  1.0000
  O   O73       1.0  0.95643  0.97874  0.87543  1.0000
  O   O74       1.0  0.80444  0.08242  0.89683  1.0000
  O   O75       1.0  0.8461900000000001  0.7883  0.87627  1.0000
  O   O76       1.0  0.6676  0.90401  0.8914699999999999  1.0000
  O   O77       1.0  0.75686  0.50766  0.89244  1.0000
  O   O78       1.0  0.89928  0.74166  0.90589  1.0000
  O   O79       1.0  0.7248  0.85708  0.9208599999999999  1.0000
  O   O80       1.0  0.47618  0.84698  0.9724199999999998  1.0000
  O   O81       1.0  0.88914  0.27398  0.9769199999999999  1.0000
  O   O82       1.0  0.86251  0.44963  0.97226  1.0000
  O   O83       1.0  0.30211  0.88356  0.9676499999999999  1.0000
  O   O84       1.0  0.25388  0.85704  0.8818  1.0000
  O   O85       1.0  0.86223  0.02683  0.9255900000000001  1.0000
  O   O86       1.0  0.01592  0.93145  0.9047000000000001  1.0000
  O   O87       1.0  0.47724  0.01047  0.99903  1.0000
  O   O88       1.0  0.7021  0.44365  0.99896  1.0000
  O   O89       1.0  0.73251  0.26775  0.00395  1.0000
  O   O90       1.0  0.30081  0.04203  0.99533  1.0000
  O   O91       1.0  0.04354000000000001  0.02125  0.37544  1.0000
  O   O92       1.0  0.19555000000000003  0.9174500000000001  0.39683  1.0000
  O   O93       1.0  0.15378  0.21171  0.37628  1.0000
  O   O94       1.0  0.33237  0.09598000000000001  0.39148  1.0000
  O   O95       1.0  0.24307  0.49233  0.39245  1.0000
  O   O96       1.0  0.1007  0.25833  0.40589  1.0000
  O   O97       1.0  0.2752  0.14291  0.42086  1.0000
  O   O98       1.0  0.52383  0.15301  0.47242  1.0000
  O   O99       1.0  0.11090000000000001  0.726  0.47694  1.0000
  O   O100      1.0  0.13748  0.55035  0.47226  1.0000
  O   O101      1.0  0.69788  0.1164  0.46764000000000006  1.0000
  O   O102      1.0  0.74611  0.14294  0.3818  1.0000
  O   O103      1.0  0.13777  0.9731400000000001  0.42559  1.0000
  O   O104      1.0  0.98405  0.06854  0.4047  1.0000
  O   O105      1.0  0.52277  0.98952  0.49903  1.0000
  O   O106      1.0  0.29793  0.55629  0.49897  1.0000
  O   O107      1.0  0.2675  0.73219  0.50396  1.0000
  O   O108      1.0  0.6992  0.95796  0.49533  1.0000
  O   O109      1.0  0.47612  0.54171  0.12571  1.0000
  O   O110      1.0  0.5823  0.69352  0.14646  1.0000
  O   O111      1.0  0.2869  0.65594  0.12665  1.0000
  O   O112      1.0  0.40236  0.83024  0.14178  1.0000
  O   O113      1.0  0.0068000000000000005  0.74114  0.14238  1.0000
  O   O114      1.0  0.24285  0.59821  0.15613  1.0000
  O   O115      1.0  0.3595  0.7725600000000001  0.17132  1.0000
  O   O116      1.0  0.34430000000000005  0.02178  0.22275  1.0000
  O   O117      1.0  0.77194  0.60868  0.22663  1.0000
  O   O118      1.0  0.9478600000000003  0.6351  0.22199999999999998  1.0000
  O   O119      1.0  0.38547  0.19509  0.21804  1.0000
  O   O120      1.0  0.35924  0.24254000000000003  0.1316  1.0000
  O   O121      1.0  0.52809  0.63501  0.17525  1.0000
  O   O122      1.0  0.4295  0.48128000000000004  0.15494999999999998  1.0000
  O   O123      1.0  0.50939  0.021740000000000002  0.24861000000000003  1.0000
  O   O124      1.0  0.9425700000000001  0.7990600000000002  0.24850000000000003  1.0000
  O   O125      1.0  0.76704  0.76684  0.25349  1.0000
  O   O126      1.0  0.54173  0.19896  0.24578  1.0000
  O   O127      1.0  0.52387  0.45833  0.62571  1.0000
  O   O128      1.0  0.41765  0.30646  0.64648  1.0000
  O   O129      1.0  0.7131100000000001  0.34407  0.62665  1.0000
  O   O130      1.0  0.59756  0.16981000000000002  0.64176  1.0000
  O   O131      1.0  0.99344  0.2588  0.64243  1.0000
  O   O132      1.0  0.7571400000000001  0.4017800000000001  0.65613  1.0000
  O   O133      1.0  0.64044  0.22747  0.67131  1.0000
  O   O134      1.0  0.65579  0.97856  0.72273  1.0000
  O   O135      1.0  0.228  0.39157  0.7267  1.0000
  O   O136      1.0  0.05219000000000001  0.36462000000000006  0.72204  1.0000
  O   O137      1.0  0.61887  0.8045100000000002  0.71797  1.0000
  O   O138      1.0  0.6407300000000001  0.7574800000000002  0.63161  1.0000
  O   O139      1.0  0.47195000000000004  0.36498  0.67526  1.0000
  O   O140      1.0  0.57048  0.51873  0.65495  1.0000
  O   O141      1.0  0.49101000000000006  0.97861  0.74868  1.0000
  O   O142      1.0  0.05763  0.20063  0.7486  1.0000
  O   O143      1.0  0.23336000000000004  0.23265000000000005  0.75339  1.0000
  O   O144      1.0  0.45951  0.8019300000000001  0.7449  1.0000
