data_image0
_chemical_formula_structural       Cu12H132C204N12O48
_chemical_formula_sum              "Cu12 H132 C204 N12 O48"
_cell_length_a       18.4332
_cell_length_b       18.54402
_cell_length_c       18.54282
_cell_angle_alpha    109.62687
_cell_angle_beta     109.31497999999999
_cell_angle_gamma    109.32463

_space_group_name_H-M_alt    "P 1"
_space_group_IT_number       1

loop_
  _space_group_symop_operation_xyz
  'x, y, z'

loop_
  _atom_site_type_symbol
  _atom_site_label
  _atom_site_symmetry_multiplicity
  _atom_site_fract_x
  _atom_site_fract_y
  _atom_site_fract_z
  _atom_site_occupancy
  Cu  Cu1       1.0  0.44732999999999995  0.50667  0.93617  1.0000
  Cu  Cu2       1.0  0.94069  0.42949  0.49338  1.0000
  Cu  Cu3       1.0  0.51117  0.06386000000000004  0.57049  1.0000
  Cu  Cu4       1.0  0.9880500000000001  0.42925  0.93558  1.0000
  Cu  Cu5       1.0  0.05249000000000003  0.06445000000000005  0.49367  1.0000
  Cu  Cu6       1.0  0.55888  0.5064599999999999  0.5708299999999998  1.0000
  Cu  Cu7       1.0  0.55267  0.49333000000000005  0.06382  1.0000
  Cu  Cu8       1.0  0.05931000000000008  0.5705100000000002  0.50662  1.0000
  Cu  Cu9       1.0  0.48883  0.93614  0.42951  1.0000
  Cu  Cu10      1.0  0.011950000000000006  0.57076  0.06441  1.0000
  Cu  Cu11      1.0  0.9475099999999999  0.93556  0.50633  1.0000
  Cu  Cu12      1.0  0.4411200000000001  0.49354000000000003  0.42917  1.0000
  H   H1        1.0  0.26692  0.47089000000000003  0.88538  1.0000
  H   H2        1.0  0.49113999999999997  0.57304  0.82639  1.0000
  H   H3        1.0  0.15547999999999992  0.51243  0.8205199999999998  1.0000
  H   H4        1.0  0.5288  0.6641800000000002  0.75781  1.0000
  H   H5        1.0  0.28762  0.67536  0.70174  1.0000
  H   H6        1.0  0.18888000000000002  0.60296  0.74827  1.0000
  H   H7        1.0  0.42904  0.71753  0.6977599999999998  1.0000
  H   H8        1.0  0.50135  0.62577  0.27898  1.0000
  H   H9        1.0  0.3704299999999999  0.23088  0.99845  1.0000
  H   H10       1.0  0.79574  0.41444000000000014  0.5289  1.0000
  H   H11       1.0  0.91793  0.25291  0.42659  1.0000
  H   H12       1.0  0.64284  0.30792  0.48741  1.0000
  H   H13       1.0  0.86439  0.09323000000000002  0.33568  1.0000
  H   H14       1.0  0.61221  0.026370000000000005  0.32477  1.0000
  H   H15       1.0  0.58602  0.14515  0.39711  1.0000
  H   H16       1.0  0.71137  0.97994  0.28254  1.0000
  H   H17       1.0  0.8755  0.6531800000000001  0.37446  1.0000
  H   H18       1.0  0.13945000000000002  0.7676700000000001  0.7692  1.0000
  H   H19       1.0  0.38173  0.11488  0.58578  1.0000
  H   H20       1.0  0.665  0.174  0.74692  1.0000
  H   H21       1.0  0.33521  0.1798  0.69234  1.0000
  H   H22       1.0  0.77112  0.24256000000000003  0.90663  1.0000
  H   H23       1.0  0.5858  0.2984399999999999  0.97375  1.0000
  H   H24       1.0  0.44099  0.25198999999999994  0.85512  1.0000
  H   H25       1.0  0.73127  0.3024800000000001  0.02003  1.0000
  H   H26       1.0  0.22202000000000002  0.72079  0.34664  1.0000
  H   H27       1.0  0.37208  0.0014399999999999925  0.23255  1.0000
  H   H28       1.0  0.11799000000000004  0.4143400000000001  0.88497  1.0000
  H   H29       1.0  0.8346400000000002  0.25288  0.82567  1.0000
  H   H30       1.0  0.16471  0.30786  0.8203  1.0000
  H   H31       1.0  0.7287900000000002  0.09319000000000004  0.75742  1.0000
  H   H32       1.0  0.9143300000000001  0.02634999999999999  0.70174  1.0000
  H   H33       1.0  0.05908999999999997  0.14511  0.74824  1.0000
  H   H34       1.0  0.7688  0.97989  0.69762  1.0000
  H   H35       1.0  0.2775300000000001  0.65306  0.27849  1.0000
  H   H36       1.0  0.12848000000000007  0.7683800000000001  0.99887  1.0000
  H   H37       1.0  0.23300000000000004  0.11486000000000002  0.52944  1.0000
  H   H38       1.0  0.008860000000000024  0.17393000000000006  0.42713  1.0000
  H   H39       1.0  0.34436  0.17942000000000002  0.48765  1.0000
  H   H40       1.0  0.97115  0.24218000000000003  0.33568  1.0000
  H   H41       1.0  0.21235  0.29809  0.32453  1.0000
  H   H42       1.0  0.31099  0.25154  0.397  1.0000
  H   H43       1.0  0.07096  0.30212  0.2823  1.0000
  H   H44       1.0  0.9989199999999998  0.72183  0.37464  1.0000
  H   H45       1.0  0.12981  0.0011900000000000244  0.76985  1.0000
  H   H46       1.0  0.70386  0.4708300000000001  0.58545  1.0000
  H   H47       1.0  0.58195  0.57331  0.74729  1.0000
  H   H48       1.0  0.85688  0.51247  0.69187  1.0000
  H   H49       1.0  0.63572  0.66449  0.90696  1.0000
  H   H50       1.0  0.88783  0.67533  0.97355  1.0000
  H   H51       1.0  0.91384  0.60288  0.85463  1.0000
  H   H52       1.0  0.78879  0.71764  0.02014  1.0000
  H   H53       1.0  0.62438  0.62517  0.3471  1.0000
  H   H54       1.0  0.36023  0.23019000000000003  0.23145  1.0000
  H   H55       1.0  0.73309  0.5291200000000001  0.11462  1.0000
  H   H56       1.0  0.50886  0.42696  0.17359999999999998  1.0000
  H   H57       1.0  0.84453  0.48757000000000006  0.17948  1.0000
  H   H58       1.0  0.4712  0.33582  0.24219  1.0000
  H   H59       1.0  0.71238  0.32464  0.29826  1.0000
  H   H60       1.0  0.81112  0.39703999999999995  0.25173  1.0000
  H   H61       1.0  0.57096  0.28247000000000005  0.30223  1.0000
  H   H62       1.0  0.49865  0.37423  0.72102  1.0000
  H   H63       1.0  0.62957  0.76913  0.00154  1.0000
  H   H64       1.0  0.20426  0.58557  0.4711  1.0000
  H   H65       1.0  0.08208000000000001  0.74709  0.57341  1.0000
  H   H66       1.0  0.35716000000000003  0.6920800000000001  0.51258  1.0000
  H   H67       1.0  0.13560999999999998  0.9067699999999999  0.66432  1.0000
  H   H68       1.0  0.38778999999999997  0.9736300000000001  0.67523  1.0000
  H   H69       1.0  0.41398  0.85485  0.60289  1.0000
  H   H70       1.0  0.28863  0.020059999999999998  0.71746  1.0000
  H   H71       1.0  0.12450000000000001  0.34683  0.62553  1.0000
  H   H72       1.0  0.86055  0.23233  0.2308  1.0000
  H   H73       1.0  0.61827  0.88512  0.41422  1.0000
  H   H74       1.0  0.335  0.826  0.25307  1.0000
  H   H75       1.0  0.66479  0.8202000000000002  0.30765  1.0000
  H   H76       1.0  0.22888  0.75745  0.09336  1.0000
  H   H77       1.0  0.41420000000000007  0.70156  0.02625  1.0000
  H   H78       1.0  0.55902  0.74801  0.14488  1.0000
  H   H79       1.0  0.26873  0.69753  0.97996  1.0000
  H   H80       1.0  0.77798  0.27921000000000007  0.65336  1.0000
  H   H81       1.0  0.6279200000000001  0.99856  0.76745  1.0000
  H   H82       1.0  0.88201  0.58566  0.11503  1.0000
  H   H83       1.0  0.1653600000000001  0.7471300000000002  0.17433  1.0000
  H   H84       1.0  0.83529  0.69214  0.1797  1.0000
  H   H85       1.0  0.27121  0.90681  0.24257999999999996  1.0000
  H   H86       1.0  0.08567000000000002  0.9736500000000001  0.29826  1.0000
  H   H87       1.0  0.94091  0.85489  0.25176  1.0000
  H   H88       1.0  0.23119999999999996  0.020109999999999996  0.30238  1.0000
  H   H89       1.0  0.72247  0.34694  0.72151  1.0000
  H   H90       1.0  0.87152  0.23163000000000003  0.00112  1.0000
  H   H91       1.0  0.767  0.88514  0.47056  1.0000
  H   H92       1.0  0.99114  0.82607  0.57287  1.0000
  H   H93       1.0  0.65564  0.8205900000000002  0.51235  1.0000
  H   H94       1.0  0.028850000000000025  0.7578200000000002  0.66432  1.0000
  H   H95       1.0  0.78765  0.70191  0.67547  1.0000
  H   H96       1.0  0.68901  0.7484700000000001  0.603  1.0000
  H   H97       1.0  0.9290400000000001  0.69789  0.7177  1.0000
  H   H98       1.0  0.001080000000000006  0.27817  0.62536  1.0000
  H   H99       1.0  0.8701899999999999  0.9988100000000001  0.23015  1.0000
  H   H100      1.0  0.29614  0.52917  0.41454  1.0000
  H   H101      1.0  0.41805  0.42669  0.25271  1.0000
  H   H102      1.0  0.14313  0.4875300000000001  0.30811999999999995  1.0000
  H   H103      1.0  0.36427999999999994  0.33552  0.09304  1.0000
  H   H104      1.0  0.11217  0.32468  0.02644  1.0000
  H   H105      1.0  0.08616  0.39712  0.14537  1.0000
  H   H106      1.0  0.21121  0.28236  0.97985  1.0000
  H   H107      1.0  0.37562000000000006  0.37483  0.6529  1.0000
  H   H108      1.0  0.63977  0.76981  0.76855  1.0000
  H   H109      1.0  0.26737  0.51657  0.03374  1.0000
  H   H110      1.0  0.43048  0.68068  0.36121  1.0000
  H   H111      1.0  0.75072  0.51709  0.48374  1.0000
  H   H112      1.0  0.7497200000000002  0.6803700000000001  0.31945  1.0000
  H   H113      1.0  0.23339000000000001  0.9663000000000002  0.48255  1.0000
  H   H114      1.0  0.06905  0.63884  0.31951  1.0000
  H   H115      1.0  0.73263  0.48344000000000004  0.96626  1.0000
  H   H116      1.0  0.56952  0.31933  0.63879  1.0000
  H   H117      1.0  0.24928  0.48292  0.51626  1.0000
  H   H118      1.0  0.25028  0.31963  0.68054  1.0000
  H   H119      1.0  0.76662  0.0337  0.51745  1.0000
  H   H120      1.0  0.9309500000000002  0.36116  0.68048  1.0000
  H   H121      1.0  0.24907000000000004  0.23788999999999996  0.76127  1.0000
  H   H122      1.0  0.25065000000000004  0.07457000000000003  0.9259  1.0000
  H   H123      1.0  0.011349999999999975  0.52337  0.76201  1.0000
  H   H124      1.0  0.17583  0.85126  0.92551  1.0000
  H   H125      1.0  0.48797  0.23877  0.47667  1.0000
  H   H126      1.0  0.32488  0.07408  0.14878  1.0000
  H   H127      1.0  0.7509299999999999  0.76211  0.23873  1.0000
  H   H128      1.0  0.74935  0.9254300000000001  0.07409  1.0000
  H   H129      1.0  0.9886500000000001  0.47663  0.23799  1.0000
  H   H130      1.0  0.82417  0.14874  0.07449  1.0000
  H   H131      1.0  0.51203  0.76123  0.52333  1.0000
  H   H132      1.0  0.67512  0.92592  0.85122  1.0000
  C   C1        1.0  0.3713  0.57724  0.80833  1.0000
  C   C2        1.0  0.27767  0.50803  0.85169  1.0000
  C   C3        1.0  0.44929  0.5986  0.80191  1.0000
  C   C4        1.0  0.3123499999999999  0.6055  0.77116  1.0000
  C   C5        1.0  0.21547000000000008  0.5320000000000001  0.8156  1.0000
  C   C6        1.0  0.46908  0.64849  0.76299  1.0000
  C   C7        1.0  0.33415000000000006  0.6559800000000002  0.73084  1.0000
  C   C8        1.0  0.23367999999999994  0.58154  0.77613  1.0000
  C   C9        1.0  0.41187  0.67804  0.72781  1.0000
  C   C10       1.0  0.43409  0.54512  0.10038  1.0000
  C   C11       1.0  0.3899  0.57058  0.15118  1.0000
  C   C12       1.0  0.43486  0.61447  0.24371  1.0000
  C   C13       1.0  0.3819700000000001  0.33955  0.92883  1.0000
  C   C14       1.0  0.31446  0.24478  0.88556  1.0000
  C   C15       1.0  0.3167  0.1978099999999999  0.93109  1.0000
  C   C16       1.0  0.7940299999999999  0.23099  0.42269  1.0000
  C   C17       1.0  0.76951  0.34361  0.49186  1.0000
  C   C18       1.0  0.85054  0.20304  0.40121  1.0000
  C   C19       1.0  0.70686  0.16559000000000004  0.39448  1.0000
  C   C20       1.0  0.68338  0.28353  0.46792  1.0000
  C   C21       1.0  0.8203800000000001  0.11418  0.35138  1.0000
  C   C22       1.0  0.6781  0.07475  0.34403  1.0000
  C   C23       1.0  0.65216  0.19452000000000003  0.41848  1.0000
  C   C24       1.0  0.7336800000000001  0.04951000000000002  0.32192  1.0000
  C   C25       1.0  0.8888600000000001  0.55514  0.45497  1.0000
  C   C26       1.0  0.81922  0.58051  0.42962999999999996  1.0000
  C   C27       1.0  0.82028  0.62915  0.38574  1.0000
  C   C28       1.0  0.04282  0.58955  0.66053  1.0000
  C   C29       1.0  0.06986999999999997  0.64087  0.75529  1.0000
  C   C30       1.0  0.11890000000000009  0.73332  0.80229  1.0000
  C   C31       1.0  0.56312  0.19183000000000006  0.76909  1.0000
  C   C32       1.0  0.42617000000000005  0.14852000000000007  0.65658  1.0000
  C   C33       1.0  0.6475399999999999  0.19835999999999998  0.79693  1.0000
  C   C34       1.0  0.54134  0.22898000000000002  0.83455  1.0000
  C   C35       1.0  0.40008  0.18463  0.71672  1.0000
  C   C36       1.0  0.70618  0.23727  0.88574  1.0000
  C   C37       1.0  0.60336  0.26931999999999995  0.92535  1.0000
  C   C38       1.0  0.45776  0.22404999999999994  0.80568  1.0000
  C   C39       1.0  0.6841  0.27239999999999986  0.95048  1.0000
  C   C40       1.0  0.33351  0.89943  0.44458  1.0000
  C   C41       1.0  0.23852000000000004  0.84875  0.4193  1.0000
  C   C42       1.0  0.19089  0.75621  0.37067  1.0000
  C   C43       1.0  0.45336000000000004  0.07109999999999995  0.4107399999999999  1.0000
  C   C44       1.0  0.42908  0.11441  0.3593  1.0000
  C   C45       1.0  0.38574  0.06885  0.26682  1.0000
  C   C46       1.0  0.9366700000000001  0.23091000000000006  0.808  1.0000
  C   C47       1.0  0.07359  0.34352  0.85136  1.0000
  C   C48       1.0  0.8522200000000001  0.20295  0.80142  1.0000
  C   C49       1.0  0.9585900000000002  0.16552000000000006  0.77102  1.0000
  C   C50       1.0  0.09980999999999998  0.28345  0.81541  1.0000
  C   C51       1.0  0.79371  0.11412999999999997  0.76264  1.0000
  C   C52       1.0  0.89667  0.07470000000000002  0.73075  1.0000
  C   C53       1.0  0.04221000000000002  0.19448  0.77605  1.0000
  C   C54       1.0  0.8159  0.04945999999999998  0.72763  1.0000
  C   C55       1.0  0.16669000000000003  0.55555  0.10060999999999999  1.0000
  C   C56       1.0  0.2615  0.5802200000000001  0.15098  1.0000
  C   C57       1.0  0.30897  0.62904  0.24348  1.0000
  C   C58       1.0  0.04642999999999993  0.58969  0.92942  1.0000
  C   C59       1.0  0.07064999999999996  0.6411  0.88604  1.0000
  C   C60       1.0  0.11435000000000001  0.73362  0.93135  1.0000
  C   C61       1.0  0.1287  0.19189000000000006  0.42297  1.0000
  C   C62       1.0  0.22225999999999999  0.14849999999999994  0.49224  1.0000
  C   C63       1.0  0.050730000000000025  0.19832000000000005  0.40155  1.0000
  C   C64       1.0  0.18761  0.22888000000000003  0.39459  1.0000
  C   C65       1.0  0.28441  0.18441000000000002  0.46813  1.0000
  C   C66       1.0  0.030929999999999996  0.23708  0.35149  1.0000
  C   C67       1.0  0.16583  0.26909  0.34399  1.0000
  C   C68       1.0  0.26622  0.22380999999999998  0.41852  1.0000
  C   C69       1.0  0.08813  0.27214  0.32187  1.0000
  C   C70       1.0  0.06607999999999996  0.8995999999999998  0.45507  1.0000
  C   C71       1.0  0.11045  0.84916  0.42932  1.0000
  C   C72       1.0  0.06535000000000006  0.7566700000000001  0.38562  1.0000
  C   C73       1.0  0.11722  0.07062  0.66035  1.0000
  C   C74       1.0  0.18464999999999995  0.11395000000000001  0.75518  1.0000
  C   C75       1.0  0.18311000000000005  0.06870000000000001  0.80248  1.0000
  C   C76       1.0  0.70579  0.57716  0.76903  1.0000
  C   C77       1.0  0.73016  0.50791  0.6563  1.0000
  C   C78       1.0  0.64936  0.5987  0.79708  1.0000
  C   C79       1.0  0.79302  0.60546  0.83436  1.0000
  C   C80       1.0  0.81635  0.53194  0.71631  1.0000
  C   C81       1.0  0.67965  0.64869  0.88595  1.0000
  C   C82       1.0  0.8219  0.6560200000000002  0.92522  1.0000
  C   C83       1.0  0.84766  0.58146  0.80533  1.0000
  C   C84       1.0  0.7664  0.67819  0.95056  1.0000
  C   C85       1.0  0.61114  0.54504  0.44476  1.0000
  C   C86       1.0  0.68118  0.57055  0.41993  1.0000
  C   C87       1.0  0.67981  0.61421  0.37107999999999997  1.0000
  C   C88       1.0  0.45675  0.33962  0.41004  1.0000
  C   C89       1.0  0.4295799999999999  0.24481  0.3588  1.0000
  C   C90       1.0  0.3808  0.19748999999999997  0.2663  1.0000
  C   C91       1.0  0.6287  0.42276  0.19167  1.0000
  C   C92       1.0  0.72233  0.49198000000000003  0.14831  1.0000
  C   C93       1.0  0.55071  0.4014  0.19809  1.0000
  C   C94       1.0  0.68765  0.3945  0.22884  1.0000
  C   C95       1.0  0.78453  0.468  0.1844  1.0000
  C   C96       1.0  0.53093  0.35151  0.23701  1.0000
  C   C97       1.0  0.66585  0.34402  0.26915  1.0000
  C   C98       1.0  0.76632  0.41847  0.22387  1.0000
  C   C99       1.0  0.58813  0.32196  0.27218  1.0000
  C   C100      1.0  0.56591  0.45488  0.89962  1.0000
  C   C101      1.0  0.6101  0.42942  0.84882  1.0000
  C   C102      1.0  0.56514  0.38553  0.75629  1.0000
  C   C103      1.0  0.61803  0.66045  0.07117  1.0000
  C   C104      1.0  0.68554  0.75523  0.11444  1.0000
  C   C105      1.0  0.6833  0.80219  0.06891  1.0000
  C   C106      1.0  0.20598000000000002  0.76901  0.57731  1.0000
  C   C107      1.0  0.23049000000000008  0.6564000000000002  0.50814  1.0000
  C   C108      1.0  0.14945999999999995  0.79696  0.59879  1.0000
  C   C109      1.0  0.29314  0.83441  0.60552  1.0000
  C   C110      1.0  0.31662  0.71648  0.53207  1.0000
  C   C111      1.0  0.17962  0.88582  0.64862  1.0000
  C   C112      1.0  0.3219  0.9252499999999999  0.65597  1.0000
  C   C113      1.0  0.34784000000000004  0.8054800000000002  0.5815199999999999  1.0000
  C   C114      1.0  0.26632000000000006  0.9504900000000001  0.67807  1.0000
  C   C115      1.0  0.11113999999999999  0.4448599999999999  0.5450299999999999  1.0000
  C   C116      1.0  0.18078  0.41949  0.57036  1.0000
  C   C117      1.0  0.17972000000000002  0.3708500000000001  0.61426  1.0000
  C   C118      1.0  0.9571899999999999  0.41046  0.33946  1.0000
  C   C119      1.0  0.93013  0.35914  0.24471  1.0000
  C   C120      1.0  0.8810999999999999  0.26668  0.19771  1.0000
  C   C121      1.0  0.43687999999999994  0.8081700000000003  0.23091  1.0000
  C   C122      1.0  0.57383  0.8514900000000002  0.34341  1.0000
  C   C123      1.0  0.35246  0.80165  0.20307  1.0000
  C   C124      1.0  0.45866999999999997  0.77102  0.16545  1.0000
  C   C125      1.0  0.59992  0.81537  0.28328  1.0000
  C   C126      1.0  0.29382  0.76273  0.11426  1.0000
  C   C127      1.0  0.39665  0.73068  0.07465  1.0000
  C   C128      1.0  0.54224  0.77596  0.19432  1.0000
  C   C129      1.0  0.31589999999999996  0.7275999999999999  0.049519999999999995  1.0000
  C   C130      1.0  0.66649  0.10057000000000005  0.55542  1.0000
  C   C131      1.0  0.76148  0.15125000000000005  0.5807  1.0000
  C   C132      1.0  0.8091199999999997  0.24378999999999998  0.62933  1.0000
  C   C133      1.0  0.5466400000000001  0.9289000000000001  0.58925  1.0000
  C   C134      1.0  0.57092  0.88559  0.6407  1.0000
  C   C135      1.0  0.61426  0.93115  0.73318  1.0000
  C   C136      1.0  0.06332999999999997  0.76909  0.192  1.0000
  C   C137      1.0  0.92641  0.6564800000000001  0.14864  1.0000
  C   C138      1.0  0.14778  0.79705  0.19858  1.0000
  C   C139      1.0  0.04141000000000003  0.83448  0.22898  1.0000
  C   C140      1.0  0.9001899999999999  0.71655  0.18459  1.0000
  C   C141      1.0  0.20629  0.88587  0.23735  1.0000
  C   C142      1.0  0.10333000000000006  0.92531  0.26925  1.0000
  C   C143      1.0  0.95779  0.80552  0.22394  1.0000
  C   C144      1.0  0.18409999999999999  0.95055  0.27236  1.0000
  C   C145      1.0  0.83331  0.44446  0.89939  1.0000
  C   C146      1.0  0.7385  0.41978  0.84902  1.0000
  C   C147      1.0  0.6910300000000001  0.37096  0.75652  1.0000
  C   C148      1.0  0.95357  0.41032  0.07057999999999999  1.0000
  C   C149      1.0  0.9293500000000001  0.35890000000000005  0.11395  1.0000
  C   C150      1.0  0.88565  0.26638  0.06864999999999999  1.0000
  C   C151      1.0  0.8713  0.80812  0.57702  1.0000
  C   C152      1.0  0.7777400000000001  0.8515000000000001  0.50775  1.0000
  C   C153      1.0  0.9492699999999997  0.80168  0.5984499999999998  1.0000
  C   C154      1.0  0.8123900000000001  0.77112  0.60541  1.0000
  C   C155      1.0  0.71559  0.81559  0.53187  1.0000
  C   C156      1.0  0.9690799999999999  0.7629299999999999  0.6485099999999999  1.0000
  C   C157      1.0  0.83417  0.73091  0.65601  1.0000
  C   C158      1.0  0.7337799999999999  0.7761899999999999  0.5814699999999999  1.0000
  C   C159      1.0  0.9118699999999998  0.72786  0.67812  1.0000
  C   C160      1.0  0.9339200000000001  0.10040000000000002  0.54493  1.0000
  C   C161      1.0  0.8895499999999995  0.15084  0.57068  1.0000
  C   C162      1.0  0.93465  0.24333000000000002  0.61438  1.0000
  C   C163      1.0  0.8827799999999999  0.92938  0.33965  1.0000
  C   C164      1.0  0.8153500000000001  0.8860500000000001  0.24482  1.0000
  C   C165      1.0  0.8168900000000001  0.9313  0.19752  1.0000
  C   C166      1.0  0.29421  0.42284  0.23097  1.0000
  C   C167      1.0  0.26984  0.4920900000000001  0.34369999999999995  1.0000
  C   C168      1.0  0.35063999999999995  0.4013  0.20291  1.0000
  C   C169      1.0  0.20698000000000003  0.39454000000000006  0.16563999999999998  1.0000
  C   C170      1.0  0.18365000000000006  0.46806000000000003  0.28369  1.0000
  C   C171      1.0  0.32035  0.35131  0.11404999999999997  1.0000
  C   C172      1.0  0.1781  0.34398  0.07477  1.0000
  C   C173      1.0  0.15234000000000003  0.41855000000000003  0.19467  1.0000
  C   C174      1.0  0.2336  0.32182  0.04944  1.0000
  C   C175      1.0  0.38886  0.45497  0.55524  1.0000
  C   C176      1.0  0.31883  0.42945  0.58007  1.0000
  C   C177      1.0  0.32019  0.38578999999999997  0.62892  1.0000
  C   C178      1.0  0.54325  0.66038  0.58995  1.0000
  C   C179      1.0  0.57043  0.7552  0.6412  1.0000
  C   C180      1.0  0.6192  0.8025100000000001  0.7337  1.0000
  C   C181      1.0  0.30287  0.55242  0.10533  1.0000
  C   C182      1.0  0.39475  0.64469  0.28945  1.0000
  C   C183      1.0  0.75033  0.55277  0.44781  1.0000
  C   C184      1.0  0.7499599999999998  0.6446099999999999  0.35544999999999993  1.0000
  C   C185      1.0  0.1973400000000001  0.89471  0.447  1.0000
  C   C186      1.0  0.10510000000000004  0.71059  0.35524  1.0000
  C   C187      1.0  0.69713  0.44758  0.89467  1.0000
  C   C188      1.0  0.6052599999999999  0.35531  0.71055  1.0000
  C   C189      1.0  0.24967  0.44723  0.55219  1.0000
  C   C190      1.0  0.25004  0.35539  0.64455  1.0000
  C   C191      1.0  0.8026599999999999  0.10528999999999994  0.553  1.0000
  C   C192      1.0  0.8949  0.28941000000000006  0.64476  1.0000
  C   C193      1.0  0.24938999999999995  0.20224999999999999  0.79735  1.0000
  C   C194      1.0  0.25012  0.11032999999999997  0.88989  1.0000
  C   C195      1.0  0.04723000000000002  0.59506  0.79772  1.0000
  C   C196      1.0  0.13973000000000002  0.7795  0.88979  1.0000
  C   C197      1.0  0.45217999999999997  0.20266  0.40497  1.0000
  C   C198      1.0  0.36038  0.11005000000000002  0.22054  1.0000
  C   C199      1.0  0.7506099999999999  0.79775  0.20265  1.0000
  C   C200      1.0  0.74988  0.88968  0.11011  1.0000
  C   C201      1.0  0.95277  0.40494  0.20228  1.0000
  C   C202      1.0  0.8602700000000002  0.2205  0.11021  1.0000
  C   C203      1.0  0.54782  0.79734  0.59502  1.0000
  C   C204      1.0  0.63962  0.88995  0.77946  1.0000
  N   N1        1.0  0.35305  0.52978  0.84942  1.0000
  N   N2        1.0  0.82321  0.31958  0.47017  1.0000
  N   N3        1.0  0.5038  0.15075000000000002  0.68053  1.0000
  N   N4        1.0  0.9959  0.3195  0.84899  1.0000
  N   N5        1.0  0.14695999999999995  0.1509  0.47056  1.0000
  N   N6        1.0  0.67649  0.52957  0.68041  1.0000
  N   N7        1.0  0.64695  0.4702200000000001  0.15058  1.0000
  N   N8        1.0  0.17679000000000003  0.68042  0.52982  1.0000
  N   N9        1.0  0.4962  0.8492500000000002  0.31947  1.0000
  N   N10       1.0  0.0040999999999999535  0.6805  0.151  1.0000
  N   N11       1.0  0.85304  0.8491  0.52944  1.0000
  N   N12       1.0  0.3235100000000001  0.47043000000000007  0.31958  1.0000
  O   O1        1.0  0.40458  0.53861  0.02432  1.0000
  O   O2        1.0  0.36332  0.38084  0.88923  1.0000
  O   O3        1.0  0.45217  0.36986  0.00021  1.0000
  O   O4        1.0  0.49811  0.53324  0.13626  1.0000
  O   O5        1.0  0.86595  0.48567000000000005  0.46161  1.0000
  O   O6        1.0  0.9827299999999999  0.50874  0.61916  1.0000
  O   O7        1.0  0.08291999999999998  0.63067  0.63035  1.0000
  O   O8        1.0  0.96468  0.60282  0.46667  1.0000
  O   O9        1.0  0.38003000000000003  0.97557  0.51405  1.0000
  O   O10       1.0  0.4741099999999999  0.11066  0.49161  1.0000
  O   O11       1.0  0.45235  0.99974  0.36964  1.0000
  O   O12       1.0  0.3616599999999999  0.8634000000000001  0.39686  1.0000
  O   O13       1.0  0.11958000000000005  0.48611000000000004  0.02449  1.0000
  O   O14       1.0  0.025089999999999956  0.50867  0.8895  1.0000
  O   O15       1.0  0.048039999999999985  0.63088  0.0010999999999999998  1.0000
  O   O16       1.0  0.13924  0.60389  0.13704  1.0000
  O   O17       1.0  0.09495000000000006  0.9756400000000001  0.46161  1.0000
  O   O18       1.0  0.13582  0.11055000000000002  0.61928  1.0000
  O   O19       1.0  0.047190000000000065  0.9990200000000001  0.6298  1.0000
  O   O20       1.0  0.0023499999999999554  0.86325  0.46714  1.0000
  O   O21       1.0  0.6335  0.53849  0.51426  1.0000
  O   O22       1.0  0.51647  0.38089  0.491  1.0000
  O   O23       1.0  0.41717000000000004  0.37  0.36877  1.0000
  O   O24       1.0  0.53538  0.53307  0.39646  1.0000
  O   O25       1.0  0.59542  0.46139  0.97568  1.0000
  O   O26       1.0  0.63668  0.61916  0.11077  1.0000
  O   O27       1.0  0.54783  0.63015  0.99979  1.0000
  O   O28       1.0  0.50189  0.46676  0.86374  1.0000
  O   O29       1.0  0.13405  0.51433  0.53839  1.0000
  O   O30       1.0  0.017270000000000032  0.49126000000000003  0.38084  1.0000
  O   O31       1.0  0.9170800000000001  0.36934  0.36965  1.0000
  O   O32       1.0  0.03532000000000002  0.39718  0.53332  1.0000
  O   O33       1.0  0.6199700000000002  0.02444000000000002  0.48595  1.0000
  O   O34       1.0  0.52589  0.88935  0.5084  1.0000
  O   O35       1.0  0.54765  0.0002600000000000134  0.63036  1.0000
  O   O36       1.0  0.63834  0.1366  0.60314  1.0000
  O   O37       1.0  0.8804199999999999  0.51389  0.97551  1.0000
  O   O38       1.0  0.9749099999999999  0.49133  0.1105  1.0000
  O   O39       1.0  0.9519600000000001  0.36912  0.9988999999999999  1.0000
  O   O40       1.0  0.86076  0.39612  0.86295  1.0000
  O   O41       1.0  0.9050500000000001  0.024360000000000038  0.53839  1.0000
  O   O42       1.0  0.8641799999999998  0.88946  0.38071999999999995  1.0000
  O   O43       1.0  0.95281  0.0009800000000000097  0.3702  1.0000
  O   O44       1.0  0.9976499999999999  0.13675  0.53286  1.0000
  O   O45       1.0  0.3665  0.46151  0.48574  1.0000
  O   O46       1.0  0.48353  0.6191200000000001  0.509  1.0000
  O   O47       1.0  0.58283  0.63001  0.63122  1.0000
  O   O48       1.0  0.46462  0.46693  0.60354  1.0000
