data_image0
_chemical_formula_structural       Cu8Si4H152C224N16O16
_chemical_formula_sum              "Cu8 Si4 H152 C224 N16 O16"
_cell_length_a       18.62471
_cell_length_b       19.3537
_cell_length_c       21.40582
_cell_angle_alpha    107.98149000000001
_cell_angle_beta     92.76733999999999
_cell_angle_gamma    99.78994999999999

_space_group_name_H-M_alt    "P 1"
_space_group_IT_number       1

loop_
  _space_group_symop_operation_xyz
  'x, y, z'

loop_
  _atom_site_type_symbol
  _atom_site_label
  _atom_site_symmetry_multiplicity
  _atom_site_fract_x
  _atom_site_fract_y
  _atom_site_fract_z
  _atom_site_occupancy
  Cu  Cu1       1.0  0.46989  0.051289999999999975  0.48791999999999996  1.0000
  Cu  Cu2       1.0  0.43377  0.27014  0.02038  1.0000
  Cu  Cu3       1.0  0.53096  0.44420000000000004  0.50166  1.0000
  Cu  Cu4       1.0  0.007119999999999989  0.76025  0.00338  1.0000
  Cu  Cu5       1.0  0.5301  0.9486899999999999  0.5121499999999999  1.0000
  Cu  Cu6       1.0  0.56624  0.72986  0.97962  1.0000
  Cu  Cu7       1.0  0.46907  0.55581  0.49836  1.0000
  Cu  Cu8       1.0  0.99288  0.23975  0.99662  1.0000
  Si  Si1       1.0  0.10461  0.62306  0.57784  1.0000
  Si  Si2       1.0  0.90326  0.8688799999999999  0.4172699999999999  1.0000
  Si  Si3       1.0  0.8954  0.37692  0.42216  1.0000
  Si  Si4       1.0  0.09674  0.13111  0.58273  1.0000
  H   H1        1.0  0.93938  0.61796  0.54419  1.0000
  H   H2        1.0  0.8384199999999998  0.62739  0.61467  1.0000
  H   H3        1.0  0.9767400000000002  0.6032199999999999  0.7711499999999999  1.0000
  H   H4        1.0  0.08006  0.60015  0.70274  1.0000
  H   H5        1.0  0.70607  0.65848  0.9799499999999999  1.0000
  H   H6        1.0  0.79609  0.61971  0.90059  1.0000
  H   H7        1.0  0.6995499999999999  0.7280000000000001  0.77781  1.0000
  H   H8        1.0  0.6144  0.7631399999999999  0.8624299999999999  1.0000
  H   H9        1.0  0.14883  0.75834  0.53763  1.0000
  H   H10       1.0  0.13818  0.78372  0.43221  1.0000
  H   H11       1.0  0.024400000000000005  0.55841  0.33601  1.0000
  H   H12       1.0  0.036930000000000004  0.53253  0.44099  1.0000
  H   H13       1.0  0.92229  0.67463  0.07142  1.0000
  H   H14       1.0  0.94024  0.6464999999999999  0.17531  1.0000
  H   H15       1.0  0.15639  0.78608  0.21159999999999998  1.0000
  H   H16       1.0  0.1304  0.8088  0.10624  1.0000
  H   H17       1.0  0.26939  0.66914  0.62464  1.0000
  H   H18       1.0  0.34517999999999993  0.7865799999999998  0.69777  1.0000
  H   H19       1.0  0.15096  0.8805  0.73506  1.0000
  H   H20       1.0  0.07503000000000003  0.76294  0.66356  1.0000
  H   H21       1.0  0.29633  0.19455999999999998  0.9438599999999999  1.0000
  H   H22       1.0  0.2465  0.07313  0.85825  1.0000
  H   H23       1.0  0.46765  0.030329999999999992  0.85319  1.0000
  H   H24       1.0  0.5085899999999999  0.15487  0.93679  1.0000
  H   H25       1.0  0.08282  0.48579999999999995  0.62094  1.0000
  H   H26       1.0  0.14343  0.37772  0.5966  1.0000
  H   H27       1.0  0.28649  0.47206  0.47854  1.0000
  H   H28       1.0  0.22188000000000002  0.57669  0.49884  1.0000
  H   H29       1.0  0.49393  0.21505  0.54715  1.0000
  H   H30       1.0  0.42567  0.31992  0.56367  1.0000
  H   H31       1.0  0.24726  0.16313  0.43033  1.0000
  H   H32       1.0  0.32531  0.06678000000000003  0.41639  1.0000
  H   H33       1.0  0.86897  0.9466899999999999  0.55469  1.0000
  H   H34       1.0  0.8845300000000001  0.9242899999999998  0.66116  1.0000
  H   H35       1.0  0.99441  0.74495  0.5700899999999999  1.0000
  H   H36       1.0  0.97518  0.76442  0.46331  1.0000
  H   H37       1.0  0.8894899999999999  0.80764  0.94223  1.0000
  H   H38       1.0  0.86615  0.8291799999999999  0.83577  1.0000
  H   H39       1.0  0.07226  0.76374  0.78311  1.0000
  H   H40       1.0  0.08832000000000002  0.74544  0.89181  1.0000
  H   H41       1.0  0.74049  0.8071  0.37683  1.0000
  H   H42       1.0  0.67099  0.6882799999999998  0.3026  1.0000
  H   H43       1.0  0.87295  0.61235  0.25599  1.0000
  H   H44       1.0  0.94311  0.73217  0.32915  1.0000
  H   H45       1.0  0.59733  0.29524  0.02981  1.0000
  H   H46       1.0  0.69965  0.3923499999999999  0.09867  1.0000
  H   H47       1.0  0.53739  0.51345  0.1927  1.0000
  H   H48       1.0  0.4416  0.41053999999999996  0.12133999999999999  1.0000
  H   H49       1.0  0.9357  0.01363000000000001  0.38718  1.0000
  H   H50       1.0  0.86882  0.11587999999999998  0.40028  1.0000
  H   H51       1.0  0.69599  0.001500000000000003  0.48042  1.0000
  H   H52       1.0  0.7619  0.89962  0.46706  1.0000
  H   H53       1.0  0.50547  0.27716  0.4243  1.0000
  H   H54       1.0  0.56876  0.16825  0.40463  1.0000
  H   H55       1.0  0.74377  0.31215  0.55026  1.0000
  H   H56       1.0  0.66941  0.41214999999999996  0.5677899999999999  1.0000
  H   H57       1.0  0.93924  0.88011  0.28758  1.0000
  H   H58       1.0  0.054810000000000005  0.90811  0.23991999999999997  1.0000
  H   H59       1.0  0.17839  0.9203  0.41987  1.0000
  H   H60       1.0  0.06322000000000001  0.8947  0.46822  1.0000
  H   H61       1.0  0.49496999999999997  0.03402  0.28462  1.0000
  H   H62       1.0  0.38725  0.99272  0.33601  1.0000
  H   H63       1.0  0.25387000000000004  0.9680500000000001  0.15584  1.0000
  H   H64       1.0  0.36929  0.00663  0.11029  1.0000
  H   H65       1.0  0.66236  0.16191  0.67093  1.0000
  H   H66       1.0  0.66945  0.21437999999999996  0.61495  1.0000
  H   H67       1.0  0.7245  0.14574999999999994  0.61069  1.0000
  H   H68       1.0  0.65374  0.9540199999999999  0.3338  1.0000
  H   H69       1.0  0.62243  0.03201000000000002  0.32178  1.0000
  H   H70       1.0  0.56794  0.94172  0.28764  1.0000
  H   H71       1.0  0.64851  0.6974600000000001  0.66043  1.0000
  H   H72       1.0  0.71253  0.6606300000000002  0.60734  1.0000
  H   H73       1.0  0.68737  0.62136  0.67002  1.0000
  H   H74       1.0  0.333  0.50083  0.6536  1.0000
  H   H75       1.0  0.41682  0.50664  0.70021  1.0000
  H   H76       1.0  0.36756  0.41855  0.64891  1.0000
  H   H77       1.0  0.06063  0.38203  0.45581000000000005  1.0000
  H   H78       1.0  0.16159  0.3726  0.38532999999999995  1.0000
  H   H79       1.0  0.02328  0.39677  0.22884999999999997  1.0000
  H   H80       1.0  0.91995  0.39985  0.29726  1.0000
  H   H81       1.0  0.29393  0.34151  0.02004  1.0000
  H   H82       1.0  0.20391  0.38029  0.09941  1.0000
  H   H83       1.0  0.30046  0.272  0.22219999999999998  1.0000
  H   H84       1.0  0.38561  0.23685  0.13757  1.0000
  H   H85       1.0  0.85117  0.24164  0.46236  1.0000
  H   H86       1.0  0.86182  0.21626999999999996  0.5678  1.0000
  H   H87       1.0  0.97562  0.44159  0.664  1.0000
  H   H88       1.0  0.9630900000000001  0.46748  0.55902  1.0000
  H   H89       1.0  0.07772  0.32537  0.92858  1.0000
  H   H90       1.0  0.059770000000000004  0.3535  0.82469  1.0000
  H   H91       1.0  0.84361  0.21391  0.7884  1.0000
  H   H92       1.0  0.86959  0.19119000000000005  0.89375  1.0000
  H   H93       1.0  0.73061  0.33085  0.37536  1.0000
  H   H94       1.0  0.65482  0.21341  0.30224  1.0000
  H   H95       1.0  0.8490400000000001  0.11948999999999999  0.26494  1.0000
  H   H96       1.0  0.92497  0.23705  0.33644  1.0000
  H   H97       1.0  0.70368  0.80544  0.05614  1.0000
  H   H98       1.0  0.75351  0.92686  0.14175  1.0000
  H   H99       1.0  0.53235  0.9696599999999999  0.14681  1.0000
  H   H100      1.0  0.49142  0.84512  0.06321  1.0000
  H   H101      1.0  0.9172  0.51418  0.37905  1.0000
  H   H102      1.0  0.85659  0.62226  0.40339  1.0000
  H   H103      1.0  0.71353  0.52792  0.52145  1.0000
  H   H104      1.0  0.77814  0.4232899999999999  0.5011499999999999  1.0000
  H   H105      1.0  0.50608  0.78496  0.45287  1.0000
  H   H106      1.0  0.57434  0.68008  0.43633  1.0000
  H   H107      1.0  0.75275  0.83686  0.56967  1.0000
  H   H108      1.0  0.67471  0.9332  0.58362  1.0000
  H   H109      1.0  0.13105  0.053299999999999986  0.44530999999999993  1.0000
  H   H110      1.0  0.11547999999999999  0.0757  0.33884  1.0000
  H   H111      1.0  0.005600000000000007  0.25504  0.42991  1.0000
  H   H112      1.0  0.024830000000000005  0.23557000000000003  0.5367  1.0000
  H   H113      1.0  0.11052  0.19234  0.05777  1.0000
  H   H114      1.0  0.13386  0.17082  0.16423  1.0000
  H   H115      1.0  0.9277500000000001  0.23626  0.21689  1.0000
  H   H116      1.0  0.91168  0.25455  0.10819  1.0000
  H   H117      1.0  0.25952  0.19288999999999995  0.6231699999999999  1.0000
  H   H118      1.0  0.3290199999999999  0.31172  0.6974  1.0000
  H   H119      1.0  0.12706  0.38763999999999993  0.74401  1.0000
  H   H120      1.0  0.05689000000000001  0.26782  0.67085  1.0000
  H   H121      1.0  0.40268  0.70475  0.97019  1.0000
  H   H122      1.0  0.30035  0.60764  0.90132  1.0000
  H   H123      1.0  0.46262  0.48654  0.80729  1.0000
  H   H124      1.0  0.55841  0.58945  0.87866  1.0000
  H   H125      1.0  0.06430999999999998  0.9863699999999999  0.61282  1.0000
  H   H126      1.0  0.13118  0.88412  0.59974  1.0000
  H   H127      1.0  0.30402  0.9984899999999999  0.51959  1.0000
  H   H128      1.0  0.23811  0.10036  0.53295  1.0000
  H   H129      1.0  0.4945399999999999  0.72284  0.57569  1.0000
  H   H130      1.0  0.43124  0.83174  0.59537  1.0000
  H   H131      1.0  0.25624  0.68785  0.4497399999999999  1.0000
  H   H132      1.0  0.33061  0.58786  0.43219  1.0000
  H   H133      1.0  0.06076999999999999  0.11988  0.71243  1.0000
  H   H134      1.0  0.94519  0.09189  0.76008  1.0000
  H   H135      1.0  0.82161  0.0797  0.58013  1.0000
  H   H136      1.0  0.93679  0.10530000000000002  0.53178  1.0000
  H   H137      1.0  0.50503  0.9659499999999999  0.71538  1.0000
  H   H138      1.0  0.61275  0.007249999999999996  0.66399  1.0000
  H   H139      1.0  0.74614  0.03196000000000002  0.8441800000000002  1.0000
  H   H140      1.0  0.6307199999999998  0.99337  0.88972  1.0000
  H   H141      1.0  0.33764  0.83808  0.32908  1.0000
  H   H142      1.0  0.33058  0.78564  0.38508  1.0000
  H   H143      1.0  0.27545  0.8542  0.38929  1.0000
  H   H144      1.0  0.34623  0.04591999999999996  0.66625  1.0000
  H   H145      1.0  0.37758  0.9679399999999999  0.67825  1.0000
  H   H146      1.0  0.4320300000000001  0.05826  0.71241  1.0000
  H   H147      1.0  0.35153  0.30252  0.33959  1.0000
  H   H148      1.0  0.28754  0.3394  0.3927  1.0000
  H   H149      1.0  0.31267  0.37863  0.33  1.0000
  H   H150      1.0  0.66698  0.49925  0.34644  1.0000
  H   H151      1.0  0.58314  0.4934  0.29984  1.0000
  H   H152      1.0  0.63241  0.5815  0.35109  1.0000
  C   C1        1.0  0.018660000000000048  0.61072  0.61859  1.0000
  C   C2        1.0  0.9488599999999999  0.61607  0.59423  1.0000
  C   C3        1.0  0.8912099999999998  0.62075  0.63352  1.0000
  C   C4        1.0  0.9011699999999999  0.6184  0.6987399999999999  1.0000
  C   C5        1.0  0.96936  0.60685  0.72166  1.0000
  C   C6        1.0  0.026829999999999993  0.60469  0.68263  1.0000
  C   C7        1.0  0.84723  0.63201  0.74244  1.0000
  C   C8        1.0  0.7067600000000002  0.67337  0.93483  1.0000
  C   C9        1.0  0.7568400000000001  0.65165  0.89052  1.0000
  C   C10       1.0  0.75615  0.67019  0.83123  1.0000
  C   C11       1.0  0.70302  0.71188  0.82204  1.0000
  C   C12       1.0  0.65551  0.73147  0.8692  1.0000
  C   C13       1.0  0.8046  0.64851  0.7841  1.0000
  C   C14       1.0  0.09149999999999997  0.64414  0.49863  1.0000
  C   C15       1.0  0.12017999999999998  0.71448  0.49409  1.0000
  C   C16       1.0  0.11492000000000001  0.72921  0.43455  1.0000
  C   C17       1.0  0.07889  0.6734  0.37656999999999996  1.0000
  C   C18       1.0  0.05038000000000001  0.6024  0.38057  1.0000
  C   C19       1.0  0.0574  0.58834  0.44021  1.0000
  C   C20       1.0  0.07112999999999998  0.68768  0.3161  1.0000
  C   C21       1.0  0.97326  0.69793  0.10373  1.0000
  C   C22       1.0  0.9838899999999999  0.68207  0.16149999999999998  1.0000
  C   C23       1.0  0.05068000000000001  0.71329  0.20361999999999997  1.0000
  C   C24       1.0  0.10419999999999997  0.75988  0.18174999999999997  1.0000
  C   C25       1.0  0.08993000000000002  0.77301  0.12314000000000001  1.0000
  C   C26       1.0  0.06226999999999999  0.69962  0.26342  1.0000
  C   C27       1.0  0.16635999999999998  0.7070699999999999  0.6376399999999999  1.0000
  C   C28       1.0  0.24292  0.71505  0.64863  1.0000
  C   C29       1.0  0.28608  0.7811199999999999  0.68987  1.0000
  C   C30       1.0  0.25344  0.84175  0.7214599999999999  1.0000
  C   C31       1.0  0.17646  0.83407  0.71078  1.0000
  C   C32       1.0  0.13427  0.76774  0.6699599999999999  1.0000
  C   C33       1.0  0.29419  0.90949  0.76433  1.0000
  C   C34       1.0  0.33237  0.15701999999999994  0.9220499999999999  1.0000
  C   C35       1.0  0.30480999999999997  0.08927999999999997  0.8748399999999998  1.0000
  C   C36       1.0  0.3525  0.04017000000000004  0.84874  1.0000
  C   C37       1.0  0.42788999999999994  0.06519999999999998  0.87182  1.0000
  C   C38       1.0  0.4509  0.13447999999999993  0.91862  1.0000
  C   C39       1.0  0.32404  0.9699399999999999  0.80297  1.0000
  C   C40       1.0  0.14758  0.53971  0.56178  1.0000
  C   C41       1.0  0.12671  0.48286  0.58916  1.0000
  C   C42       1.0  0.16043  0.42169  0.57564  1.0000
  C   C43       1.0  0.21809  0.41692  0.53507  1.0000
  C   C44       1.0  0.24063999999999997  0.4742199999999999  0.50832  1.0000
  C   C45       1.0  0.20476  0.53373  0.52097  1.0000
  C   C46       1.0  0.25438  0.35614  0.52193  1.0000
  C   C47       1.0  0.43933  0.20659  0.52205  1.0000
  C   C48       1.0  0.40081  0.26394  0.53239  1.0000
  C   C49       1.0  0.32976  0.24912  0.49954  1.0000
  C   C50       1.0  0.30193  0.17682999999999996  0.4565199999999999  1.0000
  C   C51       1.0  0.34523  0.12346999999999997  0.4486  1.0000
  C   C52       1.0  0.28813  0.30562  0.51035  1.0000
  C   C53       1.0  0.91964  0.8569699999999999  0.5000599999999998  1.0000
  C   C54       1.0  0.8954099999999999  0.9016  0.55733  1.0000
  C   C55       1.0  0.90433  0.88955  0.61776  1.0000
  C   C56       1.0  0.94008  0.83248  0.62344  1.0000
  C   C57       1.0  0.9665100000000001  0.7887399999999999  0.5665499999999999  1.0000
  C   C58       1.0  0.95533  0.80027  0.5062  1.0000
  C   C59       1.0  0.94917  0.81984  0.68448  1.0000
  C   C60       1.0  0.9288500000000001  0.79944  0.90606  1.0000
  C   C61       1.0  0.9162700000000001  0.81142  0.84669  1.0000
  C   C62       1.0  0.9675499999999999  0.79898  0.79925  1.0000
  C   C63       1.0  0.03095999999999999  0.7744599999999998  0.81716  1.0000
  C   C64       1.0  0.04021999999999992  0.7642699999999999  0.8776199999999998  1.0000
  C   C65       1.0  0.9569199999999999  0.81017  0.73825  1.0000
  C   C66       1.0  0.84765  0.77956  0.35919  1.0000
  C   C67       1.0  0.77041  0.7651999999999999  0.35078  1.0000
  C   C68       1.0  0.73054  0.69818  0.30884  1.0000
  C   C69       1.0  0.7667999999999999  0.64202  0.2731799999999999  1.0000
  C   C70       1.0  0.84426  0.65538  0.28218  1.0000
  C   C71       1.0  0.88345  0.72301  0.32418  1.0000
  C   C72       1.0  0.72443  0.57578  0.22952999999999998  1.0000
  C   C73       1.0  0.58636  0.34428  0.06655  1.0000
  C   C74       1.0  0.64332  0.39873  0.105  1.0000
  C   C75       1.0  0.62807  0.46279  0.15217  1.0000
  C   C76       1.0  0.55285  0.46603000000000006  0.15721  1.0000
  C   C77       1.0  0.49932  0.40894  0.11734999999999998  1.0000
  C   C78       1.0  0.68229  0.5212  0.1923  1.0000
  C   C79       1.0  0.8539799999999999  0.9474599999999999  0.42499  1.0000
  C   C80       1.0  0.88281  0.009849999999999994  0.40684  1.0000
  C   C81       1.0  0.84552  0.06825  0.41462  1.0000
  C   C82       1.0  0.7777  0.06615  0.44148  1.0000
  C   C83       1.0  0.74833  0.003990000000000001  0.45996  1.0000
  C   C84       1.0  0.78608  0.94616  0.45150999999999997  1.0000
  C   C85       1.0  0.7387  0.12498999999999999  0.45122999999999996  1.0000
  C   C86       1.0  0.55826  0.28195  0.45110999999999996  1.0000
  C   C87       1.0  0.59409  0.22233999999999995  0.43920999999999993  1.0000
  C   C88       1.0  0.66301  0.23219999999999996  0.47435999999999995  1.0000
  C   C89       1.0  0.69089  0.30202  0.52176  1.0000
  C   C90       1.0  0.64997  0.35762  0.53134  1.0000
  C   C91       1.0  0.70305  0.1741  0.46215  1.0000
  C   C92       1.0  0.99231  0.88613  0.38192  1.0000
  C   C93       1.0  0.99146  0.8894799999999999  0.31702  1.0000
  C   C94       1.0  0.056060000000000026  0.9049299999999999  0.28975  1.0000
  C   C95       1.0  0.12454  0.91664  0.3267  1.0000
  C   C96       1.0  0.12597  0.91119  0.39094  1.0000
  C   C97       1.0  0.06066  0.89684  0.41797  1.0000
  C   C98       1.0  0.19023999999999996  0.9356599999999999  0.30006  1.0000
  C   C99       1.0  0.44109999999999994  0.018279999999999998  0.25652  1.0000
  C   C100      1.0  0.38034  0.9958300000000001  0.28613  1.0000
  C   C101      1.0  0.31056  0.97676  0.24997  1.0000
  C   C102      1.0  0.30661  0.98152  0.18537  1.0000
  C   C103      1.0  0.37105  0.0034600000000000104  0.16034  1.0000
  C   C104      1.0  0.24638  0.9541900000000001  0.27707  1.0000
  C   C105      1.0  0.61042  0.10067  0.57373  1.0000
  C   C106      1.0  0.67065  0.16006  0.62  1.0000
  C   C107      1.0  0.56629  0.98859  0.3922  1.0000
  C   C108      1.0  0.6057500000000001  0.97889  0.33033  1.0000
  C   C109      1.0  0.60566  0.59231  0.58566  1.0000
  C   C110      1.0  0.66714  0.64635  0.6349199999999999  1.0000
  C   C111      1.0  0.42576999999999987  0.48616  0.59686  1.0000
  C   C112      1.0  0.38242  0.4772  0.6532  1.0000
  C   C113      1.0  0.98136  0.38927  0.3814  1.0000
  C   C114      1.0  0.051149999999999994  0.38391999999999993  0.40576999999999996  1.0000
  C   C115      1.0  0.1088  0.37924  0.36648  1.0000
  C   C116      1.0  0.09883000000000003  0.38159000000000004  0.30126  1.0000
  C   C117      1.0  0.03065  0.39314  0.27834  1.0000
  C   C118      1.0  0.97317  0.3953  0.31736999999999993  1.0000
  C   C119      1.0  0.15278  0.36798  0.25756  1.0000
  C   C120      1.0  0.29324  0.32662  0.06517  1.0000
  C   C121      1.0  0.24317  0.34834  0.10948  1.0000
  C   C122      1.0  0.24386000000000002  0.32981000000000005  0.16876  1.0000
  C   C123      1.0  0.29699  0.28811000000000003  0.17796  1.0000
  C   C124      1.0  0.3445  0.26852  0.1308  1.0000
  C   C125      1.0  0.19541  0.35148  0.21589999999999998  1.0000
  C   C126      1.0  0.90851  0.35585  0.50138  1.0000
  C   C127      1.0  0.8798300000000001  0.2855  0.50591  1.0000
  C   C128      1.0  0.8850799999999999  0.27077999999999997  0.5654599999999999  1.0000
  C   C129      1.0  0.9211199999999999  0.32658999999999994  0.6234299999999999  1.0000
  C   C130      1.0  0.9496299999999999  0.3976  0.61944  1.0000
  C   C131      1.0  0.9426099999999998  0.41166  0.55979  1.0000
  C   C132      1.0  0.92888  0.31231  0.6839  1.0000
  C   C133      1.0  0.026749999999999993  0.30206  0.89627  1.0000
  C   C134      1.0  0.016119999999999985  0.31793  0.8385  1.0000
  C   C135      1.0  0.94932  0.28669999999999995  0.7963899999999999  1.0000
  C   C136      1.0  0.8958000000000002  0.24010999999999993  0.8182499999999999  1.0000
  C   C137      1.0  0.9100599999999999  0.22696999999999998  0.87686  1.0000
  C   C138      1.0  0.93773  0.30037  0.73658  1.0000
  C   C139      1.0  0.8336399999999999  0.29292  0.36236  1.0000
  C   C140      1.0  0.75709  0.28494  0.35138  1.0000
  C   C141      1.0  0.71392  0.21886999999999998  0.31014  1.0000
  C   C142      1.0  0.74656  0.15824  0.27855  1.0000
  C   C143      1.0  0.82354  0.16592  0.28922  1.0000
  C   C144      1.0  0.86573  0.23224  0.33003  1.0000
  C   C145      1.0  0.7058100000000002  0.0905  0.23568  1.0000
  C   C146      1.0  0.66764  0.8429699999999999  0.07795  1.0000
  C   C147      1.0  0.69519  0.9107099999999999  0.12516  1.0000
  C   C148      1.0  0.64749  0.9598200000000001  0.15126  1.0000
  C   C149      1.0  0.57211  0.9347900000000001  0.12818  1.0000
  C   C150      1.0  0.54911  0.86551  0.08138  1.0000
  C   C151      1.0  0.67595  0.030049999999999997  0.19704  1.0000
  C   C152      1.0  0.85243  0.46028  0.43822  1.0000
  C   C153      1.0  0.87331  0.51712  0.4108399999999999  1.0000
  C   C154      1.0  0.83959  0.5783  0.42436  1.0000
  C   C155      1.0  0.78193  0.58306  0.46492  1.0000
  C   C156      1.0  0.7593799999999999  0.52576  0.49167999999999995  1.0000
  C   C157      1.0  0.79525  0.46625  0.47903  1.0000
  C   C158      1.0  0.74563  0.64385  0.47807  1.0000
  C   C159      1.0  0.56069  0.79342  0.47795999999999994  1.0000
  C   C160      1.0  0.59921  0.73606  0.46761  1.0000
  C   C161      1.0  0.67025  0.75087  0.50046  1.0000
  C   C162      1.0  0.69809  0.82316  0.54348  1.0000
  C   C163      1.0  0.65479  0.87652  0.55142  1.0000
  C   C164      1.0  0.71189  0.69436  0.48964  1.0000
  C   C165      1.0  0.08036  0.14303  0.49993  1.0000
  C   C166      1.0  0.1046  0.09839  0.44266999999999995  1.0000
  C   C167      1.0  0.09568  0.11045  0.38225  1.0000
  C   C168      1.0  0.05992999999999998  0.16751999999999997  0.37656  1.0000
  C   C169      1.0  0.03349  0.21125  0.43345000000000006  1.0000
  C   C170      1.0  0.044669999999999994  0.19973  0.49379999999999996  1.0000
  C   C171      1.0  0.05082999999999999  0.18014999999999998  0.31551999999999997  1.0000
  C   C172      1.0  0.07116  0.20055  0.09394  1.0000
  C   C173      1.0  0.08374  0.18858  0.15331  1.0000
  C   C174      1.0  0.032449999999999986  0.20101999999999995  0.20075  1.0000
  C   C175      1.0  0.96905  0.22553  0.18284  1.0000
  C   C176      1.0  0.9597800000000001  0.23572  0.12239  1.0000
  C   C177      1.0  0.04309  0.18982  0.26174  1.0000
  C   C178      1.0  0.15236  0.22042999999999996  0.64082  1.0000
  C   C179      1.0  0.2296  0.23478999999999997  0.64922  1.0000
  C   C180      1.0  0.26947  0.30181  0.69116  1.0000
  C   C181      1.0  0.2332  0.35797  0.72681  1.0000
  C   C182      1.0  0.15574  0.34461  0.71782  1.0000
  C   C183      1.0  0.11655  0.27699  0.67582  1.0000
  C   C184      1.0  0.27558  0.42421999999999993  0.77047  1.0000
  C   C185      1.0  0.41365  0.65571  0.9334499999999999  1.0000
  C   C186      1.0  0.35668  0.60126  0.8949999999999999  1.0000
  C   C187      1.0  0.37194  0.53721  0.84783  1.0000
  C   C188      1.0  0.44716  0.53396  0.84279  1.0000
  C   C189      1.0  0.50069  0.59105  0.88265  1.0000
  C   C190      1.0  0.3176999999999999  0.4787899999999999  0.8076999999999999  1.0000
  C   C191      1.0  0.14603  0.05252999999999999  0.57501  1.0000
  C   C192      1.0  0.11719999999999997  0.9901399999999999  0.59316  1.0000
  C   C193      1.0  0.15448  0.93174  0.58538  1.0000
  C   C194      1.0  0.22229999999999997  0.93385  0.55853  1.0000
  C   C195      1.0  0.25167  0.996  0.54004  1.0000
  C   C196      1.0  0.21394  0.05383  0.5485  1.0000
  C   C197      1.0  0.2613  0.87501  0.54878  1.0000
  C   C198      1.0  0.44175000000000003  0.71805  0.54888  1.0000
  C   C199      1.0  0.40591  0.77766  0.56079  1.0000
  C   C200      1.0  0.337  0.7678  0.52564  1.0000
  C   C201      1.0  0.30911999999999995  0.6979799999999999  0.47823999999999994  1.0000
  C   C202      1.0  0.35005000000000003  0.64239  0.46865  1.0000
  C   C203      1.0  0.29695  0.8259  0.53786  1.0000
  C   C204      1.0  0.00769  0.11386  0.61808  1.0000
  C   C205      1.0  0.008550000000000004  0.11052  0.68298  1.0000
  C   C206      1.0  0.94395  0.09506999999999999  0.71025  1.0000
  C   C207      1.0  0.87547  0.08336  0.6733  1.0000
  C   C208      1.0  0.87403  0.0888  0.60907  1.0000
  C   C209      1.0  0.93934  0.10316000000000002  0.58203  1.0000
  C   C210      1.0  0.80975  0.06434  0.69994  1.0000
  C   C211      1.0  0.5589  0.9817  0.74348  1.0000
  C   C212      1.0  0.61966  0.004149999999999982  0.71387  1.0000
  C   C213      1.0  0.68944  0.023229999999999983  0.75004  1.0000
  C   C214      1.0  0.6933999999999999  0.018479999999999955  0.81464  1.0000
  C   C215      1.0  0.62895  0.9965399999999999  0.8396799999999999  1.0000
  C   C216      1.0  0.75363  0.04580999999999999  0.72293  1.0000
  C   C217      1.0  0.38955  0.8993299999999999  0.42629  1.0000
  C   C218      1.0  0.32933  0.83994  0.38001  1.0000
  C   C219      1.0  0.4337  0.011409999999999969  0.60786  1.0000
  C   C220      1.0  0.39424  0.02107000000000001  0.66972  1.0000
  C   C221      1.0  0.39437999999999995  0.40774  0.41434  1.0000
  C   C222      1.0  0.33291  0.35365  0.3651  1.0000
  C   C223      1.0  0.57423  0.51387  0.40316  1.0000
  C   C224      1.0  0.61755  0.52286  0.34683  1.0000
  N   N1        1.0  0.65557  0.71283  0.92556  1.0000
  N   N2        1.0  0.025030000000000007  0.74314  0.08306  1.0000
  N   N3        1.0  0.40475  0.18085  0.94518  1.0000
  N   N4        1.0  0.41289  0.13733  0.48071  1.0000
  N   N5        1.0  0.99035  0.77615  0.92311  1.0000
  N   N6        1.0  0.51416  0.3477  0.07147  1.0000
  N   N7        1.0  0.58495  0.34883999999999993  0.49644999999999995  1.0000
  N   N8        1.0  0.43809  0.02175  0.19446  1.0000
  N   N9        1.0  0.34443  0.28716  0.07443  1.0000
  N   N10       1.0  0.97497  0.25685  0.91693  1.0000
  N   N11       1.0  0.59526  0.81914  0.05482  1.0000
  N   N12       1.0  0.58713  0.86266  0.51931  1.0000
  N   N13       1.0  0.00966000000000001  0.22384  0.0769  1.0000
  N   N14       1.0  0.48584  0.6522899999999999  0.9285199999999999  1.0000
  N   N15       1.0  0.41506  0.65117  0.50354  1.0000
  N   N16       1.0  0.56192  0.9782299999999999  0.80554  1.0000
  O   O1        1.0  0.56064  0.122  0.54598  1.0000
  O   O2        1.0  0.61459  0.03388000000000002  0.56806  1.0000
  O   O3        1.0  0.52408  0.03553999999999998  0.40327999999999997  1.0000
  O   O4        1.0  0.57822  0.94816  0.42688999999999994  1.0000
  O   O5        1.0  0.61054  0.52414  0.56849  1.0000
  O   O6        1.0  0.55625  0.62055  0.56529  1.0000
  O   O7        1.0  0.46931  0.44135  0.57779  1.0000
  O   O8        1.0  0.41501  0.53776  0.57463  1.0000
  O   O9        1.0  0.43932  0.8779799999999999  0.45402999999999993  1.0000
  O   O10       1.0  0.38538999999999995  0.9661299999999999  0.43196  1.0000
  O   O11       1.0  0.47589  0.9644300000000001  0.59673  1.0000
  O   O12       1.0  0.42179  0.05188999999999998  0.57321  1.0000
  O   O13       1.0  0.38944  0.47589  0.43153  1.0000
  O   O14       1.0  0.44384000000000007  0.37956  0.43470999999999993  1.0000
  O   O15       1.0  0.53067  0.55867  0.42222  1.0000
  O   O16       1.0  0.58499  0.46225999999999995  0.42535999999999996  1.0000
