data_image0
_chemical_formula_structural       Cd16H200C232N72O32
_chemical_formula_sum              "Cd16 H200 C232 N72 O32"
_cell_length_a       12.08632
_cell_length_b       13.74255
_cell_length_c       37.14135
_cell_angle_alpha    94.7629
_cell_angle_beta     90.01212
_cell_angle_gamma    89.95784

_symmetry_space_group_name_H-M    'P 1'
_symmetry_Int_Tables_number       1

loop_
  _symmetry_equiv_pos_as_xyz
  'x,y,z'

loop_
  _atom_site_type_symbol
  _atom_site_label
  _atom_site_symmetry_multiplicity
  _atom_site_fract_x
  _atom_site_fract_y
  _atom_site_fract_z
  _atom_site_occupancy
  Cd  Cd1       1.0  0.66792  0.9494899999999997  0.33865  1.0000
  Cd  Cd2       1.0  0.39906  0.33961999999999987  0.42179999999999995  1.0000
  Cd  Cd3       1.0  0.08003  0.8711699999999998  0.63555  1.0000
  Cd  Cd4       1.0  0.57978  0.12798999999999994  0.86428  1.0000
  Cd  Cd5       1.0  0.32761  0.51698  0.9363699999999999  1.0000
  Cd  Cd6       1.0  0.89929  0.6596299999999999  0.07788  1.0000
  Cd  Cd7       1.0  0.10072999999999999  0.3403499999999998  0.9221099999999999  1.0000
  Cd  Cd8       1.0  0.17341000000000004  0.51744  0.43633  1.0000
  Cd  Cd9       1.0  0.91998  0.12880999999999995  0.36444  1.0000
  Cd  Cd10      1.0  0.42023999999999995  0.8720199999999998  0.13570999999999994  1.0000
  Cd  Cd11      1.0  0.60093  0.66037  0.5782  1.0000
  Cd  Cd12      1.0  0.33204999999999996  0.05047999999999999  0.6613499999999999  1.0000
  Cd  Cd13      1.0  0.6724099999999998  0.4830199999999999  0.06363  1.0000
  Cd  Cd14      1.0  0.83454  0.9498199999999998  0.839  1.0000
  Cd  Cd15      1.0  0.16545999999999994  0.050169999999999985  0.16099  1.0000
  Cd  Cd16      1.0  0.82652  0.4824999999999999  0.56369  1.0000
  H   H1        1.0  0.86318  0.6724699999999998  0.86418  1.0000
  H   H2        1.0  0.03388  0.11351999999999997  0.51373  1.0000
  H   H3        1.0  0.94527  0.70413  0.16359  1.0000
  H   H4        1.0  0.16364  0.7968199999999998  0.8168499999999999  1.0000
  H   H5        1.0  0.8078300000000002  0.11396999999999992  0.9839199999999999  1.0000
  H   H6        1.0  0.39511  0.45202  0.19051  1.0000
  H   H7        1.0  0.99493  0.7734099999999998  0.37359  1.0000
  H   H8        1.0  0.005089999999999999  0.22657999999999995  0.62641  1.0000
  H   H9        1.0  0.8151100000000001  0.6491099999999997  0.48028  1.0000
  H   H10       1.0  0.30781  0.8875399999999998  0.5164499999999999  1.0000
  H   H11       1.0  0.14174  0.57593  0.09162999999999999  1.0000
  H   H12       1.0  0.2868  0.7177999999999998  0.6305699999999999  1.0000
  H   H13       1.0  0.24178  0.35646  0.58256  1.0000
  H   H14       1.0  0.4443099999999999  0.29328999999999994  0.33588999999999997  1.0000
  H   H15       1.0  0.80795  0.3062199999999999  0.2127  1.0000
  H   H16       1.0  0.6902900000000001  0.3002499999999999  0.7114599999999998  1.0000
  H   H17       1.0  0.53236  0.88491  0.98651  1.0000
  H   H18       1.0  0.76965  0.80255  0.37255999999999995  1.0000
  H   H19       1.0  0.3141  0.35097  0.019239999999999993  1.0000
  H   H20       1.0  0.0017800000000000005  0.6694299999999997  0.7814299999999998  1.0000
  H   H21       1.0  0.19216999999999998  0.88602  0.01608  1.0000
  H   H22       1.0  0.33709  0.53477  0.28450999999999993  1.0000
  H   H23       1.0  0.25246  0.47729999999999984  0.8159099999999998  1.0000
  H   H24       1.0  0.63753  0.9808  0.52304  1.0000
  H   H25       1.0  0.73651  0.8025899999999998  0.87394  1.0000
  H   H26       1.0  0.8901  0.22992  0.5972399999999999  1.0000
  H   H27       1.0  0.9408099999999999  0.11589999999999998  0.60872  1.0000
  H   H28       1.0  0.63953  0.4242699999999998  0.40841  1.0000
  H   H29       1.0  0.45663  0.4982699999999997  0.7122899999999998  1.0000
  H   H30       1.0  0.13666  0.020999999999999946  0.9775599999999998  1.0000
  H   H31       1.0  0.38277  0.43153  0.30631  1.0000
  H   H32       1.0  0.63876  0.66926  0.36469  1.0000
  H   H33       1.0  0.03257  0.5125299999999999  0.35646  1.0000
  H   H34       1.0  0.34376  0.7987099999999999  0.31950999999999996  1.0000
  H   H35       1.0  0.2575  0.3578099999999999  0.08224999999999998  1.0000
  H   H36       1.0  0.30544  0.04551999999999998  0.8584  1.0000
  H   H37       1.0  0.37222  0.65032  0.00909  1.0000
  H   H38       1.0  0.22234  0.6493599999999999  0.34384  1.0000
  H   H39       1.0  0.72436  0.41311999999999993  0.7808899999999998  1.0000
  H   H40       1.0  0.60874  0.23163999999999996  0.09739999999999997  1.0000
  H   H41       1.0  0.83669  0.20312  0.18307999999999996  1.0000
  H   H42       1.0  0.91195  0.18752999999999997  0.7155  1.0000
  H   H43       1.0  0.10574  0.45153  0.69067  1.0000
  H   H44       1.0  0.83568  0.4683199999999999  0.21505999999999995  1.0000
  H   H45       1.0  0.64978  0.9118099999999998  0.25992  1.0000
  H   H46       1.0  0.9497399999999999  0.83069  0.70764  1.0000
  H   H47       1.0  0.50947  0.6995699999999998  0.3847799999999999  1.0000
  H   H48       1.0  0.06703  0.78887  0.55146  1.0000
  H   H49       1.0  0.9137899999999999  0.46722999999999987  0.82984  1.0000
  H   H50       1.0  0.75208  0.5204999999999999  0.6851399999999997  1.0000
  H   H51       1.0  0.99833  0.3305599999999999  0.21853999999999998  1.0000
  H   H52       1.0  0.7303100000000001  0.8240899999999999  0.53496  1.0000
  H   H53       1.0  0.36248  0.019189999999999995  0.47695999999999994  1.0000
  H   H54       1.0  0.9497500000000001  0.058119999999999984  0.54516  1.0000
  H   H55       1.0  0.55571  0.7066999999999998  0.6641099999999998  1.0000
  H   H56       1.0  0.18224999999999997  0.79985  0.9537999999999999  1.0000
  H   H57       1.0  0.44018  0.9771299999999999  0.32716  1.0000
  H   H58       1.0  0.31376  0.19600999999999993  0.58859  1.0000
  H   H59       1.0  0.5064  0.7732299999999998  0.8735899999999999  1.0000
  H   H60       1.0  0.90555  0.74148  0.49842999999999993  1.0000
  H   H61       1.0  0.05508  0.6560099999999999  0.94221  1.0000
  H   H62       1.0  0.46766  0.11507999999999997  0.01349  1.0000
  H   H63       1.0  0.7582299999999998  0.6435299999999998  0.41744  1.0000
  H   H64       1.0  0.46665  0.51189  0.85656  1.0000
  H   H65       1.0  0.69221  0.11244999999999995  0.48354999999999987  1.0000
  H   H66       1.0  0.19209  0.6935599999999998  0.7873  1.0000
  H   H67       1.0  0.41147  0.81205  0.7847699999999997  1.0000
  H   H68       1.0  0.44906  0.16884  0.79259  1.0000
  H   H69       1.0  0.7776399999999999  0.3506399999999999  0.6561699999999999  1.0000
  H   H70       1.0  0.68839  0.9041000000000001  0.94698  1.0000
  H   H71       1.0  0.64467  0.71509  0.72483  1.0000
  H   H72       1.0  0.36123  0.3307299999999999  0.63531  1.0000
  H   H73       1.0  0.34251  0.43893  0.68998  1.0000
  H   H74       1.0  0.40898  0.8263899999999998  0.96998  1.0000
  H   H75       1.0  0.9661399999999999  0.88648  0.48625999999999997  1.0000
  H   H76       1.0  0.15551  0.43664999999999987  0.19039  1.0000
  H   H77       1.0  0.49053  0.30042999999999986  0.6152199999999999  1.0000
  H   H78       1.0  0.93299  0.21112999999999996  0.44854  1.0000
  H   H79       1.0  0.35535  0.2848999999999999  0.27517  1.0000
  H   H80       1.0  0.9588699999999999  0.50395  0.7873999999999999  1.0000
  H   H81       1.0  0.28008  0.64907  0.8437699999999998  1.0000
  H   H82       1.0  0.05474  0.29586999999999997  0.8364099999999999  1.0000
  H   H83       1.0  0.64223  0.016699999999999986  0.73382  1.0000
  H   H84       1.0  0.06709  0.4173599999999999  0.11302999999999999  1.0000
  H   H85       1.0  0.24792  0.4794799999999999  0.31486  1.0000
  H   H86       1.0  0.22502000000000003  0.5863999999999999  0.71921  1.0000
  H   H87       1.0  0.08807  0.81245  0.2845  1.0000
  H   H88       1.0  0.18490999999999996  0.3508899999999999  0.5197199999999997  1.0000
  H   H89       1.0  0.86983  0.3487699999999999  0.49088  1.0000
  H   H90       1.0  0.44082  0.8831799999999997  0.89156  1.0000
  H   H91       1.0  0.89428  0.54846  0.30933  1.0000
  H   H92       1.0  0.56471  0.2117199999999999  0.9486599999999998  1.0000
  H   H93       1.0  0.10991  0.7700699999999998  0.4027599999999999  1.0000
  H   H94       1.0  0.14346  0.9867399999999994  0.76638  1.0000
  H   H95       1.0  0.30967  0.69971  0.28853  1.0000
  H   H96       1.0  0.86111  0.6600199999999998  0.3847799999999999  1.0000
  H   H97       1.0  0.55095  0.83115  0.2074  1.0000
  H   H98       1.0  0.31661  0.80105  0.45419999999999994  1.0000
  H   H99       1.0  0.68341  0.19893999999999995  0.5458  1.0000
  H   H100      1.0  0.14523  0.2883199999999999  0.7758999999999999  1.0000
  H   H101      1.0  0.80737  0.9535899999999996  0.64188  1.0000
  H   H102      1.0  0.2893  0.8948999999999999  0.37451999999999996  1.0000
  H   H103      1.0  0.48686999999999997  0.09413  0.16467999999999997  1.0000
  H   H104      1.0  0.17282  0.70571  0.8699099999999999  1.0000
  H   H105      1.0  0.09012  0.8276399999999998  0.47032999999999997  1.0000
  H   H106      1.0  0.82724  0.29426  0.13007  1.0000
  H   H107      1.0  0.13691  0.3275599999999999  0.13579  1.0000
  H   H108      1.0  0.66292  0.46521999999999986  0.7154899999999997  1.0000
  H   H109      1.0  0.85478  0.71169  0.22409999999999997  1.0000
  H   H110      1.0  0.50284  0.33402999999999994  0.71857  1.0000
  H   H111      1.0  0.9394599999999999  0.02027999999999999  0.17283  1.0000
  H   H112      1.0  0.40505  0.25871  0.0013  1.0000
  H   H113      1.0  0.65748  0.5610799999999998  0.31001999999999996  1.0000
  H   H114      1.0  0.94494  0.3439699999999999  0.05779  1.0000
  H   H115      1.0  0.3592699999999999  0.33917  0.11511  1.0000
  H   H116      1.0  0.54338  0.50172  0.28770999999999997  1.0000
  H   H117      1.0  0.55919  0.11681  0.10843  1.0000
  H   H118      1.0  0.99226  0.7008  0.88469  1.0000
  H   H119      1.0  0.85657  0.013279999999999995  0.23360999999999998  1.0000
  H   H120      1.0  0.04116  0.4960199999999999  0.21258999999999997  1.0000
  H   H121      1.0  0.58797  0.4652499999999999  0.33027  1.0000
  H   H122      1.0  0.58855  0.18793999999999994  0.21522999999999995  1.0000
  H   H123      1.0  0.775  0.4135899999999999  0.28078  1.0000
  H   H124      1.0  0.21934  0.22685999999999998  0.52335  1.0000
  H   H125      1.0  0.85827  0.42405999999999994  0.90837  1.0000
  H   H126      1.0  0.55648  0.34323  0.5575099999999998  1.0000
  H   H127      1.0  0.53338  0.4880899999999999  0.14344  1.0000
  H   H128      1.0  0.86335  0.97899  0.022439999999999995  1.0000
  H   H129      1.0  0.28037  0.22693999999999995  0.0231  1.0000
  H   H130      1.0  0.19007  0.09742999999999995  0.5533799999999999  1.0000
  H   H131      1.0  0.08627  0.5327899999999999  0.17016  1.0000
  H   H132      1.0  0.7425199999999998  0.6421899999999999  0.9177499999999998  1.0000
  H   H133      1.0  0.98647  0.9063199999999998  0.33509  1.0000
  H   H134      1.0  0.2697  0.17589999999999992  0.46502999999999994  1.0000
  H   H135      1.0  0.59495  0.7412799999999998  0.99869  1.0000
  H   H136      1.0  0.88297  0.56929  0.19230999999999995  1.0000
  H   H137      1.0  0.6859000000000001  0.6490199999999998  0.98075  1.0000
  H   H138      1.0  0.09447  0.2585099999999999  0.5015699999999998  1.0000
  H   H139      1.0  0.81485  0.8033499999999998  0.91388  1.0000
  H   H140      1.0  0.49716  0.66595  0.28143  1.0000
  H   H141      1.0  0.050280000000000005  0.1693  0.29236  1.0000
  H   H142      1.0  0.0606  0.9797199999999999  0.82717  1.0000
  H   H143      1.0  0.7107300000000001  0.10508999999999998  0.62548  1.0000
  H   H144      1.0  0.27566  0.5868499999999998  0.21911  1.0000
  H   H145      1.0  0.7847200000000001  0.28178999999999993  0.86951  1.0000
  H   H146      1.0  0.61724  0.5684699999999998  0.69369  1.0000
  H   H147      1.0  0.05921  0.88409  0.39128  1.0000
  H   H148      1.0  0.19265  0.04639999999999997  0.3581199999999999  1.0000
  H   H149      1.0  0.20694999999999997  0.8952499999999998  0.87509  1.0000
  H   H150      1.0  0.64077  0.66084  0.8848799999999999  1.0000
  H   H151      1.0  0.60492  0.5479599999999998  0.80949  1.0000
  H   H152      1.0  0.44936  0.9406999999999999  0.95478  1.0000
  H   H153      1.0  0.6862499999999999  0.80399  0.41141  1.0000
  H   H154      1.0  0.26356  0.19741  0.12606  1.0000
  H   H155      1.0  0.16435  0.53159  0.78494  1.0000
  H   H156      1.0  0.76964  0.82315  0.03476  1.0000
  H   H157      1.0  0.55067  0.05930999999999999  0.04522  1.0000
  H   H158      1.0  0.96745  0.4874599999999999  0.64354  1.0000
  H   H159      1.0  0.49362000000000006  0.22676  0.12641  1.0000
  H   H160      1.0  0.79305  0.10474  0.12491  1.0000
  H   H161      1.0  0.2153  0.7181999999999997  0.13049  1.0000
  H   H162      1.0  0.65622  0.20125999999999994  0.68048  1.0000
  H   H163      1.0  0.36048  0.5757199999999998  0.5915899999999997  1.0000
  H   H164      1.0  0.81777  0.20014  0.0462  1.0000
  H   H165      1.0  0.71322  0.2822  0.36942999999999987  1.0000
  H   H166      1.0  0.71998  0.35082  0.15623999999999996  1.0000
  H   H167      1.0  0.9098900000000001  0.17236  0.52967  1.0000
  H   H168      1.0  0.32897  0.7030499999999997  0.371  1.0000
  H   H169      1.0  0.5668  0.58065  0.38741  1.0000
  H   H170      1.0  0.7806699999999999  0.7731399999999998  0.47664999999999996  1.0000
  H   H171      1.0  0.71965  0.7730499999999999  0.9769099999999997  1.0000
  H   H172      1.0  0.31163  0.09592999999999999  0.05302  1.0000
  H   H173      1.0  0.69457  0.95447  0.1416  1.0000
  H   H174      1.0  0.23037  0.17684  0.96524  1.0000
  H   H175      1.0  0.4332  0.41933999999999994  0.6125899999999997  1.0000
  H   H176      1.0  0.35024  0.08818999999999994  0.7400799999999997  1.0000
  H   H177      1.0  0.85072  0.9115899999999998  0.76016  1.0000
  H   H178      1.0  0.43531  0.78826  0.05133999999999998  1.0000
  H   H179      1.0  0.51315  0.90585  0.8353199999999997  1.0000
  H   H180      1.0  0.55983  0.022869999999999974  0.67284  1.0000
  H   H181      1.0  0.050269999999999995  0.94187  0.45483999999999997  1.0000
  H   H182      1.0  0.59105  0.1736  0.030009999999999995  1.0000
  H   H183      1.0  0.23036  0.19743999999999995  0.6274399999999998  1.0000
  H   H184      1.0  0.18519  0.19666  0.08611999999999999  1.0000
  H   H185      1.0  0.93295  0.5826499999999998  0.88695  1.0000
  H   H186      1.0  0.1389  0.3399699999999999  0.6152199999999999  1.0000
  H   H187      1.0  0.13019  0.6512199999999998  0.50911  1.0000
  H   H188      1.0  0.01355  0.09367999999999999  0.6649099999999999  1.0000
  H   H189      1.0  0.84456  0.56336  0.80961  1.0000
  H   H190      1.0  0.41203000000000006  0.5347399999999998  0.6697299999999999  1.0000
  H   H191      1.0  0.7475699999999998  0.5226099999999998  0.18408  1.0000
  H   H192      1.0  0.14931  0.08839  0.23983  1.0000
  H   H193      1.0  0.11706  0.4306499999999999  0.80769  1.0000
  H   H194      1.0  0.44353  0.65676  0.4424899999999999  1.0000
  H   H195      1.0  0.00781  0.2992199999999999  0.11527999999999998  1.0000
  H   H196      1.0  0.80994  0.90257  0.44662  1.0000
  H   H197      1.0  0.3913  0.7683599999999999  0.9026  1.0000
  H   H198      1.0  0.35779  0.9832899999999998  0.26618  1.0000
  H   H199      1.0  0.6710299999999999  0.29696  0.6289899999999999  1.0000
  H   H200      1.0  0.62779  0.3496699999999998  0.9909099999999998  1.0000
  C   C1        1.0  0.99921  0.63986  0.43754  1.0000
  C   C2        1.0  0.42383  0.4717699999999999  0.68571  1.0000
  C   C3        1.0  0.62213  0.9491199999999997  0.7177  1.0000
  C   C4        1.0  0.55928  0.9102999999999998  0.21042999999999995  1.0000
  C   C5        1.0  0.77687  0.8768399999999997  0.58953  1.0000
  C   C6        1.0  0.40528999999999993  0.52656  0.18313  1.0000
  C   C7        1.0  0.43188  0.79433  0.53721  1.0000
  C   C8        1.0  0.0013600000000000005  0.6067399999999997  0.8338499999999998  1.0000
  C   C9        1.0  0.62958  0.9598599999999999  0.8997899999999999  1.0000
  C   C10       1.0  0.14832  0.6948699999999998  0.68827  1.0000
  C   C11       1.0  0.6656  0.50101  0.69016  1.0000
  C   C12       1.0  0.63694  0.17396999999999996  0.48986  1.0000
  C   C13       1.0  0.93155  0.20709999999999992  0.9629999999999997  1.0000
  C   C14       1.0  0.17535  0.02871999999999997  0.9514  1.0000
  C   C15       1.0  0.61362  0.95637  0.24006  1.0000
  C   C16       1.0  0.95149  0.7827999999999998  0.81995  1.0000
  C   C17       1.0  0.81314  0.11143000000000002  0.77128  1.0000
  C   C18       1.0  0.64573  0.2801799999999999  0.68622  1.0000
  C   C19       1.0  0.87075  0.9619699999999999  0.40047  1.0000
  C   C20       1.0  0.16208  0.60048  0.69937  1.0000
  C   C21       1.0  0.58703  0.5910799999999998  0.49423999999999996  1.0000
  C   C22       1.0  0.57414  0.9527399999999998  0.68376  1.0000
  C   C23       1.0  0.4263199999999999  0.22276999999999994  0.32149  1.0000
  C   C24       1.0  0.5545  0.77934  0.31875  1.0000
  C   C25       1.0  0.16813  0.6624699999999998  0.5356499999999998  1.0000
  C   C26       1.0  0.95351  0.8623399999999998  0.1634  1.0000
  C   C27       1.0  0.36713  0.7760999999999998  0.47586  1.0000
  C   C28       1.0  0.19884000000000002  0.5231299999999998  0.02331  1.0000
  C   C29       1.0  0.93775  0.16180999999999993  0.9261399999999999  1.0000
  C   C30       1.0  0.30266  0.52299  0.52323  1.0000
  C   C31       1.0  0.22793  0.042419999999999965  0.3848699999999999  1.0000
  C   C32       1.0  0.46642999999999996  0.8096999999999998  0.8975599999999999  1.0000
  C   C33       1.0  0.57369  0.77723  0.67851  1.0000
  C   C34       1.0  0.12532  0.9420499999999999  0.25763  1.0000
  C   C35       1.0  0.52548  0.05730999999999997  0.18618999999999997  1.0000
  C   C36       1.0  0.21547999999999998  0.95864  0.89459  1.0000
  C   C37       1.0  0.56071  0.30280999999999997  0.5311199999999998  1.0000
  C   C38       1.0  0.24853999999999998  0.69976  0.10356999999999997  1.0000
  C   C39       1.0  0.26925  0.20522999999999988  0.09699  1.0000
  C   C40       1.0  0.31302  0.8881899999999999  0.7288699999999999  1.0000
  C   C41       1.0  0.65113  0.7206299999999999  0.97625  1.0000
  C   C42       1.0  0.58044  0.10902999999999997  0.21439  1.0000
  C   C43       1.0  0.37687  0.21791  0.28737  1.0000
  C   C44       1.0  0.6882  0.3369699999999999  0.65517  1.0000
  C   C45       1.0  0.62568  0.05831999999999998  0.24215999999999996  1.0000
  C   C46       1.0  0.09221  0.2836799999999999  0.5609599999999998  1.0000
  C   C47       1.0  0.50838  0.13278999999999994  0.37131  1.0000
  C   C48       1.0  0.4454099999999999  0.22067  0.68125  1.0000
  C   C49       1.0  0.37082999999999994  0.7389599999999998  0.05931  1.0000
  C   C50       1.0  0.47851999999999995  0.69228  0.3094599999999999  1.0000
  C   C51       1.0  0.05872  0.09013999999999998  0.28935  1.0000
  C   C52       1.0  0.48018  0.87023  0.9625099999999999  1.0000
  C   C53       1.0  0.50271  0.6380699999999998  0.93767  1.0000
  C   C54       1.0  0.67655  0.97249  0.5490999999999999  1.0000
  C   C55       1.0  0.09552  0.52602  0.68322  1.0000
  C   C56       1.0  0.22731  0.11582999999999997  0.94463  1.0000
  C   C57       1.0  0.98308  0.45441  0.34294  1.0000
  C   C58       1.0  0.7505900000000001  0.39850999999999986  0.9532999999999999  1.0000
  C   C59       1.0  0.68699  0.11179999999999997  0.27113  1.0000
  C   C60       1.0  0.55621  0.64072  0.36996  1.0000
  C   C61       1.0  0.66138  0.3989699999999999  0.8006999999999997  1.0000
  C   C62       1.0  0.22314  0.12313999999999996  0.4104699999999999  1.0000
  C   C63       1.0  0.8517  0.3051199999999999  0.31173  1.0000
  C   C64       1.0  0.8505999999999999  0.28191  0.18748  1.0000
  C   C65       1.0  0.29483  0.62102  0.58186  1.0000
  C   C66       1.0  0.005879999999999999  0.33126  0.00301  1.0000
  C   C67       1.0  0.48392  0.54619  0.15701  1.0000
  C   C68       1.0  0.9987199999999999  0.39324  0.16613  1.0000
  C   C69       1.0  0.14952  0.71803  0.8124999999999999  1.0000
  C   C70       1.0  0.00651  0.64217  0.64807  1.0000
  C   C71       1.0  0.99082  0.13481999999999994  0.87144  1.0000
  C   C72       1.0  0.97501  0.05683000000000001  0.68641  1.0000
  C   C73       1.0  0.32576  0.21456  0.90137  1.0000
  C   C74       1.0  0.07495  0.32124  0.37713999999999986  1.0000
  C   C75       1.0  0.04854  0.21712  0.18002  1.0000
  C   C76       1.0  0.27594  0.12311000000000002  0.91068  1.0000
  C   C77       1.0  0.42588  0.04725999999999998  0.31623999999999997  1.0000
  C   C78       1.0  0.77161  0.79513  0.40172999999999986  1.0000
  C   C79       1.0  0.33864000000000005  0.601  0.19929  1.0000
  C   C80       1.0  0.35243  0.6954499999999998  0.18827  1.0000
  C   C81       1.0  0.34888  0.2793599999999999  0.023749999999999993  1.0000
  C   C82       1.0  0.57616  0.52823  0.3143  1.0000
  C   C83       1.0  0.25259  0.60155  0.5467  1.0000
  C   C84       1.0  0.91214  0.5903699999999997  0.99408  1.0000
  C   C85       1.0  0.56814  0.20565999999999995  0.4627899999999999  1.0000
  C   C86       1.0  0.31177  0.6630299999999998  0.3448199999999999  1.0000
  C   C87       1.0  0.07439  0.05005999999999998  0.8163799999999999  1.0000
  C   C88       1.0  0.83189  0.3375199999999999  0.4643499999999999  1.0000
  C   C89       1.0  0.87306  0.48365999999999987  0.12344  1.0000
  C   C90       1.0  0.87716  0.94585  0.21744999999999998  1.0000
  C   C91       1.0  0.69735  0.47699999999999987  0.47676999999999997  1.0000
  C   C92       1.0  0.9044999999999999  0.47397  0.31678  1.0000
  C   C93       1.0  0.41299  0.4089099999999998  0.50576  1.0000
  C   C94       1.0  0.97601  0.30574  0.19067  1.0000
  C   C95       1.0  0.34734999999999994  0.12698  0.07867  1.0000
  C   C96       1.0  0.79269  0.37885  0.9181299999999998  1.0000
  C   C97       1.0  0.24942  0.6014799999999999  0.046699999999999985  1.0000
  C   C98       1.0  0.17348  0.21489999999999995  0.40137  1.0000
  C   C99       1.0  0.024089999999999997  0.69422  0.80931  1.0000
  C   C100      1.0  0.07318  0.2255299999999999  0.8219  1.0000
  C   C101      1.0  0.74743  0.39844  0.4532999999999999  1.0000
  C   C102      1.0  0.13679  0.82462  0.00984  1.0000
  C   C103      1.0  0.0597  0.6962199999999997  0.96861  1.0000
  C   C104      1.0  0.4944  0.6428599999999999  0.14813  1.0000
  C   C105      1.0  0.43852  0.8398399999999998  0.57402  1.0000
  C   C106      1.0  0.40694  0.28457  0.06070999999999999  1.0000
  C   C107      1.0  0.9257999999999998  0.53033  0.81395  1.0000
  C   C108      1.0  0.01694  0.54558  0.65706  1.0000
  C   C109      1.0  0.92684  0.7744699999999995  0.17808999999999994  1.0000
  C   C110      1.0  0.25354  0.6995399999999998  0.6036399999999998  1.0000
  C   C111      1.0  0.98073  0.12850999999999993  0.5374799999999997  1.0000
  C   C112      1.0  0.15051  0.27905999999999986  0.52405  1.0000
  C   C113      1.0  0.32347  0.027499999999999997  0.45089  1.0000
  C   C114      1.0  0.8766399999999999  0.77885  0.21209  1.0000
  C   C115      1.0  0.1313  0.73925  0.55941  1.0000
  C   C116      1.0  0.68054  0.6941699999999997  0.9094  1.0000
  C   C117      1.0  0.45295  0.13514999999999994  0.3363899999999999  1.0000
  C   C118      1.0  0.9412999999999999  0.9098499999999998  0.7106399999999998  1.0000
  C   C119      1.0  0.51985  0.12977  0.03749  1.0000
  C   C120      1.0  0.02501  0.9431599999999999  0.31357999999999997  1.0000
  C   C121      1.0  0.37788  0.05087999999999999  0.2823  1.0000
  C   C122      1.0  0.06847  0.79289  0.037  1.0000
  C   C123      1.0  0.50055  0.60498  0.33403  1.0000
  C   C124      1.0  0.86872  0.26075  0.44059  1.0000
  C   C125      1.0  0.37434  0.9416699999999998  0.75783  1.0000
  C   C126      1.0  0.87783  0.43124  0.15836999999999996  1.0000
  C   C127      1.0  0.86794  0.22506  0.024469999999999992  1.0000
  C   C128      1.0  0.27034  0.04213999999999998  0.8852099999999999  1.0000
  C   C129      1.0  0.62074  0.4323799999999999  0.65855  1.0000
  C   C130      1.0  0.35423  0.7197899999999998  0.31377  1.0000
  C   C131      1.0  0.65268  0.87302  0.9213299999999998  1.0000
  C   C132      1.0  0.54707  0.86484  0.6636  1.0000
  C   C133      1.0  0.44075  0.08969  0.78957  1.0000
  C   C134      1.0  0.055020000000000006  0.3572599999999999  0.13035  1.0000
  C   C135      1.0  0.9569  0.8190599999999999  0.4305899999999999  1.0000
  C   C136      1.0  0.37044  0.04013999999999999  0.10021  1.0000
  C   C137      1.0  0.45654000000000006  0.18197999999999995  0.06929  1.0000
  C   C138      1.0  0.12287  0.05415999999999996  0.7825399999999998  1.0000
  C   C139      1.0  0.62589  0.48715999999999987  0.6241699999999999  1.0000
  C   C140      1.0  0.8495  0.7209399999999998  0.47595  1.0000
  C   C141      1.0  0.84754  0.8734299999999998  0.421  1.0000
  C   C142      1.0  0.49731  0.36193  0.062319999999999987  1.0000
  C   C143      1.0  0.63288  0.22388999999999995  0.52414  1.0000
  C   C144      1.0  0.6659600000000001  0.3379199999999999  0.96441  1.0000
  C   C145      1.0  0.00922  0.86517  0.12856  1.0000
  C   C146      1.0  0.6476  0.30453  0.81172  1.0000
  C   C147      1.0  0.42416  0.32059  0.8770299999999999  1.0000
  C   C148      1.0  0.21615999999999996  0.7802399999999998  0.7001099999999999  1.0000
  C   C149      1.0  0.18688999999999997  0.8885499999999996  0.22871999999999998  1.0000
  C   C150      1.0  0.62315  0.7820799999999998  0.71263  1.0000
  C   C151      1.0  0.86321  0.17536999999999997  0.9901599999999999  1.0000
  C   C152      1.0  0.70518  0.37897  0.41814  1.0000
  C   C153      1.0  0.44378  0.35928  0.63004  1.0000
  C   C154      1.0  0.6742599999999999  0.7854199999999998  0.09863  1.0000
  C   C155      1.0  0.56149  0.16015999999999994  0.42596999999999996  1.0000
  C   C156      1.0  0.82653  0.7850799999999998  0.59863  1.0000
  C   C157      1.0  0.04653  0.13766  0.8366  1.0000
  C   C158      1.0  0.92505  0.67874  0.62286  1.0000
  C   C159      1.0  0.7514699999999999  0.30022  0.89643  1.0000
  C   C160      1.0  0.19073999999999997  0.6634299999999999  0.84423  1.0000
  C   C161      1.0  0.04312  0.18093999999999993  0.5694099999999997  1.0000
  C   C162      1.0  0.77209  0.95756  0.61513  1.0000
  C   C163      1.0  0.92005  0.10859999999999999  0.71462  1.0000
  C   C164      1.0  0.52144  0.3077099999999999  0.6905399999999998  1.0000
  C   C165      1.0  0.99414  0.6687299999999998  0.99699  1.0000
  C   C166      1.0  0.1791  0.3053499999999999  0.5910199999999999  1.0000
  C   C167      1.0  0.4393  0.6971799999999999  0.46887999999999996  1.0000
  C   C168      1.0  0.12222  0.56872  0.8416199999999998  1.0000
  C   C169      1.0  0.12337  0.22116  0.78791  1.0000
  C   C170      1.0  0.03428  0.8106799999999997  0.39752  1.0000
  C   C171      1.0  0.01929  0.8714799999999999  0.46252  1.0000
  C   C172      1.0  0.3344  0.49898  0.30983999999999995  1.0000
  C   C173      1.0  0.11308000000000001  0.04400999999999998  0.25971999999999995  1.0000
  C   C174      1.0  0.12697  0.5163199999999999  0.8765499999999999  1.0000
  C   C175      1.0  0.92565  0.9499399999999998  0.18361999999999998  1.0000
  C   C176      1.0  0.37924  0.5676099999999998  0.34145  1.0000
  C   C177      1.0  0.13207  0.77493  0.9755299999999999  1.0000
  C   C178      1.0  0.31949  0.30583  0.09059999999999997  1.0000
  C   C179      1.0  0.82091  0.69464  0.4089799999999999  1.0000
  C   C180      1.0  0.49164  0.8671999999999999  0.62869  1.0000
  C   C181      1.0  0.80117  0.4768599999999999  0.97669  1.0000
  C   C182      1.0  0.50563  0.3571199999999999  0.8518699999999999  1.0000
  C   C183      1.0  0.3740200000000001  0.51284  0.37584  1.0000
  C   C184      1.0  0.53359  0.19029999999999994  0.10244  1.0000
  C   C185      1.0  0.33405  0.6620699999999998  0.03559  1.0000
  C   C186      1.0  0.16635  0.49756999999999996  0.81064  1.0000
  C   C187      1.0  0.7240800000000001  0.87688  0.08931999999999998  1.0000
  C   C188      1.0  0.62918  0.26101999999999986  0.94069  1.0000
  C   C189      1.0  0.94506  0.64275  0.86963  1.0000
  C   C190      1.0  0.59308  0.71543  0.93928  1.0000
  C   C191      1.0  0.3864  0.04361999999999999  0.75994  1.0000
  C   C192      1.0  0.50532  0.6697399999999998  0.4972  1.0000
  C   C193      1.0  0.96573  0.18931999999999993  0.60248  1.0000
  C   C194      1.0  0.72793  0.8848899999999997  0.55567  1.0000
  C   C195      1.0  0.82466  0.9712699999999997  0.0486  1.0000
  C   C196      1.0  0.28433  0.7807599999999998  0.20007  1.0000
  C   C197      1.0  0.59473  0.4734199999999999  0.81687  1.0000
  C   C198      1.0  0.83368  0.50236  0.18936  1.0000
  C   C199      1.0  0.9078  0.71632  0.43904  1.0000
  C   C200      1.0  0.0007900000000000001  0.3601299999999999  0.56246  1.0000
  C   C201      1.0  0.8747  0.05792999999999997  0.74237  1.0000
  C   C202      1.0  0.54349  0.81803  0.9307099999999999  1.0000
  C   C203      1.0  0.74647  0.3004599999999999  0.3963599999999999  1.0000
  C   C204      1.0  0.7180199999999999  0.04167  0.60593  1.0000
  C   C205      1.0  0.8379399999999999  0.39951  0.30063  1.0000
  C   C206      1.0  0.9403099999999999  0.30376  0.03139  1.0000
  C   C207      1.0  0.20732  0.62114  0.08187  1.0000
  C   C208      1.0  0.72968  0.9578499999999998  0.11479  1.0000
  C   C209      1.0  0.12926  0.038020000000000005  0.59953  1.0000
  C   C210      1.0  0.57586  0.6793899999999998  0.12297  1.0000
  C   C211      1.0  0.9934999999999999  0.35782  0.35193  1.0000
  C   C212      1.0  0.08786999999999999  0.40961  0.00592  1.0000
  C   C213      1.0  0.36308  0.8260199999999999  0.51014  1.0000
  C   C214      1.0  0.22840000000000002  0.20486999999999994  0.59826  1.0000
  C   C215      1.0  0.4947  0.33025  0.5028  1.0000
  C   C216      1.0  0.06228  0.8381699999999997  0.07386  1.0000
  C   C217      1.0  0.71571  0.21922999999999995  0.79993  1.0000
  C   C218      1.0  0.07997  0.89138  0.28538  1.0000
  C   C219      1.0  0.41958  0.89096  0.78561  1.0000
  C   C220      1.0  0.51611  0.4537799999999999  0.8429899999999999  1.0000
  C   C221      1.0  0.8869399999999998  0.9559799999999998  0.74027  1.0000
  C   C222      1.0  0.49943  0.39500999999999986  0.66597  1.0000
  C   C223      1.0  0.15247  0.12657  0.579  1.0000
  C   C224      1.0  0.7838500000000002  0.21975  0.29989  1.0000
  C   C225      1.0  0.78453  0.04135  0.10541  1.0000
  C   C226      1.0  0.47453999999999996  0.9426700000000001  0.81381  1.0000
  C   C227      1.0  0.282  0.95832  0.39407  1.0000
  C   C228      1.0  0.27209  0.11509999999999997  0.44432999999999995  1.0000
  C   C229      1.0  0.80933  0.3365199999999999  0.15576  1.0000
  C   C230      1.0  0.7727100000000001  0.8841599999999997  0.05537  1.0000
  C   C231      1.0  0.73079  0.7947699999999998  0.9030099999999999  1.0000
  C   C232      1.0  0.07426  0.46966999999999987  0.18604  1.0000
  N   N1        1.0  0.28191  0.92629  0.6977299999999999  1.0000
  N   N2        1.0  0.17268  0.7583499999999997  0.59292  1.0000
  N   N3        1.0  0.32903  0.9496999999999998  0.42646  1.0000
  N   N4        1.0  0.32927  0.7584899999999999  0.09277999999999997  1.0000
  N   N5        1.0  0.11695  0.46695999999999993  0.035569999999999984  1.0000
  N   N6        1.0  0.78769  0.6968099999999998  0.58604  1.0000
  N   N7        1.0  0.67075  0.24148999999999998  0.90722  1.0000
  N   N8        1.0  0.22607  0.79663  0.23099  1.0000
  N   N9        1.0  0.14857  0.37189999999999984  0.39872999999999986  1.0000
  N   N10       1.0  0.58888  0.7773599999999998  0.12152999999999997  1.0000
  N   N11       1.0  0.64945  0.6284799999999998  0.10143  1.0000
  N   N12       1.0  0.08803  0.22323  0.3785  1.0000
  N   N13       1.0  0.14711  0.42897  0.97658  1.0000
  N   N14       1.0  0.8838  0.08090000000000003  0.91356  1.0000
  N   N15       1.0  0.64629  0.5714399999999997  0.5235399999999999  1.0000
  N   N16       1.0  0.7181  0.07369999999999996  0.3022699999999999  1.0000
  N   N17       1.0  0.83131  0.04919999999999999  0.07293  1.0000
  N   N18       1.0  0.4185499999999999  0.9378899999999998  0.62139  1.0000
  N   N19       1.0  0.64679  0.8657499999999999  0.73255  1.0000
  N   N20       1.0  0.9847000000000001  0.95864  0.68394  1.0000
  N   N21       1.0  0.28204  0.50104  0.48725999999999997  1.0000
  N   N22       1.0  0.78241  0.07345999999999997  0.80245  1.0000
  N   N23       1.0  0.0005100000000000003  0.7160199999999998  0.03024  1.0000
  N   N24       1.0  0.28693  0.30297  0.9138899999999998  1.0000
  N   N25       1.0  0.7255800000000001  0.20387999999999995  0.26897  1.0000
  N   N26       1.0  0.99544  0.8012300000000001  0.09919  1.0000
  N   N27       1.0  0.61571  0.07929  0.41343  1.0000
  N   N28       1.0  0.1475  0.13774999999999998  0.7678799999999999  1.0000
  N   N29       1.0  0.61571  0.53361  0.46457  1.0000
  N   N30       1.0  0.35323  0.13423999999999997  0.26744999999999997  1.0000
  N   N31       1.0  0.72077  0.14311999999999997  0.8208399999999999  1.0000
  N   N32       1.0  0.4843  0.04082999999999994  0.8162299999999998  1.0000
  N   N33       1.0  0.41114  0.22263  0.87847  1.0000
  N   N34       1.0  0.015320000000000002  0.04135  0.31605  1.0000
  N   N35       1.0  0.7808399999999999  0.4988999999999999  0.01266  1.0000
  N   N36       1.0  0.9995  0.28395999999999993  0.96976  1.0000
  N   N37       1.0  0.67099  0.050289999999999974  0.57353  1.0000
  N   N38       1.0  0.7130900000000001  0.6970199999999998  0.08611  1.0000
  N   N39       1.0  0.21918  0.50108  0.98734  1.0000
  N   N40       1.0  0.11625  0.9190699999999998  0.08644  1.0000
  N   N41       1.0  0.22066  0.8565  0.67929  1.0000
  N   N42       1.0  0.50561  0.8031  0.5993599999999998  1.0000
  N   N43       1.0  0.85291  0.57101  0.02341  1.0000
  N   N44       1.0  0.49441  0.19689  0.40063999999999994  1.0000
  N   N45       1.0  0.07067  0.7136299999999998  0.6638199999999997  1.0000
  N   N46       1.0  0.21231000000000003  0.3031699999999999  0.41397  1.0000
  N   N47       1.0  0.27444  0.7960999999999997  0.73103  1.0000
  N   N48       1.0  0.71797  0.49894999999999984  0.5127499999999998  1.0000
  N   N49       1.0  0.49963  0.7172499999999998  0.53043  1.0000
  N   N50       1.0  0.35057  0.3715099999999998  0.8985699999999998  1.0000
  N   N51       1.0  0.21764  0.9265299999999997  0.19754999999999995  1.0000
  N   N52       1.0  0.85251  0.8622699999999998  0.23212  1.0000
  N   N53       1.0  0.56983  0.28567  0.83609  1.0000
  N   N54       1.0  0.91199  0.7767499999999996  0.6215  1.0000
  N   N55       1.0  0.38431  0.46637999999999996  0.5354299999999997  1.0000
  N   N56       1.0  0.1687  0.95079  0.92707  1.0000
  N   N57       1.0  0.91803  0.06394999999999998  0.8787099999999999  1.0000
  N   N58       1.0  0.58147  0.06209999999999998  0.37859999999999994  1.0000
  N   N59       1.0  0.8830599999999998  0.53303  0.9644299999999999  1.0000
  N   N60       1.0  0.92934  0.28636  0.33617  1.0000
  N   N61       1.0  0.82734  0.2416399999999999  0.40708  1.0000
  N   N62       1.0  0.08203  0.9360199999999997  0.12128999999999998  1.0000
  N   N63       1.0  0.85142  0.6280799999999997  0.6012699999999999  1.0000
  N   N64       1.0  0.38431  0.9206999999999996  0.5865599999999999  1.0000
  N   N65       1.0  0.27929  0.85687  0.17916999999999997  1.0000
  N   N66       1.0  0.77934  0.14348999999999998  0.32071  1.0000
  N   N67       1.0  0.43018999999999996  0.7143099999999998  0.16391  1.0000
  N   N68       1.0  0.50039  0.28273999999999994  0.46957  1.0000
  N   N69       1.0  0.35372  0.4285499999999999  0.47646  1.0000
  N   N70       1.0  0.00457  0.19876999999999995  0.90081  1.0000
  N   N71       1.0  0.77395  0.20335  0.769  1.0000
  N   N72       1.0  0.51573  0.95916  0.18376999999999993  1.0000
  O   O1        1.0  0.56714  0.02786999999999998  0.9130199999999999  1.0000
  O   O2        1.0  0.9610700000000001  0.3865799999999998  0.5328099999999998  1.0000
  O   O3        1.0  0.9884  0.84779  0.84362  1.0000
  O   O4        1.0  0.85609  0.7909999999999998  0.8055  1.0000
  O   O5        1.0  0.06749  0.9708199999999998  0.58549  1.0000
  O   O6        1.0  0.52236  0.8442899999999999  0.3434699999999999  1.0000
  O   O7        1.0  0.14392  0.20892  0.19449  1.0000
  O   O8        1.0  0.42200999999999994  0.42906  0.37469  1.0000
  O   O9        1.0  0.9617399999999999  0.3950699999999998  0.5928199999999999  1.0000
  O   O10       1.0  0.17803  0.5570199999999998  0.9036599999999999  1.0000
  O   O11       1.0  0.35372  0.2131599999999999  0.6976599999999998  1.0000
  O   O12       1.0  0.47759  0.15573  0.65654  1.0000
  O   O13       1.0  0.9325199999999999  0.029179999999999973  0.4144999999999999  1.0000
  O   O14       1.0  0.82199  0.44296999999999986  0.09633999999999998  1.0000
  O   O15       1.0  0.57798  0.57098  0.6253199999999999  1.0000
  O   O16       1.0  0.6757599999999999  0.44763  0.59658  1.0000
  O   O17       1.0  0.03825  0.60492  0.4071799999999999  1.0000
  O   O18       1.0  0.07775  0.4333399999999999  0.8762099999999999  1.0000
  O   O19       1.0  0.53411  0.3911499999999999  0.03274  1.0000
  O   O20       1.0  0.03893  0.61341  0.46719  1.0000
  O   O21       1.0  0.66805  0.9622099999999998  0.8673599999999999  1.0000
  O   O22       1.0  0.33197999999999994  0.03779  0.13264  1.0000
  O   O23       1.0  0.01161  0.15213999999999997  0.15635  1.0000
  O   O24       1.0  0.16705  0.03339  0.63203  1.0000
  O   O25       1.0  0.46186  0.60508  0.9072999999999999  1.0000
  O   O26       1.0  0.83296  0.9665999999999999  0.36797  1.0000
  O   O27       1.0  0.64618  0.7868699999999997  0.3023399999999999  1.0000
  O   O28       1.0  0.92226  0.56665  0.12378999999999998  1.0000
  O   O29       1.0  0.32398  0.55234  0.4033899999999999  1.0000
  O   O30       1.0  0.46591  0.60884  0.9672599999999999  1.0000
  O   O31       1.0  0.53816  0.3949199999999999  0.09269999999999999  1.0000
  O   O32       1.0  0.43287  0.97212  0.08696999999999999  1.0000
