data_image0
_chemical_formula_structural       Cu24H120C176N48O48
_chemical_formula_sum              "Cu24 H120 C176 N48 O48"
_cell_length_a       22.80419
_cell_length_b       22.79157
_cell_length_c       22.799400000000002
_cell_angle_alpha    90.03709
_cell_angle_beta     89.98168
_cell_angle_gamma    90.01654

_symmetry_space_group_name_H-M    'P 1'
_symmetry_Int_Tables_number       1

loop_
  _symmetry_equiv_pos_as_xyz
  'x,y,z'

loop_
  _atom_site_type_symbol
  _atom_site_label
  _atom_site_symmetry_multiplicity
  _atom_site_fract_x
  _atom_site_fract_y
  _atom_site_fract_z
  _atom_site_occupancy
  Cu  Cu1       1.0  0.33508  0.08513  0.7438600000000001  1.0000
  Cu  Cu2       1.0  0.33975  0.96829  0.6889300000000002  1.0000
  Cu  Cu3       1.0  0.16487  0.9148800000000002  0.24393  1.0000
  Cu  Cu4       1.0  0.16064  0.03166  0.18884000000000004  1.0000
  Cu  Cu5       1.0  0.66497  0.58545  0.75531  1.0000
  Cu  Cu6       1.0  0.65968  0.4692700000000001  0.8131900000000001  1.0000
  Cu  Cu7       1.0  0.83479  0.4157200000000001  0.25516  1.0000
  Cu  Cu8       1.0  0.83913  0.5316700000000001  0.31140000000000007  1.0000
  Cu  Cu9       1.0  0.74371  0.33509000000000005  0.08495  1.0000
  Cu  Cu10      1.0  0.69162  0.3381  0.9667500000000002  1.0000
  Cu  Cu11      1.0  0.24455000000000002  0.16498000000000002  0.91506  1.0000
  Cu  Cu12      1.0  0.1886  0.16068  0.03154  1.0000
  Cu  Cu13      1.0  0.7555599999999999  0.6651800000000001  0.5847700000000001  1.0000
  Cu  Cu14      1.0  0.8111300000000001  0.66104  0.46837  1.0000
  Cu  Cu15      1.0  0.25548  0.83489  0.41475000000000006  1.0000
  Cu  Cu16      1.0  0.31281  0.84017  0.53091  1.0000
  Cu  Cu17      1.0  0.08493  0.74408  0.33499  1.0000
  Cu  Cu18      1.0  0.96836  0.68892  0.33924  1.0000
  Cu  Cu19      1.0  0.9149  0.24459000000000003  0.16475000000000004  1.0000
  Cu  Cu20      1.0  0.03136  0.18861000000000006  0.16063  1.0000
  Cu  Cu21      1.0  0.58504  0.7566200000000001  0.66484  1.0000
  Cu  Cu22      1.0  0.46651  0.8081100000000001  0.66188  1.0000
  Cu  Cu23      1.0  0.41490999999999995  0.25621000000000005  0.8348400000000002  1.0000
  Cu  Cu24      1.0  0.532  0.3107500000000001  0.83956  1.0000
  H   H1        1.0  0.62125  0.06915000000000002  0.57988  1.0000
  H   H2        1.0  0.47182  0.19032  0.7408300000000001  1.0000
  H   H3        1.0  0.44372  0.9828900000000003  0.61345  1.0000
  H   H4        1.0  0.54285  0.005640000000000002  0.5741800000000001  1.0000
  H   H5        1.0  0.54684  0.16406  0.6765300000000001  1.0000
  H   H6        1.0  0.09252  0.08219  0.53502  1.0000
  H   H7        1.0  0.22966  0.93773  0.56136  1.0000
  H   H8        1.0  0.21024000000000004  0.11235000000000002  0.7328800000000002  1.0000
  H   H9        1.0  0.12928  0.14926000000000003  0.6696600000000001  1.0000
  H   H10       1.0  0.16227  0.00965  0.54763  1.0000
  H   H11       1.0  0.8787800000000001  0.9307300000000002  0.07978  1.0000
  H   H12       1.0  0.02793  0.8099700000000001  0.24089000000000005  1.0000
  H   H13       1.0  0.05627  0.01711  0.11342  1.0000
  H   H14       1.0  0.9572100000000001  0.9943100000000001  0.07414000000000001  1.0000
  H   H15       1.0  0.95313  0.83601  0.17649000000000006  1.0000
  H   H16       1.0  0.40762  0.9178500000000002  0.03515  1.0000
  H   H17       1.0  0.26903  0.061280000000000015  0.060310000000000016  1.0000
  H   H18       1.0  0.28901  0.8878200000000002  0.23259000000000005  1.0000
  H   H19       1.0  0.37043  0.8509700000000001  0.16975  1.0000
  H   H20       1.0  0.33796  0.9905700000000001  0.04772  1.0000
  H   H21       1.0  0.37881  0.56937  0.9203200000000002  1.0000
  H   H22       1.0  0.52784  0.6905  0.7591800000000001  1.0000
  H   H23       1.0  0.55585  0.48294  0.8863300000000002  1.0000
  H   H24       1.0  0.45699  0.50592  0.9260000000000002  1.0000
  H   H25       1.0  0.45321  0.66429  0.82367  1.0000
  H   H26       1.0  0.90768  0.5823000000000002  0.9647800000000002  1.0000
  H   H27       1.0  0.76936  0.4371500000000001  0.9389900000000001  1.0000
  H   H28       1.0  0.78814  0.6119100000000001  0.7678500000000003  1.0000
  H   H29       1.0  0.8702899999999999  0.6487  0.8298800000000001  1.0000
  H   H30       1.0  0.83857  0.5093000000000001  0.9524100000000002  1.0000
  H   H31       1.0  0.12088  0.4307100000000001  0.42012  1.0000
  H   H32       1.0  0.97143  0.3098600000000001  0.25906  1.0000
  H   H33       1.0  0.94367  0.51727  0.38655000000000006  1.0000
  H   H34       1.0  0.04267  0.4943  0.42573  1.0000
  H   H35       1.0  0.04626  0.33602  0.32316000000000006  1.0000
  H   H36       1.0  0.59226  0.41767  0.4649300000000001  1.0000
  H   H37       1.0  0.73078  0.56207  0.4399300000000001  1.0000
  H   H38       1.0  0.71105  0.38872000000000007  0.26736000000000004  1.0000
  H   H39       1.0  0.6301  0.35109000000000007  0.33025  1.0000
  H   H40       1.0  0.66187  0.4904200000000001  0.45298  1.0000
  H   H41       1.0  0.57986  0.6212800000000002  0.0693  1.0000
  H   H42       1.0  0.7408400000000002  0.47194  0.18979  1.0000
  H   H43       1.0  0.61272  0.4432900000000001  0.98325  1.0000
  H   H44       1.0  0.57397  0.5427000000000001  0.00589  1.0000
  H   H45       1.0  0.67658  0.54671  0.16399000000000002  1.0000
  H   H46       1.0  0.53519  0.09252000000000002  0.08202  1.0000
  H   H47       1.0  0.55999  0.23199  0.93993  1.0000
  H   H48       1.0  0.73282  0.21068  0.11258000000000001  1.0000
  H   H49       1.0  0.66957  0.12958  0.14936  1.0000
  H   H50       1.0  0.54807  0.16233000000000003  0.009460000000000001  1.0000
  H   H51       1.0  0.0798  0.87886  0.9307  1.0000
  H   H52       1.0  0.24048  0.02833  0.8094  1.0000
  H   H53       1.0  0.11349  0.05635  0.01706  1.0000
  H   H54       1.0  0.0742  0.9572000000000003  0.9942200000000002  1.0000
  H   H55       1.0  0.17657000000000003  0.9533100000000001  0.83593  1.0000
  H   H56       1.0  0.03504  0.40756  0.9176900000000001  1.0000
  H   H57       1.0  0.06017  0.26911000000000007  0.06165000000000001  1.0000
  H   H58       1.0  0.23258  0.28903  0.8883100000000002  1.0000
  H   H59       1.0  0.16974  0.3701800000000001  0.85108  1.0000
  H   H60       1.0  0.04733999999999999  0.33804  0.9904600000000002  1.0000
  H   H61       1.0  0.92009  0.3790600000000001  0.5692900000000001  1.0000
  H   H62       1.0  0.7588  0.52859  0.6899000000000001  1.0000
  H   H63       1.0  0.88648  0.55641  0.48283000000000004  1.0000
  H   H64       1.0  0.92568  0.4573500000000001  0.50575  1.0000
  H   H65       1.0  0.82317  0.45364000000000004  0.66396  1.0000
  H   H66       1.0  0.96493  0.90772  0.58224  1.0000
  H   H67       1.0  0.93967  0.7693  0.43854  1.0000
  H   H68       1.0  0.7673800000000001  0.7892100000000002  0.61205  1.0000
  H   H69       1.0  0.83037  0.8704500000000001  0.64921  1.0000
  H   H70       1.0  0.95249  0.83803  0.5095900000000001  1.0000
  H   H71       1.0  0.42034000000000005  0.12132000000000003  0.43059  1.0000
  H   H72       1.0  0.25915  0.97199  0.30987  1.0000
  H   H73       1.0  0.38653999999999994  0.9441900000000002  0.51721  1.0000
  H   H74       1.0  0.42606  0.04313000000000001  0.49415  1.0000
  H   H75       1.0  0.32369  0.046680000000000006  0.33586  1.0000
  H   H76       1.0  0.46476  0.59225  0.41772  1.0000
  H   H77       1.0  0.43896  0.73064  0.56283  1.0000
  H   H78       1.0  0.26781  0.71177  0.3881200000000001  1.0000
  H   H79       1.0  0.32994  0.6297100000000001  0.35121  1.0000
  H   H80       1.0  0.4524000000000001  0.66151  0.4906500000000001  1.0000
  H   H81       1.0  0.0693  0.5797800000000001  0.62106  1.0000
  H   H82       1.0  0.18987  0.74105  0.4716800000000001  1.0000
  H   H83       1.0  0.98283  0.61336  0.44371  1.0000
  H   H84       1.0  0.005710000000000001  0.57415  0.54276  1.0000
  H   H85       1.0  0.16393  0.6766400000000001  0.54657  1.0000
  H   H86       1.0  0.08223  0.53501  0.09232000000000001  1.0000
  H   H87       1.0  0.93862  0.5602300000000001  0.23090000000000002  1.0000
  H   H88       1.0  0.11205  0.73267  0.21088000000000007  1.0000
  H   H89       1.0  0.14907  0.66969  0.12958  1.0000
  H   H90       1.0  0.00951  0.5475  0.16203  1.0000
  H   H91       1.0  0.93073  0.07977  0.8787000000000001  1.0000
  H   H92       1.0  0.80963  0.24062000000000003  0.02809  1.0000
  H   H93       1.0  0.01705  0.11353000000000003  0.05615000000000001  1.0000
  H   H94       1.0  0.9942800000000002  0.07414  0.9570500000000001  1.0000
  H   H95       1.0  0.83604  0.17651000000000006  0.9532100000000002  1.0000
  H   H96       1.0  0.91781  0.03512  0.4076700000000001  1.0000
  H   H97       1.0  0.06169000000000001  0.06046000000000001  0.26918  1.0000
  H   H98       1.0  0.88806  0.23254000000000005  0.28897000000000006  1.0000
  H   H99       1.0  0.85099  0.16971  0.37029000000000006  1.0000
  H   H100      1.0  0.99052  0.04751  0.33805  1.0000
  H   H101      1.0  0.5693  0.9202200000000001  0.3786600000000001  1.0000
  H   H102      1.0  0.68965  0.7591500000000001  0.5279400000000001  1.0000
  H   H103      1.0  0.48330000000000006  0.88747  0.5566900000000001  1.0000
  H   H104      1.0  0.50578  0.92602  0.45725  1.0000
  H   H105      1.0  0.66386  0.8234300000000001  0.4532000000000001  1.0000
  H   H106      1.0  0.5821  0.9648000000000001  0.9073200000000002  1.0000
  H   H107      1.0  0.4402499999999999  0.94016  0.76787  1.0000
  H   H108      1.0  0.61272  0.7670700000000001  0.7891500000000002  1.0000
  H   H109      1.0  0.64936  0.8302800000000002  0.8703200000000002  1.0000
  H   H110      1.0  0.50946  0.95178  0.83753  1.0000
  H   H111      1.0  0.43089  0.4200500000000001  0.12121  1.0000
  H   H112      1.0  0.31005  0.2590100000000001  0.9717600000000001  1.0000
  H   H113      1.0  0.51708  0.38655  0.9436100000000002  1.0000
  H   H114      1.0  0.49434  0.42574  0.04283  1.0000
  H   H115      1.0  0.33602  0.3234  0.04668  1.0000
  H   H116      1.0  0.41783000000000003  0.4650100000000001  0.5925300000000001  1.0000
  H   H117      1.0  0.56194  0.43891  0.72991  1.0000
  H   H118      1.0  0.3877  0.26711000000000007  0.7102100000000002  1.0000
  H   H119      1.0  0.35077  0.33039  0.6292800000000001  1.0000
  H   H120      1.0  0.4903600000000001  0.45235000000000003  0.6622700000000001  1.0000
  C   C1        1.0  0.44458  0.1525  0.72904  1.0000
  C   C2        1.0  0.4675  0.11209  0.68609  1.0000
  C   C3        1.0  0.43851999999999997  0.05947000000000001  0.66784  1.0000
  C   C4        1.0  0.46661  0.02257  0.62699  1.0000
  C   C5        1.0  0.52197  0.03556  0.6051000000000001  1.0000
  C   C6        1.0  0.5511  0.08673  0.6235200000000001  1.0000
  C   C7        1.0  0.52382  0.12455  0.6627700000000001  1.0000
  C   C8        1.0  0.24734  0.9576300000000002  0.60148  1.0000
  C   C9        1.0  0.21892  0.00987  0.6236  1.0000
  C   C10       1.0  0.2331  0.04013  0.67707  1.0000
  C   C11       1.0  0.1993  0.08975000000000001  0.6922600000000001  1.0000
  C   C12       1.0  0.15414  0.11051000000000001  0.6572  1.0000
  C   C13       1.0  0.14058  0.08147000000000001  0.6046100000000001  1.0000
  C   C14       1.0  0.17239  0.03212  0.58861  1.0000
  C   C15       1.0  0.05527  0.8477  0.22914000000000007  1.0000
  C   C16       1.0  0.03238  0.88809  0.1862  1.0000
  C   C17       1.0  0.06137  0.94068  0.16795000000000002  1.0000
  C   C18       1.0  0.03334  0.97751  0.1271  1.0000
  C   C19       1.0  0.9780000000000001  0.96449  0.10516  1.0000
  C   C20       1.0  0.94886  0.9133300000000001  0.12356000000000003  1.0000
  C   C21       1.0  0.97611  0.8755600000000001  0.16283  1.0000
  C   C22       1.0  0.25259  0.042550000000000004  0.10149  1.0000
  C   C23       1.0  0.28115  0.99046  0.12365  1.0000
  C   C24       1.0  0.26676  0.9601000000000002  0.17689  1.0000
  C   C25       1.0  0.30021  0.9103500000000001  0.19203  1.0000
  C   C26       1.0  0.34561  0.8896700000000002  0.15717000000000003  1.0000
  C   C27       1.0  0.35938  0.9187  0.10465000000000002  1.0000
  C   C28       1.0  0.32767  0.9681100000000002  0.08865  1.0000
  C   C29       1.0  0.55523  0.6527600000000001  0.77074  1.0000
  C   C30       1.0  0.53225  0.61205  0.81353  1.0000
  C   C31       1.0  0.56091  0.5592400000000001  0.83163  1.0000
  C   C32       1.0  0.53299  0.52257  0.87269  1.0000
  C   C33       1.0  0.47777000000000003  0.5356700000000001  0.89486  1.0000
  C   C34       1.0  0.44876  0.5868300000000001  0.87644  1.0000
  C   C35       1.0  0.47607000000000005  0.62464  0.8371500000000001  1.0000
  C   C36       1.0  0.75298  0.45688  0.89826  1.0000
  C   C37       1.0  0.78138  0.50922  0.8768000000000001  1.0000
  C   C38       1.0  0.76659  0.53963  0.8238200000000002  1.0000
  C   C39       1.0  0.7997  0.58949  0.80835  1.0000
  C   C40       1.0  0.8453899999999999  0.6101600000000001  0.84284  1.0000
  C   C41       1.0  0.85939  0.58122  0.89536  1.0000
  C   C42       1.0  0.8279  0.5317200000000001  0.9116000000000001  1.0000
  C   C43       1.0  0.94422  0.34775  0.27063  1.0000
  C   C44       1.0  0.96714  0.38824  0.31357000000000007  1.0000
  C   C45       1.0  0.93817  0.4408600000000001  0.33191000000000004  1.0000
  C   C46       1.0  0.96643  0.4776100000000001  0.37277  1.0000
  C   C47       1.0  0.02176  0.46451  0.3947000000000001  1.0000
  C   C48       1.0  0.0508  0.41332000000000013  0.37628  1.0000
  C   C49       1.0  0.023419999999999996  0.3756300000000001  0.33693  1.0000
  C   C50       1.0  0.7470900000000001  0.5430600000000001  0.3988300000000001  1.0000
  C   C51       1.0  0.7183599999999999  0.4911200000000001  0.37670000000000003  1.0000
  C   C52       1.0  0.73268  0.4613500000000001  0.32306  1.0000
  C   C53       1.0  0.69973  0.4111600000000001  0.30795000000000006  1.0000
  C   C54       1.0  0.65462  0.39000000000000007  0.34290000000000004  1.0000
  C   C55       1.0  0.64065  0.4188500000000001  0.39553  1.0000
  C   C56       1.0  0.67215  0.46832  0.41181  1.0000
  C   C57       1.0  0.72891  0.4445600000000001  0.15215000000000004  1.0000
  C   C58       1.0  0.68599  0.46742000000000006  0.11189  1.0000
  C   C59       1.0  0.6677  0.4381800000000001  0.05939  1.0000
  C   C60       1.0  0.62674  0.46635  0.02265  1.0000
  C   C61       1.0  0.60498  0.52181  0.035660000000000004  1.0000
  C   C62       1.0  0.62346  0.5510500000000002  0.08676000000000002  1.0000
  C   C63       1.0  0.66275  0.5238000000000002  0.12445  1.0000
  C   C64       1.0  0.60199  0.24739000000000005  0.9575900000000002  1.0000
  C   C65       1.0  0.62427  0.21865  0.0095  1.0000
  C   C66       1.0  0.67747  0.23292000000000002  0.039880000000000006  1.0000
  C   C67       1.0  0.69234  0.19960000000000006  0.08984000000000002  1.0000
  C   C68       1.0  0.65723  0.15439  0.11057000000000002  1.0000
  C   C69       1.0  0.60477  0.14069000000000004  0.08144  1.0000
  C   C70       1.0  0.58899  0.17241  0.031990000000000005  1.0000
  C   C71       1.0  0.22910000000000003  0.05553000000000001  0.84738  1.0000
  C   C72       1.0  0.18629  0.0326  0.8880000000000001  1.0000
  C   C73       1.0  0.16807  0.061550000000000035  0.94067  1.0000
  C   C74       1.0  0.12718  0.033440000000000004  0.97744  1.0000
  C   C75       1.0  0.10521  0.9780600000000003  0.9644100000000002  1.0000
  C   C76       1.0  0.12361  0.9489600000000001  0.9132500000000001  1.0000
  C   C77       1.0  0.16288  0.97628  0.8754900000000002  1.0000
  C   C78       1.0  0.1013  0.25276  0.04275000000000001  1.0000
  C   C79       1.0  0.12345000000000002  0.2814  0.9907700000000002  1.0000
  C   C80       1.0  0.17683  0.26697  0.96062  1.0000
  C   C81       1.0  0.19201  0.30029  0.9107800000000001  1.0000
  C   C82       1.0  0.15713  0.34554000000000007  0.88989  1.0000
  C   C83       1.0  0.10454  0.3593800000000001  0.9188000000000001  1.0000
  C   C84       1.0  0.08841  0.3277900000000001  0.96822  1.0000
  C   C85       1.0  0.77055  0.5558500000000001  0.65215  1.0000
  C   C86       1.0  0.81353  0.53284  0.6118  1.0000
  C   C87       1.0  0.83191  0.5618  0.5592500000000001  1.0000
  C   C88       1.0  0.87275  0.5336100000000001  0.52247  1.0000
  C   C89       1.0  0.89467  0.4782500000000001  0.5355400000000001  1.0000
  C   C90       1.0  0.87625  0.44919  0.5867  1.0000
  C   C91       1.0  0.8369  0.47653  0.6244  1.0000
  C   C92       1.0  0.89854  0.7528900000000001  0.4573600000000001  1.0000
  C   C93       1.0  0.87638  0.78145  0.50942  1.0000
  C   C94       1.0  0.8230699999999999  0.7670800000000001  0.53969  1.0000
  C   C95       1.0  0.80796  0.80043  0.58956  1.0000
  C   C96       1.0  0.84289  0.84571  0.6104  1.0000
  C   C97       1.0  0.89544  0.85948  0.58138  1.0000
  C   C98       1.0  0.91147  0.8278300000000002  0.53193  1.0000
  C   C99       1.0  0.2708  0.94459  0.34756  1.0000
  C   C100      1.0  0.31367  0.96763  0.38813  1.0000
  C   C101      1.0  0.33186  0.93896  0.44089000000000006  1.0000
  C   C102      1.0  0.37286  0.9669900000000002  0.47757000000000005  1.0000
  C   C103      1.0  0.39494  0.022270000000000005  0.46443  1.0000
  C   C104      1.0  0.37650000000000006  0.05124000000000001  0.41326  1.0000
  C   C105      1.0  0.33721  0.023840000000000004  0.37551  1.0000
  C   C106      1.0  0.39817  0.7469500000000001  0.54316  1.0000
  C   C107      1.0  0.37669  0.7185900000000001  0.49080000000000007  1.0000
  C   C108      1.0  0.32368  0.7333400000000001  0.4604100000000001  1.0000
  C   C109      1.0  0.30833  0.70024  0.4105000000000001  1.0000
  C   C110      1.0  0.34286  0.6545900000000001  0.3898  1.0000
  C   C111      1.0  0.39536  0.64061  0.41874  1.0000
  C   C112      1.0  0.41156  0.6721200000000002  0.46825  1.0000
  C   C113      1.0  0.15217  0.7292400000000002  0.44438  1.0000
  C   C114      1.0  0.11181  0.68628  0.46737000000000006  1.0000
  C   C115      1.0  0.05924  0.6679600000000001  0.43844  1.0000
  C   C116      1.0  0.02244  0.6271  0.46656  1.0000
  C   C117      1.0  0.0355  0.60518  0.5219000000000001  1.0000
  C   C118      1.0  0.08665  0.62362  0.55098  1.0000
  C   C119      1.0  0.12438000000000002  0.66293  0.52366  1.0000
  C   C120      1.0  0.9574199999999999  0.6014  0.24734000000000003  1.0000
  C   C121      1.0  0.00948  0.6235700000000001  0.21874000000000002  1.0000
  C   C122      1.0  0.0398  0.67688  0.23312000000000002  1.0000
  C   C123      1.0  0.08956  0.69206  0.19968000000000002  1.0000
  C   C124      1.0  0.11032  0.65714  0.15435  1.0000
  C   C125      1.0  0.0813  0.6045600000000001  0.14059  1.0000
  C   C126      1.0  0.03188  0.58852  0.17227  1.0000
  C   C127      1.0  0.8474900000000001  0.22918000000000005  0.05535000000000001  1.0000
  C   C128      1.0  0.88807  0.18630000000000005  0.03246  1.0000
  C   C129      1.0  0.94069  0.16807000000000002  0.06136  1.0000
  C   C130      1.0  0.97746  0.12717  0.03325000000000001  1.0000
  C   C131      1.0  0.96446  0.10516000000000002  0.9779000000000002  1.0000
  C   C132      1.0  0.91332  0.12356  0.9488400000000001  1.0000
  C   C133      1.0  0.8755700000000001  0.16285000000000002  0.9761700000000002  1.0000
  C   C134      1.0  0.04271  0.10153  0.25278  1.0000
  C   C135      1.0  0.99065  0.12358000000000001  0.28134  1.0000
  C   C136      1.0  0.9603400000000001  0.17684  0.26685000000000003  1.0000
  C   C137      1.0  0.91054  0.19199  0.30026  1.0000
  C   C138      1.0  0.88978  0.15714000000000003  0.34558000000000005  1.0000
  C   C139      1.0  0.9187600000000001  0.10459  0.3594  1.0000
  C   C140      1.0  0.9682  0.08853000000000001  0.32778000000000007  1.0000
  C   C141      1.0  0.65212  0.77119  0.55539  1.0000
  C   C142      1.0  0.6119  0.8141600000000001  0.53254  1.0000
  C   C143      1.0  0.55944  0.83244  0.56179  1.0000
  C   C144      1.0  0.52268  0.87343  0.53365  1.0000
  C   C145      1.0  0.53562  0.8951100000000002  0.47817  1.0000
  C   C146      1.0  0.5867  0.8766100000000001  0.44891  1.0000
  C   C147      1.0  0.62441  0.83734  0.4761700000000001  1.0000
  C   C148      1.0  0.45775  0.8980800000000001  0.7523900000000002  1.0000
  C   C149      1.0  0.50964  0.87567  0.7811100000000001  1.0000
  C   C150      1.0  0.54002  0.82244  0.7668700000000002  1.0000
  C   C151      1.0  0.58994  0.8075500000000001  0.80021  1.0000
  C   C152      1.0  0.61062  0.8426500000000002  0.84547  1.0000
  C   C153      1.0  0.58148  0.8951300000000002  0.8591900000000001  1.0000
  C   C154      1.0  0.53206  0.9108900000000001  0.8274100000000001  1.0000
  C   C155      1.0  0.34768  0.27094000000000007  0.94438  1.0000
  C   C156      1.0  0.38797000000000004  0.31394000000000005  0.9673100000000002  1.0000
  C   C157      1.0  0.44053000000000003  0.3322  0.93829  1.0000
  C   C158      1.0  0.47741  0.37302  0.9664600000000001  1.0000
  C   C159      1.0  0.46443  0.39487000000000005  0.02188  1.0000
  C   C160      1.0  0.41327  0.37646  0.05101  1.0000
  C   C161      1.0  0.3755  0.3372200000000001  0.023690000000000003  1.0000
  C   C162      1.0  0.54229  0.39860000000000007  0.74745  1.0000
  C   C163      1.0  0.49015  0.37638  0.71893  1.0000
  C   C164      1.0  0.45991  0.3229  0.7330600000000002  1.0000
  C   C165      1.0  0.41029000000000004  0.30774  0.6992900000000001  1.0000
  C   C166      1.0  0.38950000000000007  0.34283  0.6541400000000002  1.0000
  C   C167      1.0  0.41855  0.39541  0.64059  1.0000
  C   C168      1.0  0.46789000000000003  0.41137  0.6724100000000001  1.0000
  C   C169      1.0  0.3311  0.16901  0.8309200000000001  1.0000
  C   C170      1.0  0.1689  0.831  0.33082  1.0000
  C   C171      1.0  0.66882  0.66947  0.66888  1.0000
  C   C172      1.0  0.8308100000000002  0.33126000000000005  0.16876  1.0000
  C   C173      1.0  0.3635  0.86354  0.63663  1.0000
  C   C174      1.0  0.13613  0.13621  0.13619  1.0000
  C   C175      1.0  0.63642  0.3633900000000001  0.86359  1.0000
  C   C176      1.0  0.86388  0.6362400000000001  0.3639  1.0000
  N   N1        1.0  0.37969  0.18537000000000003  0.80027  1.0000
  N   N2        1.0  0.39432999999999996  0.14666000000000004  0.75657  1.0000
  N   N3        1.0  0.31614  0.8822400000000001  0.60488  1.0000
  N   N4        1.0  0.29261  0.9329700000000001  0.62636  1.0000
  N   N5        1.0  0.12022  0.81471  0.30024000000000006  1.0000
  N   N6        1.0  0.10552000000000002  0.8534700000000002  0.25665  1.0000
  N   N7        1.0  0.18429  0.11835  0.10527  1.0000
  N   N8        1.0  0.20839  0.06827  0.12733  1.0000
  N   N9        1.0  0.62049  0.68618  0.69991  1.0000
  N   N10       1.0  0.60557  0.64727  0.7433400000000002  1.0000
  N   N11       1.0  0.68536  0.38071  0.8935400000000002  1.0000
  N   N12       1.0  0.70865  0.43147  0.8722300000000002  1.0000
  N   N13       1.0  0.87935  0.31487  0.19954000000000002  1.0000
  N   N14       1.0  0.89413  0.35371  0.24292000000000005  1.0000
  N   N15       1.0  0.81569  0.61856  0.39480000000000004  1.0000
  N   N16       1.0  0.79156  0.5683900000000001  0.37298  1.0000
  N   N17       1.0  0.80012  0.37984000000000007  0.18508  1.0000
  N   N18       1.0  0.7563300000000001  0.39422  0.14643  1.0000
  N   N19       1.0  0.60588  0.31503  0.88138  1.0000
  N   N20       1.0  0.62846  0.2907100000000001  0.9309800000000001  1.0000
  N   N21       1.0  0.30025  0.1205  0.81439  1.0000
  N   N22       1.0  0.25687  0.10564  0.85328  1.0000
  N   N23       1.0  0.10516999999999999  0.18431000000000006  0.11836  1.0000
  N   N24       1.0  0.12716  0.20844000000000001  0.06827  1.0000
  N   N25       1.0  0.69951  0.6208300000000001  0.68513  1.0000
  N   N26       1.0  0.74293  0.60605  0.6463200000000001  1.0000
  N   N27       1.0  0.8946899999999999  0.6845300000000001  0.38158  1.0000
  N   N28       1.0  0.8727300000000001  0.70859  0.4317  1.0000
  N   N29       1.0  0.19988000000000003  0.87942  0.31424  1.0000
  N   N30       1.0  0.24337000000000003  0.89425  0.35310000000000014  1.0000
  N   N31       1.0  0.39336000000000004  0.81451  0.61936  1.0000
  N   N32       1.0  0.3720399999999999  0.79121  0.56863  1.0000
  N   N33       1.0  0.1852  0.8002600000000002  0.37938000000000005  1.0000
  N   N34       1.0  0.1464  0.7567600000000002  0.39413000000000004  1.0000
  N   N35       1.0  0.88172  0.6052400000000001  0.31578  1.0000
  N   N36       1.0  0.9318  0.62724  0.29162000000000005  1.0000
  N   N37       1.0  0.81437  0.3004  0.12025  1.0000
  N   N38       1.0  0.85327  0.25694  0.10547  1.0000
  N   N39       1.0  0.11842  0.10546000000000001  0.18446  1.0000
  N   N40       1.0  0.06825  0.12739  0.20844000000000001  1.0000
  N   N41       1.0  0.68505  0.69997  0.62018  1.0000
  N   N42       1.0  0.64647  0.7438700000000001  0.6057700000000001  1.0000
  N   N43       1.0  0.38145  0.89425  0.6848400000000001  1.0000
  N   N44       1.0  0.43104000000000003  0.87164  0.70914  1.0000
  N   N45       1.0  0.31478  0.19973000000000002  0.8795100000000001  1.0000
  N   N46       1.0  0.35342000000000007  0.24349  0.8940400000000002  1.0000
  N   N47       1.0  0.61764  0.3952500000000001  0.8163300000000001  1.0000
  N   N48       1.0  0.56709  0.37363  0.79258  1.0000
  O   O1        1.0  0.38556  0.0444  0.68784  1.0000
  O   O2        1.0  0.60675  0.10111000000000003  0.6041100000000001  1.0000
  O   O3        1.0  0.27643  0.02379  0.7139800000000002  1.0000
  O   O4        1.0  0.09524  0.10422000000000001  0.5714  1.0000
  O   O5        1.0  0.11442  0.9556800000000001  0.18788  1.0000
  O   O6        1.0  0.89327  0.8988800000000002  0.10412  1.0000
  O   O7        1.0  0.22336  0.9765100000000001  0.21389000000000002  1.0000
  O   O8        1.0  0.4047  0.8958100000000002  0.07149  1.0000
  O   O9        1.0  0.6138  0.5440500000000001  0.8111500000000001  1.0000
  O   O10       1.0  0.39317  0.6012200000000001  0.8958900000000001  1.0000
  O   O11       1.0  0.72277  0.52305  0.78765  1.0000
  O   O12       1.0  0.90475  0.60422  0.92838  1.0000
  O   O13       1.0  0.88488  0.45580000000000004  0.31226  1.0000
  O   O14       1.0  0.10637  0.39883  0.39579000000000003  1.0000
  O   O15       1.0  0.77547  0.47863  0.28591  1.0000
  O   O16       1.0  0.59531  0.39574000000000004  0.4285100000000001  1.0000
  O   O17       1.0  0.68759  0.3852  0.044320000000000005  1.0000
  O   O18       1.0  0.60412  0.6067500000000001  0.10119  1.0000
  O   O19       1.0  0.71436  0.27640000000000003  0.0235  1.0000
  O   O20       1.0  0.57146  0.09534000000000001  0.10418000000000002  1.0000
  O   O21       1.0  0.18794  0.11469  0.9557200000000002  1.0000
  O   O22       1.0  0.10415  0.8932900000000001  0.8988300000000002  1.0000
  O   O23       1.0  0.21374  0.22362000000000004  0.97703  1.0000
  O   O24       1.0  0.07147  0.40469000000000005  0.89579  1.0000
  O   O25       1.0  0.8122  0.6150400000000001  0.5443400000000002  1.0000
  O   O26       1.0  0.89579  0.39361  0.60117  1.0000
  O   O27       1.0  0.7861000000000001  0.7237100000000002  0.52324  1.0000
  O   O28       1.0  0.92858  0.9047900000000001  0.60428  1.0000
  O   O29       1.0  0.31161  0.8859400000000002  0.45597  1.0000
  O   O30       1.0  0.39589  0.10683000000000001  0.3988000000000001  1.0000
  O   O31       1.0  0.2872  0.7770200000000002  0.47705000000000003  1.0000
  O   O32       1.0  0.42839  0.59525  0.3957500000000001  1.0000
  O   O33       1.0  0.04429000000000001  0.68779  0.38532000000000005  1.0000
  O   O34       1.0  0.10112  0.60416  0.60656  1.0000
  O   O35       1.0  0.023419999999999996  0.7138700000000001  0.27653000000000005  1.0000
  O   O36       1.0  0.10421  0.57142  0.09526000000000001  1.0000
  O   O37       1.0  0.9557  0.18795000000000003  0.11448000000000001  1.0000
  O   O38       1.0  0.8988700000000001  0.10410000000000003  0.8932200000000002  1.0000
  O   O39       1.0  0.97665  0.21374000000000007  0.22345  1.0000
  O   O40       1.0  0.89578  0.07147  0.40471000000000007  1.0000
  O   O41       1.0  0.54433  0.8124300000000001  0.61467  1.0000
  O   O42       1.0  0.60113  0.89589  0.3932300000000001  1.0000
  O   O43       1.0  0.5236  0.7854800000000002  0.7234000000000002  1.0000
  O   O44       1.0  0.60416  0.9284400000000003  0.90458  1.0000
  O   O45       1.0  0.4556  0.31220000000000003  0.88531  1.0000
  O   O46       1.0  0.3989  0.39589000000000013  0.1067  1.0000
  O   O47       1.0  0.47622  0.28595  0.77639  1.0000
  O   O48       1.0  0.39581  0.4286200000000001  0.59524  1.0000
