data_image0
_chemical_formula_structural       Cu28H168C240N144
_chemical_formula_sum              "Cu28 H168 C240 N144"
_cell_length_a       17.45014
_cell_length_b       22.92944
_cell_length_c       24.149600000000003
_cell_angle_alpha    90.0
_cell_angle_beta     89.99051
_cell_angle_gamma    90.0

_symmetry_space_group_name_H-M    'P 1'
_symmetry_Int_Tables_number       1

loop_
  _symmetry_equiv_pos_as_xyz
  'x,y,z'

loop_
  _atom_site_type_symbol
  _atom_site_label
  _atom_site_symmetry_multiplicity
  _atom_site_fract_x
  _atom_site_fract_y
  _atom_site_fract_z
  _atom_site_occupancy
  Cu  Cu1       1.0  0.54478  0.34266  0.24545  1.0000
  Cu  Cu2       1.0  0.051519999999999996  0.69217  0.24957  1.0000
  Cu  Cu3       1.0  0.039169999999999996  0.64  0.10928  1.0000
  Cu  Cu4       1.0  0.5776799999999999  0.38994  0.10453  1.0000
  Cu  Cu5       1.0  0.27163  0.49302  0.24029  1.0000
  Cu  Cu6       1.0  0.8000299999999999  0.51728  0.21647  1.0000
  Cu  Cu7       1.0  0.18509999999999993  0.52448  0.1289  1.0000
  Cu  Cu8       1.0  0.45524  0.8426599999999999  0.75455  1.0000
  Cu  Cu9       1.0  0.9484899999999999  0.19217  0.75042  1.0000
  Cu  Cu10      1.0  0.9608299999999999  0.13999  0.89072  1.0000
  Cu  Cu11      1.0  0.4223499999999999  0.88994  0.8954600000000001  1.0000
  Cu  Cu12      1.0  0.72838  0.99302  0.75971  1.0000
  Cu  Cu13      1.0  0.19997999999999996  0.01727  0.78352  1.0000
  Cu  Cu14      1.0  0.8149  0.02449  0.87109  1.0000
  Cu  Cu15      1.0  0.95528  0.34266  0.74543  1.0000
  Cu  Cu16      1.0  0.4484799999999999  0.69221  0.7495500000000002  1.0000
  Cu  Cu17      1.0  0.46087999999999996  0.63999  0.60931  1.0000
  Cu  Cu18      1.0  0.92283  0.39003000000000004  0.60459  1.0000
  Cu  Cu19      1.0  0.22847  0.49305  0.74028  1.0000
  Cu  Cu20      1.0  0.69993  0.5172  0.71633  1.0000
  Cu  Cu21      1.0  0.31493  0.52452  0.6289  1.0000
  Cu  Cu22      1.0  0.04473  0.8426599999999999  0.25456  1.0000
  Cu  Cu23      1.0  0.55153  0.19221  0.25045  1.0000
  Cu  Cu24      1.0  0.5391199999999998  0.13999  0.39068  1.0000
  Cu  Cu25      1.0  0.07718  0.89003  0.39540999999999993  1.0000
  Cu  Cu26      1.0  0.7715299999999998  0.9930500000000001  0.25971  1.0000
  Cu  Cu27      1.0  0.30007  0.0172  0.28366  1.0000
  Cu  Cu28      1.0  0.68508  0.024520000000000004  0.37109  1.0000
  H   H1        1.0  0.0411  0.6959  0.48582  1.0000
  H   H2        1.0  0.0345  0.60047  0.53458  1.0000
  H   H3        1.0  0.02764  0.51256  0.37695  1.0000
  H   H4        1.0  0.03849  0.60788  0.32865  1.0000
  H   H5        1.0  0.053319999999999985  0.93654  0.97016  1.0000
  H   H6        1.0  0.05929999999999999  0.92467  0.17557  1.0000
  H   H7        1.0  0.04478999999999999  0.84113  0.01659  1.0000
  H   H8        1.0  0.06554  0.02043  0.13048  1.0000
  H   H9        1.0  0.36561999999999995  0.31223  0.33572  1.0000
  H   H10       1.0  0.33823999999999993  0.32296  0.43569  1.0000
  H   H11       1.0  0.09767  0.44132  0.4375  1.0000
  H   H12       1.0  0.95029  0.51992  0.55539  1.0000
  H   H13       1.0  0.39583  0.49816000000000005  0.32085  1.0000
  H   H14       1.0  0.37102  0.5095  0.4208299999999999  1.0000
  H   H15       1.0  0.08127  0.10065  0.08788  1.0000
  H   H16       1.0  0.20209999999999995  0.71004  0.32464  1.0000
  H   H17       1.0  0.22681  0.52443  0.35088  1.0000
  H   H18       1.0  0.25765  0.54319  0.4499  1.0000
  H   H19       1.0  0.38665  0.60325  0.49066  1.0000
  H   H20       1.0  0.04453  0.18384  0.00864  1.0000
  H   H21       1.0  0.18756  0.6983800000000001  0.53282  1.0000
  H   H22       1.0  0.85239  0.54977  0.33245  1.0000
  H   H23       1.0  0.6965  0.32034  0.29267  1.0000
  H   H24       1.0  0.90351  0.72167  0.27031  1.0000
  H   H25       1.0  0.7352299999999998  0.29711  0.38917  1.0000
  H   H26       1.0  0.87256  0.43113  0.48066000000000003  1.0000
  H   H27       1.0  0.2870199999999999  0.69315  0.62411  1.0000
  H   H28       1.0  0.68794  0.31116  0.48680000000000007  1.0000
  H   H29       1.0  0.8656  0.76448  0.36012  1.0000
  H   H30       1.0  0.7377899999999997  0.50266  0.32379  1.0000
  H   H31       1.0  0.23393  0.7277500000000001  0.42382  1.0000
  H   H32       1.0  0.7135699999999998  0.66748  0.4730500000000001  1.0000
  H   H33       1.0  0.8137099999999999  0.59269  0.42286  1.0000
  H   H34       1.0  0.77604  0.47957000000000005  0.42021  1.0000
  H   H35       1.0  0.05709  0.3599899999999999  0.51848  1.0000
  H   H36       1.0  0.84844  0.79195  0.55574  1.0000
  H   H37       1.0  0.75497  0.32167  0.59151  1.0000
  H   H38       1.0  0.02285999999999999  0.01817  0.9360400000000001  1.0000
  H   H39       1.0  0.9223100000000001  0.7605  0.45748  1.0000
  H   H40       1.0  0.21881999999999993  0.41594000000000003  0.60043  1.0000
  H   H41       1.0  0.24160999999999996  0.35972  0.49935  1.0000
  H   H42       1.0  0.39867  0.50025  0.51405  1.0000
  H   H43       1.0  0.9589099999999999  0.19589999999999996  0.51418  1.0000
  H   H44       1.0  0.9655  0.10046  0.46541000000000005  1.0000
  H   H45       1.0  0.97236  0.012560000000000002  0.62304  1.0000
  H   H46       1.0  0.9615199999999999  0.10787000000000001  0.67135  1.0000
  H   H47       1.0  0.9466999999999999  0.43654  0.02983  1.0000
  H   H48       1.0  0.9407099999999999  0.42467  0.82442  1.0000
  H   H49       1.0  0.95523  0.34113  0.9834  1.0000
  H   H50       1.0  0.93447  0.52044  0.86952  1.0000
  H   H51       1.0  0.6343899999999998  0.81224  0.66427  1.0000
  H   H52       1.0  0.66176  0.82297  0.5643  1.0000
  H   H53       1.0  0.90234  0.94132  0.5625  1.0000
  H   H54       1.0  0.04972  0.01992  0.4446  1.0000
  H   H55       1.0  0.60417  0.9981600000000002  0.67914  1.0000
  H   H56       1.0  0.62899  0.0095  0.57916  1.0000
  H   H57       1.0  0.91874  0.60065  0.9121200000000002  1.0000
  H   H58       1.0  0.79791  0.21004  0.67536  1.0000
  H   H59       1.0  0.7732  0.02443  0.64912  1.0000
  H   H60       1.0  0.74236  0.04319  0.55009  1.0000
  H   H61       1.0  0.61336  0.10325  0.50933  1.0000
  H   H62       1.0  0.95548  0.68384  0.99136  1.0000
  H   H63       1.0  0.81244  0.19837999999999997  0.46717  1.0000
  H   H64       1.0  0.14760999999999996  0.049760000000000006  0.6675400000000001  1.0000
  H   H65       1.0  0.30351  0.8203400000000001  0.70733  1.0000
  H   H66       1.0  0.0965  0.22166999999999998  0.72969  1.0000
  H   H67       1.0  0.2647699999999999  0.7971100000000001  0.61083  1.0000
  H   H68       1.0  0.12745  0.93113  0.51934  1.0000
  H   H69       1.0  0.71299  0.19316  0.37588  1.0000
  H   H70       1.0  0.31207  0.8111600000000001  0.5132  1.0000
  H   H71       1.0  0.13441  0.26448  0.63988  1.0000
  H   H72       1.0  0.26222  0.00265  0.67621  1.0000
  H   H73       1.0  0.76608  0.22775  0.57617  1.0000
  H   H74       1.0  0.2864399999999999  0.16748  0.52695  1.0000
  H   H75       1.0  0.18628999999999996  0.09269  0.57713  1.0000
  H   H76       1.0  0.22397  0.97956  0.57979  1.0000
  H   H77       1.0  0.94292  0.8599900000000001  0.48151  1.0000
  H   H78       1.0  0.15156  0.29195  0.44425  1.0000
  H   H79       1.0  0.24504  0.82168  0.40849  1.0000
  H   H80       1.0  0.97715  0.51817  0.06395  1.0000
  H   H81       1.0  0.07768999999999997  0.2605  0.54252  1.0000
  H   H82       1.0  0.78119  0.91594  0.39957000000000004  1.0000
  H   H83       1.0  0.75839  0.85973  0.50064  1.0000
  H   H84       1.0  0.60133  0.00025  0.4859399999999999  1.0000
  H   H85       1.0  0.45916  0.69599  0.9859000000000001  1.0000
  H   H86       1.0  0.4657899999999999  0.60059  0.03467  1.0000
  H   H87       1.0  0.47228  0.51261  0.8770700000000001  1.0000
  H   H88       1.0  0.4614599999999999  0.60786  0.82874  1.0000
  H   H89       1.0  0.44661999999999996  0.93643  0.4701000000000001  1.0000
  H   H90       1.0  0.44078  0.92465  0.67553  1.0000
  H   H91       1.0  0.45515  0.84105  0.51657  1.0000
  H   H92       1.0  0.43449  0.02039  0.6304  1.0000
  H   H93       1.0  0.13434  0.31223  0.83571  1.0000
  H   H94       1.0  0.16155  0.32296  0.9357  1.0000
  H   H95       1.0  0.4024  0.44143000000000004  0.9376899999999999  1.0000
  H   H96       1.0  0.55005  0.51988  0.05548999999999999  1.0000
  H   H97       1.0  0.10432  0.49817999999999996  0.82087  1.0000
  H   H98       1.0  0.12901999999999994  0.50948  0.92086  1.0000
  H   H99       1.0  0.41876  0.10054  0.58781  1.0000
  H   H100      1.0  0.29793  0.71005  0.8246100000000001  1.0000
  H   H101      1.0  0.2733  0.52445  0.8508499999999999  1.0000
  H   H102      1.0  0.24250999999999998  0.54318  0.94991  1.0000
  H   H103      1.0  0.11345  0.60327  0.99061  1.0000
  H   H104      1.0  0.4555199999999999  0.18373  0.50856  1.0000
  H   H105      1.0  0.31249  0.69836  0.03286  1.0000
  H   H106      1.0  0.64767  0.54968  0.83243  1.0000
  H   H107      1.0  0.80339  0.32014  0.79266  1.0000
  H   H108      1.0  0.59654  0.72153  0.77025  1.0000
  H   H109      1.0  0.7647999999999997  0.29703  0.88919  1.0000
  H   H110      1.0  0.6278999999999998  0.4313  0.98083  1.0000
  H   H111      1.0  0.21297  0.69311  0.12413  1.0000
  H   H112      1.0  0.8122599999999998  0.31107  0.9866900000000001  1.0000
  H   H113      1.0  0.6345199999999998  0.7644000000000001  0.86002  1.0000
  H   H114      1.0  0.7622799999999998  0.50252  0.82365  1.0000
  H   H115      1.0  0.26631  0.7277500000000001  0.92386  1.0000
  H   H116      1.0  0.78649  0.66735  0.9729499999999999  1.0000
  H   H117      1.0  0.6864  0.59262  0.9227899999999999  1.0000
  H   H118      1.0  0.72422  0.47952  0.9201600000000001  1.0000
  H   H119      1.0  0.4431099999999999  0.36003  0.01855  1.0000
  H   H120      1.0  0.6516399999999998  0.79187  0.0557  1.0000
  H   H121      1.0  0.7454199999999997  0.3217  0.09152  1.0000
  H   H122      1.0  0.47702999999999995  0.01802  0.4359799999999999  1.0000
  H   H123      1.0  0.5779199999999998  0.7605400000000001  0.9573599999999999  1.0000
  H   H124      1.0  0.281  0.41575  0.10047  1.0000
  H   H125      1.0  0.25812  0.3595400000000001  0.99939  1.0000
  H   H126      1.0  0.10149999999999999  0.50034  0.01395  1.0000
  H   H127      1.0  0.54085  0.19598999999999997  0.0141  1.0000
  H   H128      1.0  0.53422  0.10059  0.96532  1.0000
  H   H129      1.0  0.52771  0.01261  0.12293  1.0000
  H   H130      1.0  0.53854  0.10786000000000001  0.17126  1.0000
  H   H131      1.0  0.55338  0.43643000000000004  0.52989  1.0000
  H   H132      1.0  0.55923  0.42465  0.32446  1.0000
  H   H133      1.0  0.54486  0.34105  0.48341999999999996  1.0000
  H   H134      1.0  0.56551  0.52039  0.36959  1.0000
  H   H135      1.0  0.86567  0.81223  0.16428  1.0000
  H   H136      1.0  0.83845  0.82297  0.0643  1.0000
  H   H137      1.0  0.5976  0.9414400000000002  0.06230999999999999  1.0000
  H   H138      1.0  0.44997  0.01988  0.9445  1.0000
  H   H139      1.0  0.8956899999999998  0.99818  0.17912  1.0000
  H   H140      1.0  0.87098  0.00948  0.07913  1.0000
  H   H141      1.0  0.58125  0.60055  0.41219  1.0000
  H   H142      1.0  0.70208  0.21005  0.17539  1.0000
  H   H143      1.0  0.7266999999999998  0.024450000000000003  0.14914  1.0000
  H   H144      1.0  0.75749  0.04318  0.05007999999999999  1.0000
  H   H145      1.0  0.8865499999999997  0.10327  0.00939  1.0000
  H   H146      1.0  0.54448  0.68373  0.49143  1.0000
  H   H147      1.0  0.68752  0.19836000000000004  0.96713  1.0000
  H   H148      1.0  0.35234  0.04968  0.16757  1.0000
  H   H149      1.0  0.19661999999999993  0.82014  0.20733  1.0000
  H   H150      1.0  0.40347  0.22153  0.22974999999999998  1.0000
  H   H151      1.0  0.23521  0.79703  0.1108  1.0000
  H   H152      1.0  0.37211999999999995  0.9313  0.01918  1.0000
  H   H153      1.0  0.78704  0.19312  0.87586  1.0000
  H   H154      1.0  0.18776  0.8110800000000001  0.0133  1.0000
  H   H155      1.0  0.36549  0.2644  0.13997  1.0000
  H   H156      1.0  0.23772999999999997  0.00252  0.17635000000000003  1.0000
  H   H157      1.0  0.7337  0.22775  0.07613  1.0000
  H   H158      1.0  0.21350999999999995  0.16736  0.02704  1.0000
  H   H159      1.0  0.3136099999999999  0.09263  0.07721  1.0000
  H   H160      1.0  0.2758  0.9795200000000001  0.07984  1.0000
  H   H161      1.0  0.5568999999999998  0.8600300000000001  0.9814499999999999  1.0000
  H   H162      1.0  0.34837  0.29187  0.9442899999999999  1.0000
  H   H163      1.0  0.2546  0.82171  0.90848  1.0000
  H   H164      1.0  0.52297  0.51802  0.56401  1.0000
  H   H165      1.0  0.42208999999999997  0.26054  0.042629999999999994  1.0000
  H   H166      1.0  0.719  0.9157600000000001  0.8995300000000002  1.0000
  H   H167      1.0  0.74189  0.8595500000000001  0.00061  1.0000
  H   H168      1.0  0.89851  0.00034  0.98604  1.0000
  C   C1        1.0  0.0458  0.81822  0.12484  1.0000
  C   C2        1.0  0.04608  0.71572  0.37844  1.0000
  C   C3        1.0  0.039769999999999986  0.65846  0.40403  1.0000
  C   C4        1.0  0.03794  0.65554  0.46235  1.0000
  C   C5        1.0  0.03367999999999999  0.60241  0.4896  1.0000
  C   C6        1.0  0.030229999999999996  0.55075  0.4586700000000001  1.0000
  C   C7        1.0  0.03149  0.55271  0.40076  1.0000
  C   C8        1.0  0.03683  0.60622  0.37366  1.0000
  C   C9        1.0  0.05136  0.8758  0.09953000000000001  1.0000
  C   C10       1.0  0.05395  0.93456  0.015139999999999999  1.0000
  C   C11       1.0  0.05831999999999999  0.92731  0.13057  1.0000
  C   C12       1.0  0.05854  0.98587  0.04693  1.0000
  C   C13       1.0  0.04978  0.88066  0.0412  1.0000
  C   C14       1.0  0.06205  0.98157  0.10484  1.0000
  C   C15       1.0  0.3810399999999999  0.40463000000000005  0.32128  1.0000
  C   C16       1.0  0.36640999999999996  0.35537  0.35446  1.0000
  C   C17       1.0  0.35096  0.36143  0.41080000000000005  1.0000
  C   C18       1.0  0.38566  0.40046  0.26105  1.0000
  C   C19       1.0  0.06066  0.44442  0.47327  1.0000
  C   C20       1.0  0.9852099999999999  0.487  0.5355  1.0000
  C   C21       1.0  0.35156  0.4174300000000001  0.43446  1.0000
  C   C22       1.0  0.3836  0.45997  0.34614  1.0000
  C   C23       1.0  0.37012  0.46634000000000003  0.40242000000000006  1.0000
  C   C24       1.0  0.06317  0.096  0.04535  1.0000
  C   C25       1.0  0.19473999999999994  0.60763  0.27317  1.0000
  C   C26       1.0  0.21480999999999997  0.67376  0.35207999999999995  1.0000
  C   C27       1.0  0.21331  0.61624  0.33046  1.0000
  C   C28       1.0  0.22999999999999998  0.56898  0.36629  1.0000
  C   C29       1.0  0.24765  0.57915  0.42143  1.0000
  C   C30       1.0  0.25055  0.63646  0.4416800000000001  1.0000
  C   C31       1.0  0.34586  0.62624  0.51632  1.0000
  C   C32       1.0  0.045319999999999985  0.13672  0.00552  1.0000
  C   C33       1.0  0.24314999999999998  0.67838  0.53857  1.0000
  C   C34       1.0  0.8801499999999998  0.63262  0.29512  1.0000
  C   C35       1.0  0.85228  0.59686  0.33792  1.0000
  C   C36       1.0  0.7149299999999998  0.35499  0.32037  1.0000
  C   C37       1.0  0.88286  0.69338  0.30331  1.0000
  C   C38       1.0  0.7583799999999999  0.38689  0.41046000000000005  1.0000
  C   C39       1.0  0.73649  0.34192  0.3744  1.0000
  C   C40       1.0  0.83154  0.40078  0.4979  1.0000
  C   C41       1.0  0.83719  0.68111  0.39698  1.0000
  C   C42       1.0  0.29269  0.67552  0.58279  1.0000
  C   C43       1.0  0.91357  0.60842  0.24468  1.0000
  C   C44       1.0  0.73587  0.33672  0.50166  1.0000
  C   C45       1.0  0.8615799999999998  0.71754  0.35381999999999997  1.0000
  C   C46       1.0  0.73998  0.45749000000000006  0.33753  1.0000
  C   C47       1.0  0.23281  0.68377  0.40707000000000004  1.0000
  C   C48       1.0  0.68455  0.42818000000000006  0.24719  1.0000
  C   C49       1.0  0.71464  0.41313  0.30153  1.0000
  C   C50       1.0  0.75905  0.6977  0.48363  1.0000
  C   C51       1.0  0.83084  0.62079  0.38872000000000007  1.0000
  C   C52       1.0  0.76143  0.44470000000000004  0.39157  1.0000
  C   C53       1.0  0.04086  0.40525  0.51386  1.0000
  C   C54       1.0  0.83005  0.76211  0.52358  1.0000
  C   C55       1.0  0.7699099999999999  0.3424  0.55272  1.0000
  C   C56       1.0  0.03237  0.051870000000000006  0.9665499999999999  1.0000
  C   C57       1.0  0.8676799999999999  0.74792  0.4753  1.0000
  C   C58       1.0  0.35238999999999987  0.47082  0.52403  1.0000
  C   C59       1.0  0.25971  0.42449  0.56745  1.0000
  C   C60       1.0  0.27053  0.39655999999999997  0.51795  1.0000
  C   C61       1.0  0.95421  0.31822  0.8751499999999999  1.0000
  C   C62       1.0  0.9539299999999998  0.21572000000000002  0.62156  1.0000
  C   C63       1.0  0.9602299999999999  0.15846  0.59596  1.0000
  C   C64       1.0  0.96207  0.15554  0.53764  1.0000
  C   C65       1.0  0.96633  0.10241  0.51039  1.0000
  C   C66       1.0  0.96977  0.05074  0.54133  1.0000
  C   C67       1.0  0.96852  0.05271000000000001  0.59923  1.0000
  C   C68       1.0  0.9631799999999999  0.10622  0.62633  1.0000
  C   C69       1.0  0.94865  0.3758  0.90047  1.0000
  C   C70       1.0  0.94606  0.43456  0.9848499999999999  1.0000
  C   C71       1.0  0.94169  0.42731  0.86942  1.0000
  C   C72       1.0  0.9414799999999999  0.4858700000000001  0.95306  1.0000
  C   C73       1.0  0.9502299999999999  0.38065999999999994  0.9588000000000001  1.0000
  C   C74       1.0  0.93796  0.48157  0.89515  1.0000
  C   C75       1.0  0.61897  0.90463  0.67872  1.0000
  C   C76       1.0  0.6335999999999998  0.85538  0.64553  1.0000
  C   C77       1.0  0.64905  0.86143  0.5892  1.0000
  C   C78       1.0  0.61435  0.9004600000000001  0.73894  1.0000
  C   C79       1.0  0.9393499999999999  0.94442  0.52673  1.0000
  C   C80       1.0  0.014799999999999999  0.987  0.4645  1.0000
  C   C81       1.0  0.64845  0.91744  0.56553  1.0000
  C   C82       1.0  0.61641  0.95998  0.65385  1.0000
  C   C83       1.0  0.62989  0.96634  0.59757  1.0000
  C   C84       1.0  0.9368399999999999  0.59601  0.95465  1.0000
  C   C85       1.0  0.8052699999999999  0.10764  0.72683  1.0000
  C   C86       1.0  0.7851899999999999  0.17376  0.64791  1.0000
  C   C87       1.0  0.78669  0.11624  0.66954  1.0000
  C   C88       1.0  0.77  0.06898  0.6337  1.0000
  C   C89       1.0  0.7523499999999999  0.07915  0.57856  1.0000
  C   C90       1.0  0.74945  0.13646  0.55831  1.0000
  C   C91       1.0  0.65415  0.12624  0.48368  1.0000
  C   C92       1.0  0.95469  0.63672  0.99448  1.0000
  C   C93       1.0  0.75685  0.17838  0.46142  1.0000
  C   C94       1.0  0.11986  0.13261  0.70488  1.0000
  C   C95       1.0  0.14772  0.09686  0.66208  1.0000
  C   C96       1.0  0.2850799999999999  0.8549900000000001  0.67963  1.0000
  C   C97       1.0  0.11714999999999999  0.19338000000000002  0.6966900000000001  1.0000
  C   C98       1.0  0.24163  0.88688  0.58954  1.0000
  C   C99       1.0  0.2635099999999999  0.84192  0.6256  1.0000
  C   C100      1.0  0.16847  0.9007800000000001  0.5021  1.0000
  C   C101      1.0  0.16281  0.18111  0.60301  1.0000
  C   C102      1.0  0.70731  0.17552  0.4172  1.0000
  C   C103      1.0  0.08643999999999999  0.10842  0.75532  1.0000
  C   C104      1.0  0.26414  0.83672  0.49834  1.0000
  C   C105      1.0  0.13842999999999994  0.21754000000000004  0.64618  1.0000
  C   C106      1.0  0.26002  0.9574899999999998  0.66247  1.0000
  C   C107      1.0  0.7672  0.18377  0.59293  1.0000
  C   C108      1.0  0.31546  0.9281700000000002  0.75281  1.0000
  C   C109      1.0  0.28537  0.91313  0.69847  1.0000
  C   C110      1.0  0.24096  0.1977  0.51637  1.0000
  C   C111      1.0  0.16916  0.12078  0.61128  1.0000
  C   C112      1.0  0.23857999999999996  0.9447  0.60843  1.0000
  C   C113      1.0  0.95916  0.9052500000000001  0.48614  1.0000
  C   C114      1.0  0.16996  0.26211  0.47642  1.0000
  C   C115      1.0  0.23009999999999997  0.8424  0.44728  1.0000
  C   C116      1.0  0.96763  0.55188  0.03345  1.0000
  C   C117      1.0  0.13232  0.24792000000000003  0.52469  1.0000
  C   C118      1.0  0.6476099999999998  0.97082  0.47597  1.0000
  C   C119      1.0  0.7403  0.92449  0.43255  1.0000
  C   C120      1.0  0.72948  0.89656  0.48205  1.0000
  C   C121      1.0  0.45426  0.8182  0.62479  1.0000
  C   C122      1.0  0.4540499999999999  0.71577  0.87847  1.0000
  C   C123      1.0  0.46034  0.65852  0.9040999999999999  1.0000
  C   C124      1.0  0.46227  0.65563  0.96242  1.0000
  C   C125      1.0  0.46656999999999993  0.60251  0.9896900000000001  1.0000
  C   C126      1.0  0.46995  0.55082  0.9587900000000001  1.0000
  C   C127      1.0  0.46855  0.55276  0.90088  1.0000
  C   C128      1.0  0.46318999999999994  0.60626  0.87375  1.0000
  C   C129      1.0  0.4485899999999999  0.87576  0.59948  1.0000
  C   C130      1.0  0.44593999999999995  0.93448  0.51508  1.0000
  C   C131      1.0  0.44167  0.92727  0.63053  1.0000
  C   C132      1.0  0.4413899999999999  0.98579  0.54686  1.0000
  C   C133      1.0  0.45011  0.88059  0.54115  1.0000
  C   C134      1.0  0.43794  0.98152  0.60478  1.0000
  C   C135      1.0  0.11898999999999998  0.40464  0.82126  1.0000
  C   C136      1.0  0.13355  0.3553799999999999  0.85445  1.0000
  C   C137      1.0  0.14896  0.36143  0.91078  1.0000
  C   C138      1.0  0.11435  0.40051  0.76103  1.0000
  C   C139      1.0  0.43949  0.44451  0.9734100000000001  1.0000
  C   C140      1.0  0.5151  0.487  0.03557  1.0000
  C   C141      1.0  0.14845  0.41742000000000007  0.93446  1.0000
  C   C142      1.0  0.11646  0.45998  0.84615  1.0000
  C   C143      1.0  0.12992  0.4663300000000001  0.90243  1.0000
  C   C144      1.0  0.4368399999999999  0.09591  0.54527  1.0000
  C   C145      1.0  0.30536  0.60765  0.77316  1.0000
  C   C146      1.0  0.28525  0.67378  0.85208  1.0000
  C   C147      1.0  0.28675  0.61626  0.83045  1.0000
  C   C148      1.0  0.27009  0.56899  0.86629  1.0000
  C   C149      1.0  0.25246  0.57915  0.92144  1.0000
  C   C150      1.0  0.24954999999999997  0.63647  0.94169  1.0000
  C   C151      1.0  0.15419  0.62625  0.0163  1.0000
  C   C152      1.0  0.45466  0.13661  0.50543  1.0000
  C   C153      1.0  0.25687  0.67838  0.03859  1.0000
  C   C154      1.0  0.6198999999999998  0.63251  0.7950899999999999  1.0000
  C   C155      1.0  0.64778  0.59678  0.83789  1.0000
  C   C156      1.0  0.7850099999999998  0.35484  0.8203200000000002  1.0000
  C   C157      1.0  0.61719  0.69327  0.80326  1.0000
  C   C158      1.0  0.7417399999999998  0.38683  0.91043  1.0000
  C   C159      1.0  0.76352  0.34182  0.87438  1.0000
  C   C160      1.0  0.66889  0.40088  0.99798  1.0000
  C   C161      1.0  0.66288  0.68105  0.8969299999999999  1.0000
  C   C162      1.0  0.20731  0.6755  0.0828  1.0000
  C   C163      1.0  0.58642  0.60831  0.74468  1.0000
  C   C164      1.0  0.76442  0.33669  0.00162  1.0000
  C   C165      1.0  0.6384899999999998  0.71745  0.8537499999999999  1.0000
  C   C166      1.0  0.76003  0.45737  0.83742  1.0000
  C   C167      1.0  0.26731  0.68378  0.90707  1.0000
  C   C168      1.0  0.81538  0.42802  0.74708  1.0000
  C   C169      1.0  0.7853  0.41297  0.80144  1.0000
  C   C170      1.0  0.74103  0.69758  0.9835700000000002  1.0000
  C   C171      1.0  0.66922  0.62072  0.88867  1.0000
  C   C172      1.0  0.73868  0.4446300000000001  0.8915  1.0000
  C   C173      1.0  0.45938  0.40528  0.013929999999999998  1.0000
  C   C174      1.0  0.67007  0.76203  0.023530000000000002  1.0000
  C   C175      1.0  0.73052  0.34244  0.052730000000000006  1.0000
  C   C176      1.0  0.46748000000000006  0.05176  0.46645  1.0000
  C   C177      1.0  0.63248  0.7478999999999999  0.97523  1.0000
  C   C178      1.0  0.14766999999999997  0.47084  0.024  1.0000
  C   C179      1.0  0.24013999999999996  0.42435999999999996  0.06749  1.0000
  C   C180      1.0  0.22932999999999998  0.39643  0.01798  1.0000
  C   C181      1.0  0.54575  0.31819  0.37521  1.0000
  C   C182      1.0  0.5459599999999998  0.21577  0.12151999999999999  1.0000
  C   C183      1.0  0.5396699999999999  0.15852  0.0959  1.0000
  C   C184      1.0  0.5377399999999999  0.15563  0.03757  1.0000
  C   C185      1.0  0.53344  0.10251  0.01031  1.0000
  C   C186      1.0  0.53005  0.050820000000000004  0.04121  1.0000
  C   C187      1.0  0.53145  0.05276  0.09912  1.0000
  C   C188      1.0  0.5368199999999999  0.10626  0.12624  1.0000
  C   C189      1.0  0.5514199999999999  0.37576  0.40052  1.0000
  C   C190      1.0  0.5540699999999997  0.43448  0.48491999999999996  1.0000
  C   C191      1.0  0.55833  0.4272699999999999  0.36947  1.0000
  C   C192      1.0  0.5586099999999999  0.48579  0.45313  1.0000
  C   C193      1.0  0.5499  0.38059  0.45884  1.0000
  C   C194      1.0  0.56206  0.48152  0.39522  1.0000
  C   C195      1.0  0.88102  0.90465  0.17873  1.0000
  C   C196      1.0  0.86646  0.85538  0.14555  1.0000
  C   C197      1.0  0.85105  0.86143  0.08921  1.0000
  C   C198      1.0  0.8856699999999997  0.9005199999999999  0.23896  1.0000
  C   C199      1.0  0.56052  0.94451  0.02659  1.0000
  C   C200      1.0  0.48492  0.98701  0.96442  1.0000
  C   C201      1.0  0.85156  0.91743  0.06554  1.0000
  C   C202      1.0  0.8835499999999998  0.95998  0.15385  1.0000
  C   C203      1.0  0.8700899999999998  0.96634  0.09757  1.0000
  C   C204      1.0  0.56316  0.59591  0.45472  1.0000
  C   C205      1.0  0.6946499999999998  0.10765  0.22683  1.0000
  C   C206      1.0  0.71476  0.17378  0.14792  1.0000
  C   C207      1.0  0.71326  0.11626  0.16954  1.0000
  C   C208      1.0  0.72992  0.06899  0.1337  1.0000
  C   C209      1.0  0.7475499999999998  0.07916  0.07855  1.0000
  C   C210      1.0  0.75046  0.13647  0.05831  1.0000
  C   C211      1.0  0.8458199999999998  0.12625  0.9836900000000001  1.0000
  C   C212      1.0  0.54534  0.63661  0.49457  1.0000
  C   C213      1.0  0.7431399999999998  0.17839  0.9614100000000001  1.0000
  C   C214      1.0  0.3801099999999999  0.13251  0.20491  1.0000
  C   C215      1.0  0.35222  0.09678000000000002  0.16211  1.0000
  C   C216      1.0  0.215  0.85485  0.17967000000000002  1.0000
  C   C217      1.0  0.38281  0.19328000000000004  0.19673  1.0000
  C   C218      1.0  0.25828  0.8868300000000001  0.08956999999999998  1.0000
  C   C219      1.0  0.23648999999999998  0.84183  0.12561  1.0000
  C   C220      1.0  0.33114  0.9008799999999999  0.00202  1.0000
  C   C221      1.0  0.33713  0.18105  0.10307  1.0000
  C   C222      1.0  0.7927  0.1755  0.91719  1.0000
  C   C223      1.0  0.41359  0.10831  0.25531  1.0000
  C   C224      1.0  0.23560999999999999  0.83669  0.99837  1.0000
  C   C225      1.0  0.3615199999999999  0.21746000000000001  0.14624  1.0000
  C   C226      1.0  0.23998  0.9573700000000002  0.16257  1.0000
  C   C227      1.0  0.73269  0.18378  0.09292000000000002  1.0000
  C   C228      1.0  0.18463  0.92802  0.25291  1.0000
  C   C229      1.0  0.21470999999999996  0.9129700000000001  0.19856  1.0000
  C   C230      1.0  0.25898  0.19758  0.01643  1.0000
  C   C231      1.0  0.33078  0.12072  0.11132999999999998  1.0000
  C   C232      1.0  0.2613399999999999  0.94463  0.10849  1.0000
  C   C233      1.0  0.54064  0.90528  0.98607  1.0000
  C   C234      1.0  0.32994  0.26203  0.97646  1.0000
  C   C235      1.0  0.26951  0.84244  0.94726  1.0000
  C   C236      1.0  0.5325199999999998  0.55176  0.53355  1.0000
  C   C237      1.0  0.36752  0.2479  0.024770000000000004  1.0000
  C   C238      1.0  0.85234  0.97084  0.97599  1.0000
  C   C239      1.0  0.75986  0.9243700000000001  0.93251  1.0000
  C   C240      1.0  0.77067  0.89644  0.98202  1.0000
  N   N1        1.0  0.71301  0.47062  0.21371  1.0000
  N   N2        1.0  0.8871899999999999  0.56371  0.21331  1.0000
  N   N3        1.0  0.93558  0.55807  0.16936  1.0000
  N   N4        1.0  0.98917  0.59841  0.17426999999999998  1.0000
  N   N5        1.0  0.97805  0.62964  0.22177  1.0000
  N   N6        1.0  0.04851  0.8046399999999999  0.17973  1.0000
  N   N7        1.0  0.04243  0.74582  0.1819  1.0000
  N   N8        1.0  0.035349999999999986  0.72534  0.13033  1.0000
  N   N9        1.0  0.6234299999999998  0.40342  0.22243  1.0000
  N   N10       1.0  0.61686  0.43072  0.17218999999999998  1.0000
  N   N11       1.0  0.6696599999999998  0.47146  0.16702  1.0000
  N   N12       1.0  0.04836999999999999  0.7645899999999999  0.40965  1.0000
  N   N13       1.0  0.05788999999999999  0.78803  0.32196  1.0000
  N   N14       1.0  0.05147  0.7292100000000001  0.3238  1.0000
  N   N15       1.0  0.33738  0.43031  0.22737  1.0000
  N   N16       1.0  0.4316799999999999  0.3664  0.23024  1.0000
  N   N17       1.0  0.40936  0.3746  0.17646  1.0000
  N   N18       1.0  0.35356  0.41271  0.17461000000000002  1.0000
  N   N19       1.0  0.05599999999999999  0.8085900000000001  0.37363  1.0000
  N   N20       1.0  0.025019999999999994  0.49661000000000005  0.48725  1.0000
  N   N21       1.0  0.037659999999999985  0.7693400000000001  0.09401000000000001  1.0000
  N   N22       1.0  0.99365  0.43207  0.55229  1.0000
  N   N23       1.0  0.21067  0.55992  0.24122  1.0000
  N   N24       1.0  0.02603  0.10885  0.95662  1.0000
  N   N25       1.0  0.05455  0.04143  0.0205  1.0000
  N   N26       1.0  0.18422  0.57443  0.18913  1.0000
  N   N27       1.0  0.15531999999999996  0.62757  0.1897  1.0000
  N   N28       1.0  0.27736  0.64634  0.49643  1.0000
  N   N29       1.0  0.15946  0.64879  0.24104  1.0000
  N   N30       1.0  0.82189  0.7062700000000001  0.44971  1.0000
  N   N31       1.0  0.76214  0.73114  0.52829  1.0000
  N   N32       1.0  0.8298799999999997  0.38187  0.54987  1.0000
  N   N33       1.0  0.7754999999999999  0.37451000000000007  0.46674  1.0000
  N   N34       1.0  0.35659  0.64279  0.56855  1.0000
  N   N35       1.0  0.32914  0.42614  0.49049000000000004  1.0000
  N   N36       1.0  0.31101  0.47086  0.57091  1.0000
  N   N37       1.0  0.287  0.9706200000000001  0.78629  1.0000
  N   N38       1.0  0.11282  0.06371  0.78668  1.0000
  N   N39       1.0  0.06441999999999999  0.05807  0.83064  1.0000
  N   N40       1.0  0.01083  0.09841  0.82573  1.0000
  N   N41       1.0  0.021959999999999993  0.12963  0.7782199999999999  1.0000
  N   N42       1.0  0.95151  0.30463  0.82027  1.0000
  N   N43       1.0  0.95758  0.24581999999999998  0.8181000000000002  1.0000
  N   N44       1.0  0.96466  0.22533  0.86967  1.0000
  N   N45       1.0  0.3765799999999999  0.90342  0.77757  1.0000
  N   N46       1.0  0.38315  0.9307200000000001  0.8278000000000001  1.0000
  N   N47       1.0  0.33035  0.97145  0.83298  1.0000
  N   N48       1.0  0.95163  0.26459  0.59034  1.0000
  N   N49       1.0  0.94211  0.28803  0.67804  1.0000
  N   N50       1.0  0.94853  0.22921  0.6762  1.0000
  N   N51       1.0  0.66263  0.9303200000000001  0.7726199999999999  1.0000
  N   N52       1.0  0.56833  0.8664000000000001  0.76975  1.0000
  N   N53       1.0  0.59065  0.8746  0.8235300000000001  1.0000
  N   N54       1.0  0.64645  0.91271  0.8253799999999999  1.0000
  N   N55       1.0  0.94401  0.30859  0.62636  1.0000
  N   N56       1.0  0.97499  0.99661  0.51274  1.0000
  N   N57       1.0  0.9623499999999999  0.26934  0.90599  1.0000
  N   N58       1.0  0.00637  0.93207  0.44771  1.0000
  N   N59       1.0  0.78934  0.05993  0.75878  1.0000
  N   N60       1.0  0.97398  0.60885  0.04337  1.0000
  N   N61       1.0  0.94546  0.54143  0.9795  1.0000
  N   N62       1.0  0.81578  0.07443  0.81087  1.0000
  N   N63       1.0  0.8446799999999998  0.12757  0.8103  1.0000
  N   N64       1.0  0.72265  0.14634  0.50357  1.0000
  N   N65       1.0  0.8405399999999998  0.14879  0.7589600000000001  1.0000
  N   N66       1.0  0.17811  0.20627  0.55029  1.0000
  N   N67       1.0  0.23785999999999996  0.23114000000000004  0.47171  1.0000
  N   N68       1.0  0.17013  0.8818699999999999  0.45012  1.0000
  N   N69       1.0  0.22450999999999996  0.87451  0.53326  1.0000
  N   N70       1.0  0.6434199999999998  0.14279  0.43144  1.0000
  N   N71       1.0  0.67087  0.92614  0.5095  1.0000
  N   N72       1.0  0.689  0.97086  0.42908  1.0000
  N   N73       1.0  0.78687  0.47044  0.7136  1.0000
  N   N74       1.0  0.6126899999999998  0.56358  0.71329  1.0000
  N   N75       1.0  0.56425  0.55799  0.66937  1.0000
  N   N76       1.0  0.51073  0.59839  0.6743300000000001  1.0000
  N   N77       1.0  0.52194  0.62959  0.72182  1.0000
  N   N78       1.0  0.45169  0.80461  0.67967  1.0000
  N   N79       1.0  0.4578199999999999  0.7458  0.68183  1.0000
  N   N80       1.0  0.46481  0.7253199999999999  0.63025  1.0000
  N   N81       1.0  0.8766399999999998  0.40341  0.72238  1.0000
  N   N82       1.0  0.8832799999999997  0.43077  0.67218  1.0000
  N   N83       1.0  0.8303699999999999  0.47141  0.66697  1.0000
  N   N84       1.0  0.45149  0.76464  0.90968  1.0000
  N   N85       1.0  0.4422899999999999  0.78806  0.82196  1.0000
  N   N86       1.0  0.44885  0.72924  0.8238100000000002  1.0000
  N   N87       1.0  0.16261  0.4304  0.72736  1.0000
  N   N88       1.0  0.06832  0.36647  0.73022  1.0000
  N   N89       1.0  0.09063999999999997  0.37470000000000003  0.67643  1.0000
  N   N90       1.0  0.14644  0.4128200000000001  0.67459  1.0000
  N   N91       1.0  0.4438999999999999  0.80862  0.87364  1.0000
  N   N92       1.0  0.47518  0.49668  0.98739  1.0000
  N   N93       1.0  0.46238999999999997  0.76933  0.59393  1.0000
  N   N94       1.0  0.50669  0.43204999999999993  0.05232  1.0000
  N   N95       1.0  0.28948  0.55993  0.74121  1.0000
  N   N96       1.0  0.47386  0.10873000000000001  0.45651  1.0000
  N   N97       1.0  0.44536999999999993  0.04133  0.52041  1.0000
  N   N98       1.0  0.31583  0.57448  0.6891  1.0000
  N   N99       1.0  0.34465  0.62764  0.68966  1.0000
  N   N100      1.0  0.2227  0.64637  0.99643  1.0000
  N   N101      1.0  0.34057  0.64883  0.74102  1.0000
  N   N102      1.0  0.67822  0.70622  0.94964  1.0000
  N   N103      1.0  0.73793  0.73101  0.028249999999999997  1.0000
  N   N104      1.0  0.67062  0.38198000000000004  0.04995  1.0000
  N   N105      1.0  0.72479  0.37453000000000003  0.9667399999999999  1.0000
  N   N106      1.0  0.14343  0.64277  0.06854  1.0000
  N   N107      1.0  0.17086  0.42612  0.99049  1.0000
  N   N108      1.0  0.18896999999999997  0.47082  0.07091  1.0000
  N   N109      1.0  0.21314  0.97044  0.28639  1.0000
  N   N110      1.0  0.3873099999999999  0.06358  0.2867  1.0000
  N   N111      1.0  0.43575  0.05799  0.33062  1.0000
  N   N112      1.0  0.4892699999999999  0.09839  0.32567  1.0000
  N   N113      1.0  0.47805999999999993  0.12959  0.27817  1.0000
  N   N114      1.0  0.54832  0.30461  0.32032  1.0000
  N   N115      1.0  0.54218  0.2458  0.31817  1.0000
  N   N116      1.0  0.53519  0.22532000000000002  0.36975  1.0000
  N   N117      1.0  0.12337  0.90341  0.27761  1.0000
  N   N118      1.0  0.11673  0.9307599999999999  0.32782  1.0000
  N   N119      1.0  0.16963999999999996  0.97141  0.33302  1.0000
  N   N120      1.0  0.54852  0.26464  0.09031999999999998  1.0000
  N   N121      1.0  0.55772  0.28806  0.17803  1.0000
  N   N122      1.0  0.55116  0.22924000000000003  0.17618000000000003  1.0000
  N   N123      1.0  0.8374  0.9304000000000001  0.27264  1.0000
  N   N124      1.0  0.9316899999999999  0.86647  0.26978  1.0000
  N   N125      1.0  0.9093699999999998  0.8747000000000001  0.32356  1.0000
  N   N126      1.0  0.85357  0.9128199999999999  0.32541  1.0000
  N   N127      1.0  0.5561099999999999  0.30862  0.12636  1.0000
  N   N128      1.0  0.5248299999999999  0.9966800000000001  0.01261  1.0000
  N   N129      1.0  0.53762  0.26933  0.40606000000000003  1.0000
  N   N130      1.0  0.49333  0.9320500000000002  0.9476799999999999  1.0000
  N   N131      1.0  0.71053  0.05993  0.25878  1.0000
  N   N132      1.0  0.52614  0.60873  0.54348  1.0000
  N   N133      1.0  0.55463  0.54133  0.47958  1.0000
  N   N134      1.0  0.68418  0.07448  0.31089  1.0000
  N   N135      1.0  0.65536  0.12764  0.31033  1.0000
  N   N136      1.0  0.77731  0.14637  0.00357  1.0000
  N   N137      1.0  0.65944  0.14883  0.25897  1.0000
  N   N138      1.0  0.32179  0.20622  0.05035  1.0000
  N   N139      1.0  0.26207  0.23101  0.97175  1.0000
  N   N140      1.0  0.3294  0.88198  0.95004  1.0000
  N   N141      1.0  0.27524  0.87452  0.03325  1.0000
  N   N142      1.0  0.85658  0.14278  0.93145  1.0000
  N   N143      1.0  0.82915  0.9261200000000002  0.00951  1.0000
  N   N144      1.0  0.8110299999999998  0.97082  0.9290799999999999  1.0000
