data_image0
_chemical_formula_structural       Zn4H176Ir8C272N32O32
_chemical_formula_sum              "Zn4 H176 Ir8 C272 N32 O32"
_cell_length_a       17.0242
_cell_length_b       17.0238
_cell_length_c       27.75739
_cell_angle_alpha    107.98194
_cell_angle_beta     107.98206
_cell_angle_gamma    89.96769

_space_group_name_H-M_alt    "P 1"
_space_group_IT_number       1

loop_
  _space_group_symop_operation_xyz
  'x, y, z'

loop_
  _atom_site_type_symbol
  _atom_site_label
  _atom_site_symmetry_multiplicity
  _atom_site_fract_x
  _atom_site_fract_y
  _atom_site_fract_z
  _atom_site_occupancy
  Zn  Zn1       1.0  0.76401  0.7668900000000001  0.53131  1.0000
  Zn  Zn2       1.0  0.51689  0.014010000000000002  0.03131  1.0000
  Zn  Zn3       1.0  0.01603  0.51449  0.03099  1.0000
  Zn  Zn4       1.0  0.26447  0.266  0.53099  1.0000
  H   H1        1.0  0.15037999999999999  0.10787000000000001  0.87642  1.0000
  H   H2        1.0  0.14636000000000005  0.11216000000000004  0.64977  1.0000
  H   H3        1.0  0.07110999999999998  0.1915  0.9325  1.0000
  H   H4        1.0  0.9579199999999999  0.29286  0.72894  1.0000
  H   H5        1.0  0.3692700000000001  0.35619000000000006  0.89658  1.0000
  H   H6        1.0  0.27592999999999995  0.8985  0.91964  1.0000
  H   H7        1.0  0.007180000000000001  0.011920000000000035  0.66797  1.0000
  H   H8        1.0  0.05178000000000002  0.8108300000000003  0.76606  1.0000
  H   H9        1.0  0.2342  0.88346  0.60656  1.0000
  H   H10       1.0  0.96348  0.28538  0.63957  1.0000
  H   H11       1.0  0.14804  0.84981  0.83787  1.0000
  H   H12       1.0  0.9357700000000003  0.77776  0.67948  1.0000
  H   H13       1.0  0.059640000000000006  0.19601  0.60101  1.0000
  H   H14       1.0  0.34038000000000007  0.9873  0.60553  1.0000
  H   H15       1.0  0.4530200000000001  0.34573  0.83557  1.0000
  H   H16       1.0  0.42147  0.22594999999999996  0.7521  1.0000
  H   H17       1.0  0.96054  0.29273  0.80579  1.0000
  H   H18       1.0  0.37841  0.12216  0.67701  1.0000
  H   H19       1.0  0.97465  0.28695  0.89747  1.0000
  H   H20       1.0  0.25083000000000005  0.25186000000000003  0.87203  1.0000
  H   H21       1.0  0.16705  0.9262799999999999  0.6772699999999999  1.0000
  H   H22       1.0  0.32380999999999993  0.09955  0.86659  1.0000
  H   H23       1.0  0.72637  0.76838  0.87702  1.0000
  H   H24       1.0  0.50327  0.537  0.64983  1.0000
  H   H25       1.0  0.86196  0.74113  0.93312  1.0000
  H   H26       1.0  0.77133  0.4358600000000001  0.7289600000000002  1.0000
  H   H27       1.0  0.52714  0.5407  0.8964  1.0000
  H   H28       1.0  0.64488  0.021179999999999987  0.92016  1.0000
  H   H29       1.0  0.66024  0.6549800000000001  0.66809  1.0000
  H   H30       1.0  0.7148  0.95473  0.76616  1.0000
  H   H31       1.0  0.37211  0.72297  0.60697  1.0000
  H   H32       1.0  0.67629  0.35397  0.63926  1.0000
  H   H33       1.0  0.6886300000000001  0.98866  0.83778  1.0000
  H   H34       1.0  0.7424800000000001  0.9006700000000001  0.6792500000000001  1.0000
  H   H35       1.0  0.54134  0.40458  0.60072  1.0000
  H   H36       1.0  0.26460000000000006  0.618  0.60557  1.0000
  H   H37       1.0  0.38204000000000005  0.4900100000000001  0.8351200000000001  1.0000
  H   H38       1.0  0.33016  0.52614  0.75182  1.0000
  H   H39       1.0  0.84565  0.51295  0.80615  1.0000
  H   H40       1.0  0.29808  0.55461  0.67683  1.0000
  H   H41       1.0  0.92348  0.6107  0.89799  1.0000
  H   H42       1.0  0.6213  0.6203  0.87217  1.0000
  H   H43       1.0  0.51037  0.75066  0.6777  1.0000
  H   H44       1.0  0.54375  0.76668  0.86668  1.0000
  H   H45       1.0  0.51837  0.9763699999999998  0.37702  1.0000
  H   H46       1.0  0.287  0.75326  0.14983  1.0000
  H   H47       1.0  0.4911199999999999  0.11195999999999998  0.43312999999999996  1.0000
  H   H48       1.0  0.18586000000000003  0.021330000000000023  0.22896000000000002  1.0000
  H   H49       1.0  0.2906900000000001  0.77714  0.3964  1.0000
  H   H50       1.0  0.77118  0.8948900000000001  0.42017000000000004  1.0000
  H   H51       1.0  0.40498000000000006  0.9102400000000003  0.16809  1.0000
  H   H52       1.0  0.70474  0.96481  0.26616  1.0000
  H   H53       1.0  0.47297  0.62212  0.10695999999999999  1.0000
  H   H54       1.0  0.10398  0.9262900000000002  0.13926  1.0000
  H   H55       1.0  0.73866  0.93863  0.33778  1.0000
  H   H56       1.0  0.65068  0.99249  0.17926  1.0000
  H   H57       1.0  0.15458  0.79134  0.10073000000000001  1.0000
  H   H58       1.0  0.36802  0.51461  0.10558  1.0000
  H   H59       1.0  0.24000000000000002  0.6320400000000003  0.33511  1.0000
  H   H60       1.0  0.27615  0.58017  0.25181  1.0000
  H   H61       1.0  0.26294000000000006  0.09566000000000002  0.30615  1.0000
  H   H62       1.0  0.30463  0.5481  0.17685  1.0000
  H   H63       1.0  0.36070000000000013  0.17349000000000006  0.39799000000000007  1.0000
  H   H64       1.0  0.3702900000000001  0.87131  0.37217  1.0000
  H   H65       1.0  0.50066  0.7603800000000002  0.17769999999999997  1.0000
  H   H66       1.0  0.51667  0.7937499999999998  0.36668  1.0000
  H   H67       1.0  0.85787  0.4003900000000001  0.37642  1.0000
  H   H68       1.0  0.86215  0.39636  0.14977  1.0000
  H   H69       1.0  0.9415  0.32112  0.4325  1.0000
  H   H70       1.0  0.04285  0.20792000000000002  0.22894  1.0000
  H   H71       1.0  0.10618  0.61927  0.39659  1.0000
  H   H72       1.0  0.64849  0.52594  0.41963  1.0000
  H   H73       1.0  0.76192  0.2571800000000001  0.16797  1.0000
  H   H74       1.0  0.56082  0.30178  0.26606  1.0000
  H   H75       1.0  0.63345  0.4842  0.10656  1.0000
  H   H76       1.0  0.035380000000000016  0.21348  0.13957  1.0000
  H   H77       1.0  0.59981  0.39804  0.33786  1.0000
  H   H78       1.0  0.52776  0.18577  0.17948  1.0000
  H   H79       1.0  0.9460100000000001  0.30964  0.10101000000000002  1.0000
  H   H80       1.0  0.7373  0.59038  0.10553  1.0000
  H   H81       1.0  0.09572  0.70302  0.33557  1.0000
  H   H82       1.0  0.97595  0.67147  0.2521  1.0000
  H   H83       1.0  0.042730000000000004  0.21054000000000006  0.30579  1.0000
  H   H84       1.0  0.87216  0.62842  0.17702  1.0000
  H   H85       1.0  0.036950000000000004  0.22466  0.39746  1.0000
  H   H86       1.0  0.0018599999999999877  0.50084  0.37203  1.0000
  H   H87       1.0  0.67628  0.41705  0.17727  1.0000
  H   H88       1.0  0.84955  0.57382  0.36658  1.0000
  H   H89       1.0  0.01874999999999999  0.90061  0.37662  1.0000
  H   H90       1.0  0.78704  0.8962900000000004  0.14982  1.0000
  H   H91       1.0  0.9913599999999999  0.8216  0.43273  1.0000
  H   H92       1.0  0.68577  0.70776  0.22874000000000003  1.0000
  H   H93       1.0  0.79046  0.11912999999999999  0.3963  1.0000
  H   H94       1.0  0.27115  0.02599999999999999  0.41978  1.0000
  H   H95       1.0  0.90517  0.7570400000000003  0.16783  1.0000
  H   H96       1.0  0.20497  0.8014  0.26579  1.0000
  H   H97       1.0  0.97294  0.9844  0.10694  1.0000
  H   H98       1.0  0.60359  0.71328  0.13925  1.0000
  H   H99       1.0  0.23842  0.8982  0.33779  1.0000
  H   H100      1.0  0.15089  0.68569  0.17909  1.0000
  H   H101      1.0  0.65422  0.8094999999999999  0.10080999999999998  1.0000
  H   H102      1.0  0.86801  0.09065  0.10584  1.0000
  H   H103      1.0  0.73978  0.20293  0.33524  1.0000
  H   H104      1.0  0.7762  0.17152  0.25201  1.0000
  H   H105      1.0  0.76306  0.71066  0.3058  1.0000
  H   H106      1.0  0.8049  0.12877  0.17725  1.0000
  H   H107      1.0  0.86084  0.7249700000000001  0.39752  1.0000
  H   H108      1.0  0.87032  0.0007100000000000057  0.37193  1.0000
  H   H109      1.0  0.000889999999999997  0.91699  0.17752  1.0000
  H   H110      1.0  0.01652  0.07313000000000003  0.36627  1.0000
  H   H111      1.0  0.35874000000000006  0.47649  0.37700999999999996  1.0000
  H   H112      1.0  0.3623  0.25309  0.14999  1.0000
  H   H113      1.0  0.44212  0.61235  0.43303  1.0000
  H   H114      1.0  0.54273  0.52116  0.22923  1.0000
  H   H115      1.0  0.60652  0.27716  0.39666  1.0000
  H   H116      1.0  0.1482  0.39441  0.41947  1.0000
  H   H117      1.0  0.26323  0.41082  0.16855  1.0000
  H   H118      1.0  0.06110999999999998  0.46442  0.26584  1.0000
  H   H119      1.0  0.13369  0.12207000000000001  0.10669  1.0000
  H   H120      1.0  0.53464  0.4261500000000001  0.13962  1.0000
  H   H121      1.0  0.09923  0.43924  0.33751  1.0000
  H   H122      1.0  0.028370000000000003  0.49293000000000003  0.17922  1.0000
  H   H123      1.0  0.44537  0.29118000000000005  0.101  1.0000
  H   H124      1.0  0.23740999999999998  0.014610000000000001  0.1054  1.0000
  H   H125      1.0  0.59581  0.13206  0.33543  1.0000
  H   H126      1.0  0.47597000000000006  0.08013000000000003  0.25202  1.0000
  H   H127      1.0  0.54289  0.59552  0.30616  1.0000
  H   H128      1.0  0.3723000000000001  0.04804000000000001  0.17682000000000003  1.0000
  H   H129      1.0  0.5371300000000001  0.67363  0.39787000000000006  1.0000
  H   H130      1.0  0.50235  0.37126  0.37236  1.0000
  H   H131      1.0  0.17669  0.26022  0.17757000000000003  1.0000
  H   H132      1.0  0.35000000000000003  0.29366  0.3671  1.0000
  H   H133      1.0  0.6506  0.26875999999999994  0.8766199999999998  1.0000
  H   H134      1.0  0.64629  0.03705  0.64981  1.0000
  H   H135      1.0  0.57159  0.24136999999999995  0.93273  1.0000
  H   H136      1.0  0.45776  0.93578  0.72875  1.0000
  H   H137      1.0  0.8691199999999999  0.040469999999999985  0.8962999999999999  1.0000
  H   H138      1.0  0.776  0.52116  0.91979  1.0000
  H   H139      1.0  0.50705  0.15517999999999996  0.6678199999999999  1.0000
  H   H140      1.0  0.5514  0.45497  0.76579  1.0000
  H   H141      1.0  0.7344  0.22294000000000005  0.60694  1.0000
  H   H142      1.0  0.46329000000000004  0.85359  0.63925  1.0000
  H   H143      1.0  0.6482  0.48843  0.8378  1.0000
  H   H144      1.0  0.4357100000000001  0.40089  0.67909  1.0000
  H   H145      1.0  0.5595  0.90423  0.60081  1.0000
  H   H146      1.0  0.84065  0.11801000000000002  0.60583  1.0000
  H   H147      1.0  0.95293  0.9897800000000002  0.8352400000000001  1.0000
  H   H148      1.0  0.92151  0.026199999999999977  0.7520199999999999  1.0000
  H   H149      1.0  0.46066000000000007  0.013059999999999995  0.8058  1.0000
  H   H150      1.0  0.87876  0.05489999999999996  0.67725  1.0000
  H   H151      1.0  0.4749600000000001  0.11084000000000004  0.8975200000000001  1.0000
  H   H152      1.0  0.7507  0.12032000000000002  0.87193  1.0000
  H   H153      1.0  0.6669900000000001  0.25089000000000006  0.6775300000000001  1.0000
  H   H154      1.0  0.8231299999999999  0.26652999999999993  0.8662699999999999  1.0000
  H   H155      1.0  0.22649000000000005  0.60875  0.87701  1.0000
  H   H156      1.0  0.0030900000000000987  0.61231  0.6499900000000001  1.0000
  H   H157      1.0  0.36235000000000006  0.69212  0.9330300000000001  1.0000
  H   H158      1.0  0.27116  0.79274  0.72923  1.0000
  H   H159      1.0  0.027160000000000028  0.85653  0.8966599999999999  1.0000
  H   H160      1.0  0.14441  0.3982  0.91947  1.0000
  H   H161      1.0  0.16076  0.51328  0.66853  1.0000
  H   H162      1.0  0.21446000000000007  0.31114  0.76579  1.0000
  H   H163      1.0  0.8720699999999999  0.38369  0.60669  1.0000
  H   H164      1.0  0.17616  0.78464  0.63962  1.0000
  H   H165      1.0  0.18924000000000005  0.34923000000000004  0.83751  1.0000
  H   H166      1.0  0.24291  0.27841  0.67918  1.0000
  H   H167      1.0  0.041189999999999984  0.69537  0.601  1.0000
  H   H168      1.0  0.76461  0.48741000000000007  0.6054  1.0000
  H   H169      1.0  0.88206  0.84582  0.83544  1.0000
  H   H170      1.0  0.8301299999999999  0.7259699999999999  0.7520199999999999  1.0000
  H   H171      1.0  0.34552  0.7929000000000003  0.80616  1.0000
  H   H172      1.0  0.79805  0.6223  0.67682  1.0000
  H   H173      1.0  0.42363  0.78714  0.89787  1.0000
  H   H174      1.0  0.12126000000000009  0.75236  0.8723600000000001  1.0000
  H   H175      1.0  0.010220000000000007  0.42669  0.67756  1.0000
  H   H176      1.0  0.04366  0.5999900000000001  0.8671  1.0000
  Ir  Ir1       1.0  0.16877  0.08981000000000008  0.76616  1.0000
  Ir  Ir2       1.0  0.5975900000000001  0.6759700000000001  0.7663500000000001  1.0000
  Ir  Ir3       1.0  0.42596999999999996  0.8476  0.26635  1.0000
  Ir  Ir4       1.0  0.83981  0.4187700000000001  0.26616  1.0000
  Ir  Ir5       1.0  0.9261499999999999  0.91851  0.26611  1.0000
  Ir  Ir6       1.0  0.3403300000000001  0.3474  0.26652  1.0000
  Ir  Ir7       1.0  0.6685100000000002  0.17615000000000006  0.7661100000000001  1.0000
  Ir  Ir8       1.0  0.09740999999999997  0.59034  0.76652  1.0000
  C   C1        1.0  0.30888  0.0026200000000000394  0.89895  1.0000
  C   C2        1.0  0.10778  0.14942  0.86224  1.0000
  C   C3        1.0  0.04936999999999998  0.20559  0.74041  1.0000
  C   C4        1.0  0.96361  0.89175  0.66683  1.0000
  C   C5        1.0  0.10422000000000005  0.15333  0.71894  1.0000
  C   C6        1.0  0.09382  0.9278  0.76192  1.0000
  C   C7        1.0  0.10555999999999996  0.1508200000000001  0.66803  1.0000
  C   C8        1.0  0.31625  0.17223  0.76391  1.0000
  C   C9        1.0  0.06326000000000002  0.19612000000000002  0.89311  1.0000
  C   C10       1.0  0.9995199999999999  0.25325  0.71206  1.0000
  C   C11       1.0  0.35414  0.3049800000000001  0.8590200000000001  1.0000
  C   C12       1.0  0.25862  0.93131  0.89049  1.0000
  C   C13       1.0  0.01589999999999999  0.9657500000000001  0.68838  1.0000
  C   C14       1.0  0.040709999999999996  0.8545599999999999  0.74386  1.0000
  C   C15       1.0  0.25292000000000003  0.9441800000000001  0.63716  1.0000
  C   C16       1.0  0.2644  0.17947999999999995  0.79643  1.0000
  C   C17       1.0  0.002580000000000045  0.24926000000000006  0.6618000000000002  1.0000
  C   C18       1.0  0.8943100000000002  0.8753700000000001  0.61435  1.0000
  C   C19       1.0  0.04887999999999998  0.20501000000000005  0.7927  1.0000
  C   C20       1.0  0.18831000000000003  0.90469  0.84532  1.0000
  C   C21       1.0  0.97603  0.83578  0.69565  1.0000
  C   C22       1.0  0.05566999999999999  0.19802000000000006  0.6398  1.0000
  C   C23       1.0  0.31205  0.0009899999999999774  0.63698  1.0000
  C   C24       1.0  0.4016000000000001  0.29907  0.82507  1.0000
  C   C25       1.0  0.3832900000000001  0.23200000000000012  0.7778200000000001  1.0000
  C   C26       1.0  0.0018999999999999607  0.25219  0.82249  1.0000
  C   C27       1.0  0.33440000000000003  0.0768900000000001  0.6779000000000001  1.0000
  C   C28       1.0  0.009090000000000003  0.24885000000000002  0.87307  1.0000
  C   C29       1.0  0.16802000000000006  0.9496800000000001  0.8094600000000001  1.0000
  C   C30       1.0  0.38595000000000007  0.03628999999999993  0.94742  1.0000
  C   C31       1.0  0.29678000000000004  0.09673000000000005  0.7177600000000001  1.0000
  C   C32       1.0  0.28669  0.24589  0.84489  1.0000
  C   C33       1.0  0.21525000000000005  0.9671699999999999  0.67655  1.0000
  C   C34       1.0  0.28649  0.04371999999999997  0.86116  1.0000
  C   C35       1.0  0.59199  0.89584  0.89956  1.0000
  C   C36       1.0  0.75485  0.7127100000000002  0.86272  1.0000
  C   C37       1.0  0.69125  0.53446  0.74058  1.0000
  C   C38       1.0  0.70228  0.7738200000000002  0.66677  1.0000
  C   C39       1.0  0.6148  0.5651  0.71911  1.0000
  C   C40       1.0  0.66817  0.83379  0.76208  1.0000
  C   C41       1.0  0.56242  0.51665  0.66807  1.0000
  C   C42       1.0  0.44752  0.59146  0.76381  1.0000
  C   C43       1.0  0.83038  0.69704  0.89364  1.0000
  C   C44       1.0  0.7127400000000002  0.45849  0.71208  1.0000
  C   C45       1.0  0.50471  0.5542000000000001  0.85886  1.0000
  C   C46       1.0  0.63286  0.9590700000000001  0.89096  1.0000
  C   C47       1.0  0.67203  0.72168  0.68856  1.0000
  C   C48       1.0  0.7032000000000002  0.88866  0.7439300000000001  1.0000
  C   C49       1.0  0.38404  0.69276  0.63744  1.0000
  C   C50       1.0  0.53207  0.61676  0.79645  1.0000
  C   C51       1.0  0.65936  0.41222  0.66165  1.0000
  C   C52       1.0  0.7171  0.7369  0.61368  1.0000
  C   C53       1.0  0.74415  0.58748  0.7930100000000001  1.0000
  C   C54       1.0  0.6569000000000002  0.9408099999999999  0.8454600000000001  1.0000
  C   C55       1.0  0.7189700000000001  0.8588400000000002  0.6955700000000001  1.0000
  C   C56       1.0  0.58414  0.44133  0.63967  1.0000
  C   C57       1.0  0.3245500000000001  0.63575  0.63705  1.0000
  C   C58       1.0  0.4231400000000001  0.52609  0.8247800000000001  1.0000
  C   C59       1.0  0.3942  0.54579  0.77758  1.0000
  C   C60       1.0  0.8210300000000003  0.57024  0.82287  1.0000
  C   C61       1.0  0.34312  0.60075  0.67786  1.0000
  C   C62       1.0  0.86456  0.62431  0.87354  1.0000
  C   C63       1.0  0.6416  0.8597  0.8095700000000001  1.0000
  C   C64       1.0  0.56471  0.90971  0.94832  1.0000
  C   C65       1.0  0.4208200000000001  0.62072  0.7177400000000002  1.0000
  C   C66       1.0  0.5582  0.59904  0.8449  1.0000
  C   C67       1.0  0.46130000000000004  0.7090700000000002  0.67683  1.0000
  C   C68       1.0  0.57578  0.81703  0.86136  1.0000
  C   C69       1.0  0.64583  0.8420000000000001  0.39956  1.0000
  C   C70       1.0  0.46271  0.0048499999999999845  0.36272  1.0000
  C   C71       1.0  0.28446  0.9412500000000001  0.24058000000000002  1.0000
  C   C72       1.0  0.52382  0.9522799999999999  0.16678  1.0000
  C   C73       1.0  0.3151  0.8648000000000001  0.21911  1.0000
  C   C74       1.0  0.58379  0.91817  0.26208  1.0000
  C   C75       1.0  0.26665000000000005  0.8124200000000001  0.16807000000000002  1.0000
  C   C76       1.0  0.34148  0.6975300000000001  0.26381  1.0000
  C   C77       1.0  0.44704000000000005  0.08039000000000006  0.39364000000000005  1.0000
  C   C78       1.0  0.20849000000000004  0.96274  0.21208000000000002  1.0000
  C   C79       1.0  0.3042  0.75471  0.35886  1.0000
  C   C80       1.0  0.70906  0.88287  0.39096000000000003  1.0000
  C   C81       1.0  0.4716699999999999  0.92203  0.18855  1.0000
  C   C82       1.0  0.63867  0.95321  0.24394  1.0000
  C   C83       1.0  0.44278  0.63405  0.13744  1.0000
  C   C84       1.0  0.36676  0.78208  0.29645  1.0000
  C   C85       1.0  0.16221999999999998  0.90936  0.16165999999999997  1.0000
  C   C86       1.0  0.4869  0.9671  0.11368  1.0000
  C   C87       1.0  0.33747  0.99416  0.29301  1.0000
  C   C88       1.0  0.6908  0.9069  0.34546  1.0000
  C   C89       1.0  0.60884  0.9689699999999999  0.19557  1.0000
  C   C90       1.0  0.19134000000000007  0.83414  0.13967  1.0000
  C   C91       1.0  0.38577999999999996  0.57456  0.13706  1.0000
  C   C92       1.0  0.27608  0.67315  0.32478  1.0000
  C   C93       1.0  0.2958  0.6442  0.27759  1.0000
  C   C94       1.0  0.32023  0.07104000000000005  0.32287  1.0000
  C   C95       1.0  0.3508  0.59312  0.17788000000000004  1.0000
  C   C96       1.0  0.3743  0.11456  0.37354  1.0000
  C   C97       1.0  0.60969  0.8916  0.30957  1.0000
  C   C98       1.0  0.6597  0.81472  0.44832  1.0000
  C   C99       1.0  0.37076  0.67082  0.21774999999999997  1.0000
  C   C100      1.0  0.34904  0.8082  0.3449  1.0000
  C   C101      1.0  0.45908  0.71131  0.17684  1.0000
  C   C102      1.0  0.56702  0.82578  0.36136  1.0000
  C   C103      1.0  0.7526200000000002  0.55888  0.39895  1.0000
  C   C104      1.0  0.8994200000000001  0.35778000000000004  0.36224000000000006  1.0000
  C   C105      1.0  0.95558  0.29937  0.24041  1.0000
  C   C106      1.0  0.6417500000000002  0.21361000000000005  0.16684  1.0000
  C   C107      1.0  0.9033300000000002  0.35422  0.21894  1.0000
  C   C108      1.0  0.67779  0.34382  0.26192  1.0000
  C   C109      1.0  0.90082  0.35556  0.16802  1.0000
  C   C110      1.0  0.9222300000000001  0.56625  0.26391  1.0000
  C   C111      1.0  0.94612  0.31326  0.39311  1.0000
  C   C112      1.0  0.0032499999999999916  0.24952  0.21206  1.0000
  C   C113      1.0  0.054970000000000005  0.60415  0.35902  1.0000
  C   C114      1.0  0.68131  0.50863  0.39049  1.0000
  C   C115      1.0  0.71575  0.2659  0.18838000000000002  1.0000
  C   C116      1.0  0.60455  0.29071  0.24386  1.0000
  C   C117      1.0  0.69417  0.50292  0.13716  1.0000
  C   C118      1.0  0.92948  0.5144  0.29643  1.0000
  C   C119      1.0  0.99926  0.25258  0.1618  1.0000
  C   C120      1.0  0.62538  0.14431  0.11436  1.0000
  C   C121      1.0  0.9550100000000001  0.29888  0.2927  1.0000
  C   C122      1.0  0.6546900000000001  0.43831  0.34532  1.0000
  C   C123      1.0  0.5857800000000001  0.22603  0.19565  1.0000
  C   C124      1.0  0.9480200000000001  0.30566  0.1398  1.0000
  C   C125      1.0  0.75099  0.56205  0.13698  1.0000
  C   C126      1.0  0.04905999999999999  0.6516000000000003  0.32507  1.0000
  C   C127      1.0  0.98199  0.63329  0.27782  1.0000
  C   C128      1.0  0.0021900000000000114  0.2519  0.32249  1.0000
  C   C129      1.0  0.82689  0.58441  0.1779  1.0000
  C   C130      1.0  0.99885  0.25909  0.37307  1.0000
  C   C131      1.0  0.6996700000000001  0.41803  0.30946  1.0000
  C   C132      1.0  0.78628  0.63596  0.44742  1.0000
  C   C133      1.0  0.84673  0.54679  0.21776  1.0000
  C   C134      1.0  0.99589  0.5367000000000001  0.34489  1.0000
  C   C135      1.0  0.71717  0.46525  0.17655  1.0000
  C   C136      1.0  0.79372  0.5365  0.36116  1.0000
  C   C137      1.0  0.14607  0.0582  0.39892  1.0000
  C   C138      1.0  0.9629999999999999  0.85794  0.36235  1.0000
  C   C139      1.0  0.78454  0.7992400000000002  0.24033000000000002  1.0000
  C   C140      1.0  0.024080000000000004  0.71334  0.16655  1.0000
  C   C141      1.0  0.81519  0.85409  0.21891  1.0000
  C   C142      1.0  0.0839  0.8434900000000001  0.26176  1.0000
  C   C143      1.0  0.76664  0.85545  0.16798000000000002  1.0000
  C   C144      1.0  0.84163  0.06615999999999997  0.26388  1.0000
  C   C145      1.0  0.94727  0.81356  0.39326000000000005  1.0000
  C   C146      1.0  0.7084199999999999  0.7493800000000003  0.2119  1.0000
  C   C147      1.0  0.80411  0.10404000000000005  0.3588100000000001  1.0000
  C   C148      1.0  0.20917  0.008359999999999996  0.39046  1.0000
  C   C149      1.0  0.97188  0.76568  0.18821  1.0000
  C   C150      1.0  0.13889  0.79038  0.24359  1.0000
  C   C151      1.0  0.94284  0.003039999999999997  0.13747  1.0000
  C   C152      1.0  0.8669  0.01421999999999998  0.29636  1.0000
  C   C153      1.0  0.6620000000000003  0.7524200000000002  0.16159000000000004  1.0000
  C   C154      1.0  0.98746  0.64418  0.11391  1.0000
  C   C155      1.0  0.8376300000000001  0.79886  0.29268  1.0000
  C   C156      1.0  0.19080000000000003  0.9381700000000001  0.34524000000000005  1.0000
  C   C157      1.0  0.10909  0.7258  0.19532  1.0000
  C   C158      1.0  0.69113  0.8055300000000002  0.13964  1.0000
  C   C159      1.0  0.88585  0.06224  0.13725  1.0000
  C   C160      1.0  0.77599  0.15152  0.32485  1.0000
  C   C161      1.0  0.79585  0.13328  0.27772  1.0000
  C   C162      1.0  0.8203700000000002  0.7520200000000001  0.32250000000000006  1.0000
  C   C163      1.0  0.85096  0.08459999999999998  0.17809999999999998  1.0000
  C   C164      1.0  0.87446  0.75934  0.37313  1.0000
  C   C165      1.0  0.10973000000000002  0.91766  0.30932  1.0000
  C   C166      1.0  0.16087  0.1347  0.44764  1.0000
  C   C167      1.0  0.87096  0.04676000000000002  0.21784000000000003  1.0000
  C   C168      1.0  0.84905  0.03654999999999999  0.34477  1.0000
  C   C169      1.0  0.95922  0.9651900000000001  0.17675  1.0000
  C   C170      1.0  0.06707  0.035930000000000004  0.36095  1.0000
  C   C171      1.0  0.25278  0.34124  0.39928  1.0000
  C   C172      1.0  0.40009  0.50489  0.36276  1.0000
  C   C173      1.0  0.45585  0.44104  0.24078  1.0000
  C   C174      1.0  0.14269  0.45265  0.16689  1.0000
  C   C175      1.0  0.40371  0.36458  0.2193  1.0000
  C   C176      1.0  0.17824  0.41813  0.26202  1.0000
  C   C177      1.0  0.40091  0.31225  0.16827  1.0000
  C   C178      1.0  0.4224700000000001  0.19738000000000006  0.264  1.0000
  C   C179      1.0  0.44665  0.58053  0.39361  1.0000
  C   C180      1.0  0.50318  0.4625700000000001  0.21234  1.0000
  C   C181      1.0  0.55527  0.25468  0.35912  1.0000
  C   C182      1.0  0.18116999999999997  0.38247  0.39043  1.0000
  C   C183      1.0  0.21672999999999998  0.4223200000000001  0.1887  1.0000
  C   C184      1.0  0.10505  0.45308  0.24379  1.0000
  C   C185      1.0  0.19442  0.13397  0.13728  1.0000
  C   C186      1.0  0.42984  0.28191  0.29666  1.0000
  C   C187      1.0  0.49889999999999995  0.40919  0.16195  1.0000
  C   C188      1.0  0.1264  0.46862000000000004  0.11423000000000001  1.0000
  C   C189      1.0  0.45541  0.49398  0.29315  1.0000
  C   C190      1.0  0.15446000000000001  0.40697000000000005  0.34512000000000004  1.0000
  C   C191      1.0  0.08645  0.46912  0.19553  1.0000
  C   C192      1.0  0.4477  0.33399  0.13992  1.0000
  C   C193      1.0  0.25116  0.07452  0.13692  1.0000
  C   C194      1.0  0.54926  0.17312000000000002  0.32505000000000006  1.0000
  C   C195      1.0  0.48214  0.14414  0.27782  1.0000
  C   C196      1.0  0.50249  0.57095  0.32291  1.0000
  C   C197      1.0  0.32711  0.09308  0.17781  1.0000
  C   C198      1.0  0.49918000000000007  0.61459  0.37351000000000006  1.0000
  C   C199      1.0  0.19986000000000004  0.39149  0.30949  1.0000
  C   C200      1.0  0.2862  0.31348  0.44799  1.0000
  C   C201      1.0  0.34699  0.17066  0.21782  1.0000
  C   C202      1.0  0.49626000000000003  0.30812000000000006  0.34512000000000004  1.0000
  C   C203      1.0  0.2175  0.21116000000000007  0.17677  1.0000
  C   C204      1.0  0.2941  0.32547  0.36156000000000005  1.0000
  C   C205      1.0  0.8082  0.39607  0.89893  1.0000
  C   C206      1.0  0.60793  0.21300000000000008  0.86235  1.0000
  C   C207      1.0  0.54924  0.03454  0.74033  1.0000
  C   C208      1.0  0.46335  0.27409  0.66654  1.0000
  C   C209      1.0  0.60408  0.06520000000000002  0.71891  1.0000
  C   C210      1.0  0.59349  0.33391000000000004  0.76176  1.0000
  C   C211      1.0  0.60544  0.016640000000000005  0.66798  1.0000
  C   C212      1.0  0.81615  0.09164000000000001  0.76388  1.0000
  C   C213      1.0  0.56356  0.19728  0.89326  1.0000
  C   C214      1.0  0.4993800000000001  0.95842  0.7119000000000001  1.0000
  C   C215      1.0  0.85403  0.05411  0.85881  1.0000
  C   C216      1.0  0.75837  0.45917  0.89047  1.0000
  C   C217      1.0  0.51568  0.2218900000000001  0.68821  1.0000
  C   C218      1.0  0.54038  0.38889  0.7436  1.0000
  C   C219      1.0  0.75304  0.19284000000000007  0.63747  1.0000
  C   C220      1.0  0.7642099999999998  0.11689999999999993  0.7963699999999999  1.0000
  C   C221      1.0  0.50242  0.912  0.66159  1.0000
  C   C222      1.0  0.39416999999999996  0.23747  0.6139  1.0000
  C   C223      1.0  0.54886  0.08764  0.79268  1.0000
  C   C224      1.0  0.68818  0.44081000000000004  0.84525  1.0000
  C   C225      1.0  0.47581  0.35910000000000003  0.6953200000000002  1.0000
  C   C226      1.0  0.55553  0.9411300000000001  0.63964  1.0000
  C   C227      1.0  0.8122400000000001  0.13585  0.63725  1.0000
  C   C228      1.0  0.9015099999999999  0.02598999999999998  0.82485  1.0000
  C   C229      1.0  0.88327  0.04585000000000001  0.77772  1.0000
  C   C230      1.0  0.50202  0.07037  0.8225  1.0000
  C   C231      1.0  0.8346000000000002  0.10095999999999997  0.6781  1.0000
  C   C232      1.0  0.5093299999999998  0.12445999999999993  0.8731299999999999  1.0000
  C   C233      1.0  0.6676600000000001  0.35974000000000006  0.8093200000000002  1.0000
  C   C234      1.0  0.8847000000000002  0.41086999999999996  0.94764  1.0000
  C   C235      1.0  0.7967500000000002  0.12096  0.71784  1.0000
  C   C236      1.0  0.78654  0.09905000000000001  0.84477  1.0000
  C   C237      1.0  0.71519  0.20923000000000005  0.67675  1.0000
  C   C238      1.0  0.78593  0.31708  0.86095  1.0000
  C   C239      1.0  0.09124000000000004  0.5027800000000001  0.8992800000000001  1.0000
  C   C240      1.0  0.25487999999999994  0.6501000000000001  0.8627699999999999  1.0000
  C   C241      1.0  0.19104000000000004  0.7058600000000003  0.74079  1.0000
  C   C242      1.0  0.20258999999999994  0.39269999999999994  0.6668199999999999  1.0000
  C   C243      1.0  0.11458000000000002  0.65372  0.7193  1.0000
  C   C244      1.0  0.16814999999999994  0.42827000000000015  0.76201  1.0000
  C   C245      1.0  0.06226000000000001  0.65092  0.66827  1.0000
  C   C246      1.0  0.9473800000000001  0.67248  0.76401  1.0000
  C   C247      1.0  0.33053  0.6966600000000002  0.89362  1.0000
  C   C248      1.0  0.21257  0.7531900000000002  0.71234  1.0000
  C   C249      1.0  0.00467999999999998  0.8052700000000003  0.85912  1.0000
  C   C250      1.0  0.1324700000000001  0.43116000000000004  0.8904200000000001  1.0000
  C   C251      1.0  0.17229  0.46674000000000015  0.68866  1.0000
  C   C252      1.0  0.20310000000000006  0.35508  0.74375  1.0000
  C   C253      1.0  0.88397  0.44442  0.63728  1.0000
  C   C254      1.0  0.031910000000000015  0.67985  0.79666  1.0000
  C   C255      1.0  0.15919999999999995  0.7488999999999999  0.6619599999999999  1.0000
  C   C256      1.0  0.21850999999999995  0.37625  0.61412  1.0000
  C   C257      1.0  0.24397999999999997  0.70542  0.79315  1.0000
  C   C258      1.0  0.15697  0.40446  0.84511  1.0000
  C   C259      1.0  0.2191  0.33649  0.69548  1.0000
  C   C260      1.0  0.08399000000000002  0.69771  0.63992  1.0000
  C   C261      1.0  0.82452  0.50116  0.63691  1.0000
  C   C262      1.0  0.92312  0.79926  0.8250499999999998  1.0000
  C   C263      1.0  0.8941400000000002  0.7321400000000001  0.7778200000000001  1.0000
  C   C264      1.0  0.32094999999999996  0.75249  0.8229199999999999  1.0000
  C   C265      1.0  0.8430800000000003  0.57711  0.67781  1.0000
  C   C266      1.0  0.36459  0.74918  0.87351  1.0000
  C   C267      1.0  0.14150999999999997  0.4498600000000001  0.80948  1.0000
  C   C268      1.0  0.06347999999999987  0.5361899999999999  0.9479899999999999  1.0000
  C   C269      1.0  0.92067  0.59699  0.71782  1.0000
  C   C270      1.0  0.05811999999999996  0.74627  0.84513  1.0000
  C   C271      1.0  0.9611599999999999  0.4675000000000001  0.6767600000000001  1.0000
  C   C272      1.0  0.07548000000000003  0.54409  0.86156  1.0000
  N   N1        1.0  0.21761999999999995  0.019070000000000017  0.81765  1.0000
  N   N2        1.0  0.08027  0.98342  0.73431  1.0000
  N   N3        1.0  0.2347400000000001  0.04217000000000005  0.7153900000000001  1.0000
  N   N4        1.0  0.10178000000000001  0.15344000000000002  0.81321  1.0000
  N   N5        1.0  0.6005500000000001  0.79833  0.81776  1.0000
  N   N6        1.0  0.65405  0.75033  0.73456  1.0000
  N   N7        1.0  0.48068000000000005  0.67281  0.71551  1.0000
  N   N8        1.0  0.7117699999999999  0.65957  0.8135699999999999  1.0000
  N   N9        1.0  0.54832  0.8505500000000001  0.31776  1.0000
  N   N10       1.0  0.50033  0.90405  0.23456  1.0000
  N   N11       1.0  0.42283  0.73069  0.21551  1.0000
  N   N12       1.0  0.40957000000000005  0.96178  0.31357  1.0000
  N   N13       1.0  0.76906  0.46762000000000004  0.31765  1.0000
  N   N14       1.0  0.73342  0.33026  0.23431  1.0000
  N   N15       1.0  0.7921700000000003  0.48474  0.21539  1.0000
  N   N16       1.0  0.90344  0.35178  0.31322  1.0000
  N   N17       1.0  0.04841000000000003  0.9671299999999999  0.31743  1.0000
  N   N18       1.0  0.0004800000000000055  0.82997  0.23419000000000004  1.0000
  N   N19       1.0  0.9230200000000002  0.98457  0.21545  1.0000
  N   N20       1.0  0.90982  0.85174  0.31324  1.0000
  N   N21       1.0  0.26944  0.35035  0.31794  1.0000
  N   N22       1.0  0.23413  0.40411000000000014  0.23461  1.0000
  N   N23       1.0  0.29253  0.23049000000000003  0.21558  1.0000
  N   N24       1.0  0.40403999999999995  0.46163  0.3137  1.0000
  N   N25       1.0  0.71712  0.29841  0.81744  1.0000
  N   N26       1.0  0.57997  0.25048000000000004  0.7341800000000002  1.0000
  N   N27       1.0  0.73456  0.1730200000000001  0.71545  1.0000
  N   N28       1.0  0.60173  0.15982  0.81324  1.0000
  N   N29       1.0  0.10034999999999998  0.51944  0.81793  1.0000
  N   N30       1.0  0.15413  0.48414  0.7346  1.0000
  N   N31       1.0  0.9804899999999999  0.54253  0.71558  1.0000
  N   N32       1.0  0.21161999999999992  0.6540499999999999  0.8136999999999999  1.0000
  O   O1        1.0  0.4261399999999999  0.1014300000000001  0.95252  1.0000
  O   O2        1.0  0.4019100000000001  0.9919800000000001  0.97877  1.0000
  O   O3        1.0  0.86074  0.93632  0.60448  1.0000
  O   O4        1.0  0.87709  0.79788  0.58585  1.0000
  O   O5        1.0  0.52824  0.84963  0.9524899999999998  1.0000
  O   O6        1.0  0.58232  0.9847100000000001  0.98095  1.0000
  O   O7        1.0  0.73821  0.66506  0.60259  1.0000
  O   O8        1.0  0.7062900000000002  0.78653  0.58578  1.0000
  O   O9        1.0  0.59962  0.77825  0.45249  1.0000
  O   O10       1.0  0.7347  0.8323100000000001  0.48094  1.0000
  O   O11       1.0  0.41506  0.9882200000000001  0.10259  1.0000
  O   O12       1.0  0.53652  0.95629  0.08578000000000001  1.0000
  O   O13       1.0  0.85142  0.67614  0.45252  1.0000
  O   O14       1.0  0.74197  0.65191  0.47877  1.0000
  O   O15       1.0  0.68633  0.11074  0.10448  1.0000
  O   O16       1.0  0.54789  0.1271  0.08585  1.0000
  O   O17       1.0  0.10066000000000003  0.17460000000000003  0.45281000000000005  1.0000
  O   O18       1.0  0.23672  0.15091999999999994  0.4790499999999999  1.0000
  O   O19       1.0  0.91644  0.61091  0.10382  1.0000
  O   O20       1.0  0.03633  0.6271200000000002  0.08548  1.0000
  O   O21       1.0  0.35094  0.27773  0.45317  1.0000
  O   O22       1.0  0.24196000000000004  0.32953000000000005  0.47939  1.0000
  O   O23       1.0  0.18716000000000002  0.49254000000000003  0.10435  1.0000
  O   O24       1.0  0.04895  0.45636  0.08561  1.0000
  O   O25       1.0  0.9246  0.35065999999999997  0.95281  1.0000
  O   O26       1.0  0.90093  0.48672  0.97906  1.0000
  O   O27       1.0  0.36091  0.16645000000000004  0.60381  1.0000
  O   O28       1.0  0.37712  0.28635  0.58547  1.0000
  O   O29       1.0  0.02770999999999995  0.6009300000000001  0.95318  1.0000
  O   O30       1.0  0.07955000000000002  0.49196000000000006  0.9794  1.0000
  O   O31       1.0  0.24232  0.43692  0.60409  1.0000
  O   O32       1.0  0.20633  0.29874  0.58561  1.0000
