data_image0
_chemical_formula_structural       Co24H96C144N144O96
_chemical_formula_sum              "Co24 H96 C144 N144 O96"
_cell_length_a       25.24406
_cell_length_b       25.24267
_cell_length_c       25.242710000000002
_cell_angle_alpha    109.51818
_cell_angle_beta     109.50634
_cell_angle_gamma    109.50637

_symmetry_space_group_name_H-M    'P 1'
_symmetry_Int_Tables_number       1

loop_
  _symmetry_equiv_pos_as_xyz
  'x,y,z'

loop_
  _atom_site_type_symbol
  _atom_site_label
  _atom_site_symmetry_multiplicity
  _atom_site_fract_x
  _atom_site_fract_y
  _atom_site_fract_z
  _atom_site_occupancy
  Co  Co1       1.0  0.5  0.3544900000000001  0.6455000000000001  1.0000
  Co  Co2       1.0  0.5000000000000002  0.14555000000000004  0.85445  1.0000
  Co  Co3       1.0  0.29109  0.6455499999999998  0.14567  1.0000
  Co  Co4       1.0  0.7089100000000002  0.85432  0.35445000000000004  1.0000
  Co  Co5       1.0  0.8543300000000001  0.35445000000000004  0.7089100000000002  1.0000
  Co  Co6       1.0  0.64555  0.14567  0.29108  1.0000
  Co  Co7       1.0  0.14555000000000004  0.85445  0.5  1.0000
  Co  Co8       1.0  0.3545  0.64549  0.49999000000000005  1.0000
  Co  Co9       1.0  0.14567000000000002  0.29108  0.64554  1.0000
  Co  Co10      1.0  0.35445  0.70891  0.85433  1.0000
  Co  Co11      1.0  0.64551  0.50001  0.3545  1.0000
  Co  Co12      1.0  0.8544500000000002  0.49999  0.14555000000000004  1.0000
  Co  Co13      1.0  0.5  0.6455  0.3545  1.0000
  Co  Co14      1.0  0.5000000000000002  0.85445  0.14555000000000004  1.0000
  Co  Co15      1.0  0.7089100000000003  0.35445000000000004  0.8543200000000001  1.0000
  Co  Co16      1.0  0.29109  0.14566999999999997  0.64555  1.0000
  Co  Co17      1.0  0.14567  0.6455399999999998  0.29108  1.0000
  Co  Co18      1.0  0.35445000000000004  0.8543300000000001  0.7089100000000002  1.0000
  Co  Co19      1.0  0.8544500000000002  0.14555  0.49999000000000005  1.0000
  Co  Co20      1.0  0.64551  0.3545000000000001  0.5000100000000001  1.0000
  Co  Co21      1.0  0.8543300000000001  0.70891  0.35446  1.0000
  Co  Co22      1.0  0.64555  0.29108  0.14567  1.0000
  Co  Co23      1.0  0.3545  0.49999  0.64549  1.0000
  Co  Co24      1.0  0.14555  0.5  0.85445  1.0000
  H   H1        1.0  0.55557  0.45048  0.79972  1.0000
  H   H2        1.0  0.58131  0.51389  0.7416  1.0000
  H   H3        1.0  0.44484  0.2441  0.89513  1.0000
  H   H4        1.0  0.4186200000000001  0.16001  0.93189  1.0000
  H   H5        1.0  0.34914  0.54989  0.10492000000000001  1.0000
  H   H6        1.0  0.22759  0.48629999999999995  0.06764  1.0000
  H   H7        1.0  0.6504599999999999  0.7555799999999999  0.20022000000000004  1.0000
  H   H8        1.0  0.77221  0.83992  0.25866  1.0000
  H   H9        1.0  0.7555900000000002  0.20022000000000004  0.65046  1.0000
  H   H10       1.0  0.8399  0.25863  0.7722  1.0000
  H   H11       1.0  0.5499000000000003  0.10493000000000004  0.34915  1.0000
  H   H12       1.0  0.48629000000000006  0.06763  0.2276  1.0000
  H   H13       1.0  0.24410000000000004  0.89512  0.44483000000000006  1.0000
  H   H14       1.0  0.16004999999999986  0.9319099999999998  0.41861  1.0000
  H   H15       1.0  0.45049  0.79972  0.55557  1.0000
  H   H16       1.0  0.51392  0.7416399999999999  0.5813200000000001  1.0000
  H   H17       1.0  0.10495000000000003  0.34916  0.5499  1.0000
  H   H18       1.0  0.06762000000000004  0.22759000000000001  0.48629000000000006  1.0000
  H   H19       1.0  0.20024000000000003  0.65045  0.75559  1.0000
  H   H20       1.0  0.25865000000000016  0.77219  0.8399100000000002  1.0000
  H   H21       1.0  0.7997100000000003  0.55557  0.45048  1.0000
  H   H22       1.0  0.7416300000000001  0.58131  0.5139  1.0000
  H   H23       1.0  0.89511  0.4448099999999999  0.24409  1.0000
  H   H24       1.0  0.93191  0.4186200000000001  0.16004  1.0000
  H   H25       1.0  0.5551600000000001  0.10486000000000005  0.75589  1.0000
  H   H26       1.0  0.5813800000000002  0.06810000000000006  0.8399800000000001  1.0000
  H   H27       1.0  0.44443000000000005  0.20028  0.54951  1.0000
  H   H28       1.0  0.4186900000000001  0.2584  0.4861  1.0000
  H   H29       1.0  0.3495400000000001  0.79977  0.24442  1.0000
  H   H30       1.0  0.22780000000000003  0.74134  0.16008  1.0000
  H   H31       1.0  0.6508600000000002  0.89507  0.45011  1.0000
  H   H32       1.0  0.7724200000000001  0.93236  0.51369  1.0000
  H   H33       1.0  0.75591  0.55517  0.10487  1.0000
  H   H34       1.0  0.8399600000000002  0.58139  0.06809  1.0000
  H   H35       1.0  0.54952  0.44442000000000004  0.20028  1.0000
  H   H36       1.0  0.48609000000000013  0.41866999999999993  0.25836  1.0000
  H   H37       1.0  0.2444100000000001  0.34953999999999996  0.7997700000000001  1.0000
  H   H38       1.0  0.16010000000000002  0.22779000000000002  0.74137  1.0000
  H   H39       1.0  0.4501100000000002  0.65085  0.8950600000000001  1.0000
  H   H40       1.0  0.51372  0.7723999999999999  0.9323700000000001  1.0000
  H   H41       1.0  0.10489000000000001  0.7559  0.55519  1.0000
  H   H42       1.0  0.06809999999999998  0.83996  0.58138  1.0000
  H   H43       1.0  0.20029000000000005  0.54952  0.44443000000000005  1.0000
  H   H44       1.0  0.25838  0.4861  0.41869  1.0000
  H   H45       1.0  0.7997599999999999  0.24439999999999998  0.34954  1.0000
  H   H46       1.0  0.74135  0.16009000000000004  0.22780000000000003  1.0000
  H   H47       1.0  0.8950500000000003  0.4501  0.65084  1.0000
  H   H48       1.0  0.9323799999999999  0.51371  0.77241  1.0000
  H   H49       1.0  0.44443000000000005  0.54951  0.20028  1.0000
  H   H50       1.0  0.4186900000000001  0.4861  0.2584  1.0000
  H   H51       1.0  0.55517  0.75589  0.10487  1.0000
  H   H52       1.0  0.58138  0.83998  0.06811  1.0000
  H   H53       1.0  0.6508600000000002  0.45010999999999995  0.89507  1.0000
  H   H54       1.0  0.7724200000000001  0.51369  0.93236  1.0000
  H   H55       1.0  0.34954  0.2444099999999999  0.7997700000000001  1.0000
  H   H56       1.0  0.22780000000000003  0.16008  0.74133  1.0000
  H   H57       1.0  0.24442000000000008  0.79977  0.34954  1.0000
  H   H58       1.0  0.16011  0.74137  0.22779  1.0000
  H   H59       1.0  0.4501100000000001  0.89506  0.65085  1.0000
  H   H60       1.0  0.51372  0.93237  0.7724  1.0000
  H   H61       1.0  0.75591  0.10486999999999999  0.55517  1.0000
  H   H62       1.0  0.8399600000000002  0.06808000000000002  0.58139  1.0000
  H   H63       1.0  0.54952  0.20028  0.44442  1.0000
  H   H64       1.0  0.48609000000000013  0.2583599999999999  0.41868000000000005  1.0000
  H   H65       1.0  0.8950500000000002  0.65084  0.45010000000000006  1.0000
  H   H66       1.0  0.9323799999999999  0.7724099999999999  0.51371  1.0000
  H   H67       1.0  0.79977  0.34954  0.24441  1.0000
  H   H68       1.0  0.74135  0.2278  0.16009  1.0000
  H   H69       1.0  0.20029000000000008  0.44442000000000004  0.5495200000000001  1.0000
  H   H70       1.0  0.25838  0.41868  0.4861  1.0000
  H   H71       1.0  0.10489000000000004  0.55518  0.75591  1.0000
  H   H72       1.0  0.06809999999999998  0.58138  0.83996  1.0000
  H   H73       1.0  0.44484  0.89513  0.24411000000000005  1.0000
  H   H74       1.0  0.4186300000000001  0.93189  0.16002  1.0000
  H   H75       1.0  0.55557  0.79972  0.45048  1.0000
  H   H76       1.0  0.58131  0.7415999999999999  0.5139  1.0000
  H   H77       1.0  0.65046  0.20022  0.75558  1.0000
  H   H78       1.0  0.7722100000000003  0.2586600000000001  0.8399200000000001  1.0000
  H   H79       1.0  0.34914  0.10492000000000001  0.54989  1.0000
  H   H80       1.0  0.22759000000000007  0.06763000000000005  0.4863000000000001  1.0000
  H   H81       1.0  0.2441000000000002  0.4448200000000001  0.8951200000000001  1.0000
  H   H82       1.0  0.16005  0.4186  0.93191  1.0000
  H   H83       1.0  0.45049  0.55557  0.79972  1.0000
  H   H84       1.0  0.51392  0.58132  0.74164  1.0000
  H   H85       1.0  0.7555900000000002  0.65046  0.20023000000000002  1.0000
  H   H86       1.0  0.8399  0.7722099999999998  0.25863  1.0000
  H   H87       1.0  0.5499000000000002  0.34914999999999996  0.10493  1.0000
  H   H88       1.0  0.48629000000000006  0.2276  0.06763  1.0000
  H   H89       1.0  0.89511  0.24409  0.44481  1.0000
  H   H90       1.0  0.9319100000000001  0.16004000000000004  0.41862000000000005  1.0000
  H   H91       1.0  0.7997100000000003  0.45047  0.55557  1.0000
  H   H92       1.0  0.7416300000000001  0.5139  0.58131  1.0000
  H   H93       1.0  0.2002400000000001  0.75559  0.65046  1.0000
  H   H94       1.0  0.25865000000000005  0.8399099999999999  0.7722  1.0000
  H   H95       1.0  0.10495000000000003  0.5499  0.34916  1.0000
  H   H96       1.0  0.06762000000000004  0.48629  0.22759000000000004  1.0000
  C   C1        1.0  0.58084  0.42351  0.79483  1.0000
  C   C2        1.0  0.5304600000000002  0.49658  0.71097  1.0000
  C   C3        1.0  0.4194299999999999  0.2141299999999999  0.84279  1.0000
  C   C4        1.0  0.46940000000000004  0.18045  0.96593  1.0000
  C   C5        1.0  0.37132000000000004  0.57659  0.15725  1.0000
  C   C6        1.0  0.21425000000000002  0.50333  0.03386  1.0000
  C   C7        1.0  0.62841  0.78576  0.20514000000000002  1.0000
  C   C8        1.0  0.7855800000000002  0.81948  0.28902  1.0000
  C   C9        1.0  0.7857700000000001  0.20514  0.62841  1.0000
  C   C10       1.0  0.8194900000000003  0.28901000000000004  0.78558  1.0000
  C   C11       1.0  0.57661  0.15725  0.37132  1.0000
  C   C12       1.0  0.5033300000000002  0.03386  0.21426  1.0000
  C   C13       1.0  0.21413  0.84278  0.41943  1.0000
  C   C14       1.0  0.18046  0.9659299999999997  0.4694  1.0000
  C   C15       1.0  0.4235100000000001  0.7948199999999999  0.58083  1.0000
  C   C16       1.0  0.4965800000000001  0.71098  0.53047  1.0000
  C   C17       1.0  0.15726  0.37132  0.5766  1.0000
  C   C18       1.0  0.033860000000000015  0.21425999999999998  0.50333  1.0000
  C   C19       1.0  0.20515000000000008  0.6284000000000001  0.7857700000000001  1.0000
  C   C20       1.0  0.28901  0.78557  0.81948  1.0000
  C   C21       1.0  0.7948300000000001  0.58084  0.4235  1.0000
  C   C22       1.0  0.7109900000000002  0.53046  0.49658  1.0000
  C   C23       1.0  0.84278  0.41943  0.21413  1.0000
  C   C24       1.0  0.9659400000000001  0.46940000000000004  0.18046  1.0000
  C   C25       1.0  0.58057  0.15721  0.7858600000000001  1.0000
  C   C26       1.0  0.5306000000000001  0.03405999999999995  0.81955  1.0000
  C   C27       1.0  0.41916000000000003  0.20515999999999998  0.57648  1.0000
  C   C28       1.0  0.46954  0.28901999999999994  0.50342  1.0000
  C   C29       1.0  0.37160000000000004  0.79486  0.21424000000000004  1.0000
  C   C30       1.0  0.21441999999999997  0.71098  0.18051  1.0000
  C   C31       1.0  0.62869  0.84275  0.42341  1.0000
  C   C32       1.0  0.7857500000000002  0.96614  0.49667000000000006  1.0000
  C   C33       1.0  0.78588  0.58057  0.15721000000000002  1.0000
  C   C34       1.0  0.81955  0.5306  0.03407  1.0000
  C   C35       1.0  0.5765  0.41917  0.20518  1.0000
  C   C36       1.0  0.5034199999999999  0.46952999999999995  0.28901  1.0000
  C   C37       1.0  0.21423000000000006  0.37159000000000003  0.7948500000000001  1.0000
  C   C38       1.0  0.18052000000000007  0.21441999999999997  0.71099  1.0000
  C   C39       1.0  0.4234000000000001  0.62868  0.8427500000000001  1.0000
  C   C40       1.0  0.4966800000000002  0.78574  0.96614  1.0000
  C   C41       1.0  0.15722000000000005  0.78587  0.58057  1.0000
  C   C42       1.0  0.034070000000000045  0.81953  0.5306  1.0000
  C   C43       1.0  0.20518000000000008  0.57649  0.41916  1.0000
  C   C44       1.0  0.28902  0.50342  0.46954  1.0000
  C   C45       1.0  0.7948500000000001  0.21422999999999998  0.3716  1.0000
  C   C46       1.0  0.711  0.18052  0.21443  1.0000
  C   C47       1.0  0.84275  0.42339  0.6286700000000001  1.0000
  C   C48       1.0  0.9661500000000001  0.49667  0.7857400000000001  1.0000
  C   C49       1.0  0.41916000000000014  0.57649  0.20517000000000005  1.0000
  C   C50       1.0  0.46954  0.50342  0.28903  1.0000
  C   C51       1.0  0.5805700000000001  0.7858600000000002  0.15721000000000002  1.0000
  C   C52       1.0  0.5306000000000001  0.81955  0.03406  1.0000
  C   C53       1.0  0.6286900000000001  0.42340000000000005  0.8427500000000001  1.0000
  C   C54       1.0  0.7857500000000002  0.49667  0.96614  1.0000
  C   C55       1.0  0.3715900000000001  0.21422999999999992  0.79486  1.0000
  C   C56       1.0  0.21442000000000008  0.1805100000000001  0.71098  1.0000
  C   C57       1.0  0.21423000000000006  0.79485  0.37159  1.0000
  C   C58       1.0  0.18052  0.71099  0.21442000000000003  1.0000
  C   C59       1.0  0.4234000000000001  0.8427500000000001  0.6286800000000001  1.0000
  C   C60       1.0  0.4966800000000001  0.9661299999999999  0.7857400000000001  1.0000
  C   C61       1.0  0.78588  0.15720999999999993  0.58057  1.0000
  C   C62       1.0  0.81955  0.03407000000000001  0.5306  1.0000
  C   C63       1.0  0.5765  0.20517  0.41917  1.0000
  C   C64       1.0  0.50342  0.28901  0.46953  1.0000
  C   C65       1.0  0.84275  0.62867  0.42339000000000004  1.0000
  C   C66       1.0  0.96615  0.78574  0.49667000000000006  1.0000
  C   C67       1.0  0.7948600000000002  0.37159999999999993  0.21423  1.0000
  C   C68       1.0  0.711  0.21443  0.18052000000000004  1.0000
  C   C69       1.0  0.20518000000000003  0.41916000000000003  0.5764900000000001  1.0000
  C   C70       1.0  0.28902  0.46954  0.50342  1.0000
  C   C71       1.0  0.15722000000000003  0.58057  0.7858700000000001  1.0000
  C   C72       1.0  0.034070000000000045  0.5305900000000001  0.8195300000000001  1.0000
  C   C73       1.0  0.41943000000000014  0.84279  0.21414000000000002  1.0000
  C   C74       1.0  0.46940000000000004  0.9659299999999998  0.18045  1.0000
  C   C75       1.0  0.58084  0.7948299999999999  0.42351000000000005  1.0000
  C   C76       1.0  0.5304600000000002  0.71097  0.49658  1.0000
  C   C77       1.0  0.62841  0.20512999999999998  0.78576  1.0000
  C   C78       1.0  0.7855800000000002  0.28901000000000004  0.81948  1.0000
  C   C79       1.0  0.3713200000000001  0.15724000000000007  0.5765900000000002  1.0000
  C   C80       1.0  0.21425  0.033859999999999994  0.50333  1.0000
  C   C81       1.0  0.2141300000000002  0.4194300000000002  0.8427800000000002  1.0000
  C   C82       1.0  0.18046  0.46939  0.96593  1.0000
  C   C83       1.0  0.4235100000000001  0.58083  0.79482  1.0000
  C   C84       1.0  0.4965800000000001  0.53046  0.71098  1.0000
  C   C85       1.0  0.7857800000000003  0.62841  0.20515  1.0000
  C   C86       1.0  0.8194900000000003  0.78558  0.28901  1.0000
  C   C87       1.0  0.57661  0.37132  0.15725  1.0000
  C   C88       1.0  0.5033300000000002  0.21425999999999998  0.03386  1.0000
  C   C89       1.0  0.84278  0.21413  0.41943  1.0000
  C   C90       1.0  0.9659400000000001  0.18045999999999995  0.4694  1.0000
  C   C91       1.0  0.7948300000000001  0.4235  0.58084  1.0000
  C   C92       1.0  0.7109900000000002  0.49657  0.53046  1.0000
  C   C93       1.0  0.20514999999999994  0.7857699999999997  0.6284  1.0000
  C   C94       1.0  0.28901  0.81947  0.78557  1.0000
  C   C95       1.0  0.15725999999999996  0.5765999999999998  0.37132  1.0000
  C   C96       1.0  0.03386000000000005  0.5033300000000002  0.21426  1.0000
  C   C97       1.0  0.43142000000000014  0.43141  0.63472  1.0000
  C   C98       1.0  0.56845  0.20332  0.0  1.0000
  C   C99       1.0  0.20332000000000006  0.56846  1e-05  1.0000
  C   C100      1.0  0.79658  0.79658  0.3651  1.0000
  C   C101      1.0  0.79658  0.3651  0.79658  1.0000
  C   C102      1.0  0.56845  0.0  0.20332  1.0000
  C   C103      1.0  0.20332000000000006  1.0000000000063001e-05  0.5684600000000001  1.0000
  C   C104      1.0  0.4314200000000002  0.63472  0.43141000000000007  1.0000
  C   C105      1.0  1.0000000000042358e-05  0.20333000000000007  0.5684600000000001  1.0000
  C   C106      1.0  0.36509  0.7965599999999999  0.79656  1.0000
  C   C107      1.0  0.6347300000000002  0.4313999999999999  0.4314  1.0000
  C   C108      1.0  9.999999999989582e-06  0.5684599999999999  0.20333000000000004  1.0000
  C   C109      1.0  0.43155000000000016  0.99999  0.7966800000000002  1.0000
  C   C110      1.0  0.5685900000000002  0.36528  0.56859  1.0000
  C   C111      1.0  0.20343000000000006  0.6349  0.20342  1.0000
  C   C112      1.0  0.79668  0.9999900000000002  0.43154000000000003  1.0000
  C   C113      1.0  0.79668  0.43154  0.99999  1.0000
  C   C114      1.0  0.5685900000000002  0.5685899999999999  0.36528  1.0000
  C   C115      1.0  0.20342  0.20341999999999996  0.6349  1.0000
  C   C116      1.0  0.4315500000000001  0.7966799999999999  0.0  1.0000
  C   C117      1.0  0.0  0.7966699999999999  0.43154000000000003  1.0000
  C   C118      1.0  0.36528  0.56859  0.56859  1.0000
  C   C119      1.0  0.63491  0.20343  0.20343  1.0000
  C   C120      1.0  1.7591829913653455e-17  0.43153  0.79667  1.0000
  C   C121      1.0  0.6058700000000001  0.35511000000000004  0.7491300000000001  1.0000
  C   C122      1.0  0.39428  0.1434999999999999  0.74915  1.0000
  C   C123      1.0  0.39414  0.64489  0.25087000000000004  1.0000
  C   C124      1.0  0.60572  0.8564899999999998  0.25085  1.0000
  C   C125      1.0  0.85649  0.25083000000000005  0.6057100000000001  1.0000
  C   C126      1.0  0.6448900000000001  0.25086  0.39414  1.0000
  C   C127      1.0  0.14351999999999995  0.74916  0.39429000000000003  1.0000
  C   C128      1.0  0.35511  0.7491399999999998  0.60585  1.0000
  C   C129      1.0  0.25085999999999997  0.39413999999999993  0.64489  1.0000
  C   C130      1.0  0.25084000000000006  0.6057  0.8564700000000001  1.0000
  C   C131      1.0  0.74915  0.60586  0.35511  1.0000
  C   C132      1.0  0.7491700000000002  0.3943  0.14352000000000004  1.0000
  C   C133      1.0  0.60572  0.25084  0.85649  1.0000
  C   C134      1.0  0.39413000000000004  0.25087  0.64489  1.0000
  C   C135      1.0  0.3942899999999999  0.7491499999999999  0.14351  1.0000
  C   C136      1.0  0.60587  0.7491299999999997  0.35511  1.0000
  C   C137      1.0  0.85649  0.60571  0.25083000000000005  1.0000
  C   C138      1.0  0.6448900000000001  0.39413999999999993  0.25086  1.0000
  C   C139      1.0  0.14352000000000006  0.39428  0.74916  1.0000
  C   C140      1.0  0.35511  0.60585  0.74914  1.0000
  C   C141      1.0  0.25084  0.85647  0.6057  1.0000
  C   C142      1.0  0.25086  0.64489  0.39414  1.0000
  C   C143      1.0  0.7491700000000002  0.14352  0.3943  1.0000
  C   C144      1.0  0.7491400000000001  0.35509999999999997  0.60586  1.0000
  N   N1        1.0  0.56669  0.37999  0.7353  1.0000
  N   N2        1.0  0.4884100000000002  0.43327999999999994  0.6625500000000001  1.0000
  N   N3        1.0  0.43349000000000004  0.1688  0.81327  1.0000
  N   N4        1.0  0.5114600000000002  0.17423000000000008  0.9448000000000002  1.0000
  N   N5        1.0  0.35549  0.6201399999999998  0.18675  1.0000
  N   N6        1.0  0.22916000000000006  0.5666  0.05516000000000001  1.0000
  N   N7        1.0  0.6443400000000002  0.8310500000000002  0.26468  1.0000
  N   N8        1.0  0.7706599999999999  0.8257599999999999  0.33731  1.0000
  N   N9        1.0  0.8310500000000003  0.2646800000000001  0.6443400000000001  1.0000
  N   N10       1.0  0.82576  0.3373  0.77065  1.0000
  N   N11       1.0  0.62015  0.18674  0.35549  1.0000
  N   N12       1.0  0.56659  0.05516  0.22916  1.0000
  N   N13       1.0  0.16881000000000002  0.81328  0.43349000000000004  1.0000
  N   N14       1.0  0.17424000000000012  0.9448  0.5114600000000001  1.0000
  N   N15       1.0  0.37999000000000005  0.7352899999999999  0.56667  1.0000
  N   N16       1.0  0.4332900000000001  0.66256  0.48842000000000013  1.0000
  N   N17       1.0  0.18676  0.35549  0.62015  1.0000
  N   N18       1.0  0.05515999999999998  0.22915999999999997  0.56659  1.0000
  N   N19       1.0  0.26468  0.64432  0.83104  1.0000
  N   N20       1.0  0.3373000000000001  0.77064  0.82575  1.0000
  N   N21       1.0  0.7353100000000002  0.56668  0.37999  1.0000
  N   N22       1.0  0.6625600000000001  0.48841000000000007  0.4332800000000001  1.0000
  N   N23       1.0  0.8132800000000002  0.4334900000000001  0.16881000000000002  1.0000
  N   N24       1.0  0.94481  0.5114700000000001  0.17425  1.0000
  N   N25       1.0  0.5665200000000001  0.18672000000000002  0.8311900000000001  1.0000
  N   N26       1.0  0.4885400000000001  0.05520000000000002  0.82577  1.0000
  N   N27       1.0  0.43331000000000014  0.26470000000000005  0.6200000000000001  1.0000
  N   N28       1.0  0.51159  0.33745  0.56672  1.0000
  N   N29       1.0  0.3556600000000001  0.73532  0.16894000000000003  1.0000
  N   N30       1.0  0.22935  0.66269  0.17424  1.0000
  N   N31       1.0  0.64452  0.81324  0.37986  1.0000
  N   N32       1.0  0.7708500000000001  0.94484  0.4334  1.0000
  N   N33       1.0  0.8312000000000003  0.56651  0.18671000000000001  1.0000
  N   N34       1.0  0.8257700000000002  0.48854  0.0552  1.0000
  N   N35       1.0  0.6200100000000001  0.4333299999999999  0.2647  1.0000
  N   N36       1.0  0.56672  0.51158  0.33743000000000006  1.0000
  N   N37       1.0  0.16895000000000002  0.35566  0.73531  1.0000
  N   N38       1.0  0.17424000000000006  0.22934999999999997  0.6627  1.0000
  N   N39       1.0  0.37985000000000013  0.64451  0.81325  1.0000
  N   N40       1.0  0.43342  0.7708399999999997  0.9448400000000001  1.0000
  N   N41       1.0  0.1867300000000001  0.83119  0.56651  1.0000
  N   N42       1.0  0.05518999999999996  0.8257499999999999  0.4885300000000001  1.0000
  N   N43       1.0  0.2647  0.62001  0.43332  1.0000
  N   N44       1.0  0.33744  0.56672  0.51159  1.0000
  N   N45       1.0  0.73532  0.16894999999999996  0.35567  1.0000
  N   N46       1.0  0.6627100000000001  0.17425  0.22936000000000004  1.0000
  N   N47       1.0  0.81325  0.37985  0.64451  1.0000
  N   N48       1.0  0.94485  0.43339999999999995  0.7708400000000001  1.0000
  N   N49       1.0  0.43332  0.62  0.2647  1.0000
  N   N50       1.0  0.51159  0.5667200000000001  0.3374500000000001  1.0000
  N   N51       1.0  0.56652  0.83119  0.18673  1.0000
  N   N52       1.0  0.4885400000000001  0.82577  0.0552  1.0000
  N   N53       1.0  0.64452  0.3798599999999999  0.8132400000000001  1.0000
  N   N54       1.0  0.7708500000000001  0.43339999999999995  0.9448400000000001  1.0000
  N   N55       1.0  0.3556600000000001  0.16894000000000006  0.7353200000000001  1.0000
  N   N56       1.0  0.22935  0.17424  0.66269  1.0000
  N   N57       1.0  0.16895000000000002  0.73531  0.35566000000000003  1.0000
  N   N58       1.0  0.17425000000000004  0.6627  0.22935000000000005  1.0000
  N   N59       1.0  0.37985000000000013  0.81325  0.64451  1.0000
  N   N60       1.0  0.43342000000000014  0.94484  0.7708400000000001  1.0000
  N   N61       1.0  0.8312000000000003  0.18671  0.56651  1.0000
  N   N62       1.0  0.8257700000000002  0.05520000000000002  0.48854  1.0000
  N   N63       1.0  0.6200100000000001  0.2647  0.43333000000000005  1.0000
  N   N64       1.0  0.56671  0.33742999999999995  0.51158  1.0000
  N   N65       1.0  0.81325  0.6445  0.37985  1.0000
  N   N66       1.0  0.9448499999999999  0.7708399999999997  0.43341  1.0000
  N   N67       1.0  0.73532  0.35567  0.16896  1.0000
  N   N68       1.0  0.66271  0.22934999999999997  0.17425  1.0000
  N   N69       1.0  0.2647  0.43331  0.62001  1.0000
  N   N70       1.0  0.33744  0.51159  0.56672  1.0000
  N   N71       1.0  0.18673000000000003  0.5665100000000001  0.8311900000000001  1.0000
  N   N72       1.0  0.055189999999999996  0.4885299999999999  0.82575  1.0000
  N   N73       1.0  0.43349000000000004  0.8132699999999999  0.16881000000000002  1.0000
  N   N74       1.0  0.51147  0.9448  0.17423  1.0000
  N   N75       1.0  0.56669  0.7353  0.37999  1.0000
  N   N76       1.0  0.4884100000000002  0.66255  0.4332800000000001  1.0000
  N   N77       1.0  0.6443400000000002  0.26468  0.83105  1.0000
  N   N78       1.0  0.7706500000000001  0.33730000000000004  0.8257600000000002  1.0000
  N   N79       1.0  0.35549  0.18674999999999997  0.62014  1.0000
  N   N80       1.0  0.22916000000000006  0.055159999999999994  0.5666  1.0000
  N   N81       1.0  0.16881000000000002  0.43349  0.81328  1.0000
  N   N82       1.0  0.17424000000000017  0.51145  0.9448000000000002  1.0000
  N   N83       1.0  0.37999  0.5666699999999998  0.73529  1.0000
  N   N84       1.0  0.43328999999999995  0.4884099999999999  0.66257  1.0000
  N   N85       1.0  0.8310500000000001  0.6443399999999999  0.26468  1.0000
  N   N86       1.0  0.82576  0.77065  0.3373  1.0000
  N   N87       1.0  0.62015  0.35549  0.18674  1.0000
  N   N88       1.0  0.56659  0.22915999999999997  0.05516000000000001  1.0000
  N   N89       1.0  0.8132800000000002  0.16881000000000002  0.43349000000000004  1.0000
  N   N90       1.0  0.94481  0.17425  0.51147  1.0000
  N   N91       1.0  0.7353100000000002  0.37999  0.56668  1.0000
  N   N92       1.0  0.66256  0.43327999999999994  0.48841000000000007  1.0000
  N   N93       1.0  0.26467999999999997  0.8310399999999999  0.64432  1.0000
  N   N94       1.0  0.3373000000000001  0.82574  0.77064  1.0000
  N   N95       1.0  0.18676000000000004  0.62015  0.35549  1.0000
  N   N96       1.0  0.05515999999999999  0.56659  0.22916  1.0000
  N   N97       1.0  0.3748500000000001  0.37483999999999995  0.57989  1.0000
  N   N98       1.0  0.62486  0.20478  0.99996  1.0000
  N   N99       1.0  0.20480000000000015  0.62488  0.9999800000000001  1.0000
  N   N100      1.0  0.79506  0.7950699999999999  0.42003  1.0000
  N   N101      1.0  0.79506  0.42003  0.79507  1.0000
  N   N102      1.0  0.62486  0.9999599999999998  0.20478  1.0000
  N   N103      1.0  0.20480000000000004  0.99998  0.62487  1.0000
  N   N104      1.0  0.3748500000000001  0.57989  0.37484  1.0000
  N   N105      1.0  0.9999700000000001  0.20479  0.62487  1.0000
  N   N106      1.0  0.42004  0.7950699999999999  0.79507  1.0000
  N   N107      1.0  0.5798900000000002  0.37483999999999995  0.37484  1.0000
  N   N108      1.0  0.9999700000000001  0.62487  0.20479000000000003  1.0000
  N   N109      1.0  0.37514  3.0000000000039693e-05  0.79521  1.0000
  N   N110      1.0  0.62515  0.4200999999999999  0.62515  1.0000
  N   N111      1.0  0.20494  0.57997  0.20493000000000003  1.0000
  N   N112      1.0  0.79521  1.999999999997669e-05  0.37512  1.0000
  N   N113      1.0  0.79521  0.37512  2e-05  1.0000
  N   N114      1.0  0.62515  0.62515  0.42011  1.0000
  N   N115      1.0  0.20494  0.20493  0.57997  1.0000
  N   N116      1.0  0.37514  0.79522  4e-05  1.0000
  N   N117      1.0  3.000000000000393e-05  0.79521  0.37512  1.0000
  N   N118      1.0  0.42012  0.62516  0.62516  1.0000
  N   N119      1.0  0.57997  0.20493  0.20493000000000003  1.0000
  N   N120      1.0  2.9999999999986336e-05  0.37512  0.79521  1.0000
  N   N121      1.0  0.60472  0.30552000000000007  0.70068  1.0000
  N   N122      1.0  0.39525  0.09605000000000005  0.70068  1.0000
  N   N123      1.0  0.3952900000000001  0.6944799999999999  0.29932  1.0000
  N   N124      1.0  0.6047500000000001  0.90395  0.29931  1.0000
  N   N125      1.0  0.9039300000000001  0.29929  0.60475  1.0000
  N   N126      1.0  0.69446  0.29929  0.39528000000000013  1.0000
  N   N127      1.0  0.09606999999999999  0.70071  0.39525  1.0000
  N   N128      1.0  0.30554  0.7007  0.60472  1.0000
  N   N129      1.0  0.2993  0.39528  0.69447  1.0000
  N   N130      1.0  0.2992900000000002  0.6047300000000001  0.9039200000000001  1.0000
  N   N131      1.0  0.70071  0.60471  0.30553  1.0000
  N   N132      1.0  0.70071  0.39526999999999995  0.09608000000000001  1.0000
  N   N133      1.0  0.6047500000000001  0.2993099999999999  0.90395  1.0000
  N   N134      1.0  0.3952900000000001  0.29931999999999986  0.69448  1.0000
  N   N135      1.0  0.39525  0.70068  0.09605  1.0000
  N   N136      1.0  0.60472  0.70068  0.30552  1.0000
  N   N137      1.0  0.9039300000000001  0.60474  0.29929  1.0000
  N   N138      1.0  0.69446  0.39528  0.29929  1.0000
  N   N139      1.0  0.09607000000000003  0.39525  0.7007100000000002  1.0000
  N   N140      1.0  0.3055400000000001  0.60471  0.7007000000000001  1.0000
  N   N141      1.0  0.29929000000000006  0.90392  0.60473  1.0000
  N   N142      1.0  0.2993  0.69447  0.39529000000000003  1.0000
  N   N143      1.0  0.70071  0.09607000000000002  0.39526  1.0000
  N   N144      1.0  0.7007100000000005  0.30553  0.60471  1.0000
  O   O1        1.0  0.5660900000000001  0.2849  0.6425800000000002  1.0000
  O   O2        1.0  0.3246100000000001  0.37839  0.55702  1.0000
  O   O3        1.0  0.43378000000000005  0.07656999999999994  0.71872  1.0000
  O   O4        1.0  0.67511  0.23184  0.05379000000000001  1.0000
  O   O5        1.0  0.3580900000000001  0.71527  0.28124  1.0000
  O   O6        1.0  0.17840000000000003  0.62121  0.9461  1.0000
  O   O7        1.0  0.6421  0.92325  0.3574  1.0000
  O   O8        1.0  0.8215900000000003  0.7678299999999999  0.4429900000000001  1.0000
  O   O9        1.0  0.9232300000000002  0.35737  0.64211  1.0000
  O   O10       1.0  0.76785  0.44301  0.82163  1.0000
  O   O11       1.0  0.71525  0.2812  0.35808000000000006  1.0000
  O   O12       1.0  0.62119  0.94609  0.17835000000000004  1.0000
  O   O13       1.0  0.07660000000000003  0.71876  0.43378000000000005  1.0000
  O   O14       1.0  0.23182000000000005  0.05379999999999997  0.6751100000000001  1.0000
  O   O15       1.0  0.2849400000000001  0.6425900000000001  0.5661000000000002  1.0000
  O   O16       1.0  0.3784000000000001  0.55698  0.3246  1.0000
  O   O17       1.0  0.28122  0.35809  0.71525  1.0000
  O   O18       1.0  0.94611  0.17838000000000004  0.6212100000000002  1.0000
  O   O19       1.0  0.3573700000000002  0.6420800000000001  0.92322  1.0000
  O   O20       1.0  0.4430200000000001  0.82162  0.7678600000000001  1.0000
  O   O21       1.0  0.64261  0.5661  0.28493  1.0000
  O   O22       1.0  0.55699  0.3246  0.37839  1.0000
  O   O23       1.0  0.7187600000000001  0.43379  0.0766  1.0000
  O   O24       1.0  0.05379000000000008  0.67511  0.23182000000000005  1.0000
  O   O25       1.0  0.56623  0.28127  0.9234200000000001  1.0000
  O   O26       1.0  0.32490000000000013  0.94621  0.7681600000000001  1.0000
  O   O27       1.0  0.43391  0.35742  0.7151  1.0000
  O   O28       1.0  0.6754  0.4429699999999999  0.6216000000000002  1.0000
  O   O29       1.0  0.3579100000000001  0.6426  0.07675000000000001  1.0000
  O   O30       1.0  0.17841  0.55701  0.23217  1.0000
  O   O31       1.0  0.64191  0.7187499999999999  0.28473000000000004  1.0000
  O   O32       1.0  0.8216  0.05389  0.37879  1.0000
  O   O33       1.0  0.9234000000000002  0.56621  0.28124  1.0000
  O   O34       1.0  0.76818  0.32488000000000006  0.94619  1.0000
  O   O35       1.0  0.71506  0.43389999999999995  0.3574  1.0000
  O   O36       1.0  0.62161  0.6753999999999999  0.4430200000000001  1.0000
  O   O37       1.0  0.07676999999999999  0.35788999999999993  0.64262  1.0000
  O   O38       1.0  0.23215  0.17836999999999997  0.5569900000000001  1.0000
  O   O39       1.0  0.28476  0.6419099999999998  0.7188  1.0000
  O   O40       1.0  0.3788100000000001  0.8216499999999999  0.05391  1.0000
  O   O41       1.0  0.28124999999999994  0.92339  0.56621  1.0000
  O   O42       1.0  0.9462200000000002  0.7681799999999999  0.32489000000000007  1.0000
  O   O43       1.0  0.35740000000000005  0.71507  0.4339  1.0000
  O   O44       1.0  0.4430200000000001  0.62161  0.6754  1.0000
  O   O45       1.0  0.6426300000000003  0.07678  0.35791  1.0000
  O   O46       1.0  0.55699  0.23214  0.17837000000000003  1.0000
  O   O47       1.0  0.7187900000000003  0.28474  0.6419  1.0000
  O   O48       1.0  0.05390000000000002  0.37879  0.8216200000000001  1.0000
  O   O49       1.0  0.43391  0.7151  0.35742  1.0000
  O   O50       1.0  0.6754000000000002  0.6216  0.44298000000000004  1.0000
  O   O51       1.0  0.56623  0.9234199999999999  0.28128  1.0000
  O   O52       1.0  0.32490000000000013  0.7681600000000001  0.9462100000000001  1.0000
  O   O53       1.0  0.64191  0.28473000000000004  0.7187500000000001  1.0000
  O   O54       1.0  0.8216  0.37879  0.05389  1.0000
  O   O55       1.0  0.3579  0.07675  0.6426  1.0000
  O   O56       1.0  0.17841  0.23217  0.55701  1.0000
  O   O57       1.0  0.07676999999999999  0.64262  0.35789  1.0000
  O   O58       1.0  0.23215  0.55699  0.17837000000000003  1.0000
  O   O59       1.0  0.28476000000000007  0.71879  0.64192  1.0000
  O   O60       1.0  0.3788100000000001  0.053910000000000034  0.8216500000000001  1.0000
  O   O61       1.0  0.9234000000000002  0.28123  0.56621  1.0000
  O   O62       1.0  0.76818  0.9461899999999999  0.32489000000000007  1.0000
  O   O63       1.0  0.71506  0.3574  0.4339  1.0000
  O   O64       1.0  0.62161  0.44302  0.6754  1.0000
  O   O65       1.0  0.7187900000000003  0.6419  0.28474  1.0000
  O   O66       1.0  0.0539  0.82162  0.37879  1.0000
  O   O67       1.0  0.6426300000000003  0.35791  0.07678  1.0000
  O   O68       1.0  0.55699  0.17837  0.23214000000000004  1.0000
  O   O69       1.0  0.3574000000000001  0.43389000000000005  0.7150700000000001  1.0000
  O   O70       1.0  0.44302  0.6753899999999998  0.62161  1.0000
  O   O71       1.0  0.28125000000000006  0.56621  0.9233900000000002  1.0000
  O   O72       1.0  0.9462200000000002  0.32489  0.76818  1.0000
  O   O73       1.0  0.43378000000000005  0.71872  0.07657  1.0000
  O   O74       1.0  0.67511  0.05379  0.23184  1.0000
  O   O75       1.0  0.5660900000000001  0.64258  0.28490000000000004  1.0000
  O   O76       1.0  0.3246100000000001  0.5570200000000001  0.37839  1.0000
  O   O77       1.0  0.6421  0.35739  0.92325  1.0000
  O   O78       1.0  0.8215899999999999  0.44299  0.76783  1.0000
  O   O79       1.0  0.3580900000000001  0.28124  0.71527  1.0000
  O   O80       1.0  0.17840000000000003  0.9461  0.6212100000000002  1.0000
  O   O81       1.0  0.07660000000000004  0.43378000000000005  0.71876  1.0000
  O   O82       1.0  0.23182000000000005  0.67511  0.053810000000000004  1.0000
  O   O83       1.0  0.28494  0.5661  0.6426  1.0000
  O   O84       1.0  0.3784000000000001  0.3246  0.55698  1.0000
  O   O85       1.0  0.9232300000000002  0.64211  0.35738  1.0000
  O   O86       1.0  0.76785  0.82163  0.44301  1.0000
  O   O87       1.0  0.71525  0.35808  0.2812  1.0000
  O   O88       1.0  0.62119  0.17835000000000006  0.9460900000000001  1.0000
  O   O89       1.0  0.7187600000000001  0.07660000000000002  0.43379  1.0000
  O   O90       1.0  0.053790000000000046  0.23181999999999997  0.6751100000000001  1.0000
  O   O91       1.0  0.64261  0.28493000000000007  0.5661000000000002  1.0000
  O   O92       1.0  0.55699  0.37839  0.3246  1.0000
  O   O93       1.0  0.35737  0.92322  0.64209  1.0000
  O   O94       1.0  0.4430200000000001  0.76786  0.82163  1.0000
  O   O95       1.0  0.28122  0.7152499999999999  0.35810000000000003  1.0000
  O   O96       1.0  0.94611  0.6212099999999998  0.17838  1.0000
