data_image0
_chemical_formula_structural       Si16Ag8H256C216N32
_chemical_formula_sum              "Si16 Ag8 H256 C216 N32"
_cell_length_a       18.1995
_cell_length_b       17.78836
_cell_length_c       20.415380000000003
_cell_angle_alpha    90.00959999999999
_cell_angle_beta     90.00731999999999
_cell_angle_gamma    90.0153

_symmetry_space_group_name_H-M    'P 1'
_symmetry_Int_Tables_number       1

loop_
  _symmetry_equiv_pos_as_xyz
  'x,y,z'

loop_
  _atom_site_type_symbol
  _atom_site_label
  _atom_site_symmetry_multiplicity
  _atom_site_fract_x
  _atom_site_fract_y
  _atom_site_fract_z
  _atom_site_occupancy
  Si  Si1       1.0  0.96168  0.52454  0.14746  1.0000
  Si  Si2       1.0  0.12433000000000001  0.49043  0.63465  1.0000
  Si  Si3       1.0  0.53832  0.47537999999999997  0.6474400000000001  1.0000
  Si  Si4       1.0  0.37563  0.50951  0.13468  1.0000
  Si  Si5       1.0  0.03829  0.02457  0.35252  1.0000
  Si  Si6       1.0  0.87566  0.9903999999999998  0.86533  1.0000
  Si  Si7       1.0  0.46174000000000004  0.97547  0.8525200000000001  1.0000
  Si  Si8       1.0  0.62437  0.00964  0.36537  1.0000
  Si  Si9       1.0  0.44677  0.8273  0.13857  1.0000
  Si  Si10      1.0  0.95821  0.67935  0.42906  1.0000
  Si  Si11      1.0  0.05326  0.17268  0.63861  1.0000
  Si  Si12      1.0  0.54169  0.32073  0.92904  1.0000
  Si  Si13      1.0  0.55318  0.32736  0.3613700000000001  1.0000
  Si  Si14      1.0  0.04168  0.17928999999999995  0.07096000000000001  1.0000
  Si  Si15      1.0  0.9467700000000001  0.67263  0.86142  1.0000
  Si  Si16      1.0  0.4582800000000001  0.8206099999999997  0.57089  1.0000
  Ag  Ag1       1.0  0.83132  0.3849  0.8499500000000001  1.0000
  Ag  Ag2       1.0  0.66871  0.61511  0.34996  1.0000
  Ag  Ag3       1.0  0.16865  0.88497  0.65002  1.0000
  Ag  Ag4       1.0  0.33131  0.11496  0.15003  1.0000
  Ag  Ag5       1.0  0.82834  0.8663899999999998  0.14696  1.0000
  Ag  Ag6       1.0  0.67168  0.13361  0.64696  1.0000
  Ag  Ag7       1.0  0.17162  0.36654  0.35306  1.0000
  Ag  Ag8       1.0  0.32832  0.63353  0.8529800000000001  1.0000
  H   H1        1.0  0.97482  0.40096  0.92739  1.0000
  H   H2        1.0  0.02686  0.45182  0.03007  1.0000
  H   H3        1.0  0.80614  0.51578  0.08595000000000003  1.0000
  H   H4        1.0  0.76341  0.4631799999999999  0.9798600000000001  1.0000
  H   H5        1.0  0.847  0.64677  0.15085  1.0000
  H   H6        1.0  0.74408  0.67284  0.22620000000000004  1.0000
  H   H7        1.0  0.79059  0.48590999999999995  0.33973  1.0000
  H   H8        1.0  0.8969100000000001  0.45179  0.2705000000000001  1.0000
  H   H9        1.0  0.00415  0.4342  0.2323  1.0000
  H   H10       1.0  0.02487  0.40037  0.15405  1.0000
  H   H11       1.0  0.14074  0.43791999999999986  0.21333  1.0000
  H   H12       1.0  0.1068  0.52999  0.22447000000000003  1.0000
  H   H13       1.0  0.12776  0.49808  0.14488000000000004  1.0000
  H   H14       1.0  0.98006  0.65515  0.10527000000000002  1.0000
  H   H15       1.0  0.05716999999999999  0.5977199999999999  0.08873  1.0000
  H   H16       1.0  0.04443  0.63467  0.16883  1.0000
  H   H17       1.0  0.01417  0.36591999999999997  0.8332100000000001  1.0000
  H   H18       1.0  0.11692999999999999  0.4154799999999999  0.76707  1.0000
  H   H19       1.0  0.9560899999999999  0.48861  0.6243600000000001  1.0000
  H   H20       1.0  0.85978  0.4398499999999999  0.69868  1.0000
  H   H21       1.0  0.07399  0.6135699999999997  0.7303900000000001  1.0000
  H   H22       1.0  0.08601  0.75235  0.72666  1.0000
  H   H23       1.0  0.18505  0.7469499999999998  0.54465  1.0000
  H   H24       1.0  0.17637  0.60778  0.53869  1.0000
  H   H25       1.0  0.25581  0.4931499999999999  0.66754  1.0000
  H   H26       1.0  0.21425  0.41502  0.70489  1.0000
  H   H27       1.0  0.09264  0.40282  0.54337  1.0000
  H   H28       1.0  0.10481  0.4942599999999999  0.51115  1.0000
  H   H29       1.0  0.23887000000000003  0.48704  0.5261  1.0000
  H   H30       1.0  0.21555  0.39843  0.49364  1.0000
  H   H31       1.0  0.21495  0.34258999999999995  0.6046700000000002  1.0000
  H   H32       1.0  0.29851  0.39227  0.59687  1.0000
  H   H33       1.0  0.52531  0.59916  0.42748000000000014  1.0000
  H   H34       1.0  0.47323  0.5482  0.53006  1.0000
  H   H35       1.0  0.69392  0.48413999999999996  0.58598  1.0000
  H   H36       1.0  0.73668  0.53686  0.47998  1.0000
  H   H37       1.0  0.65296  0.3531699999999999  0.6508800000000001  1.0000
  H   H38       1.0  0.75605  0.3272399999999999  0.72611  1.0000
  H   H39       1.0  0.70944  0.51407  0.83977  1.0000
  H   H40       1.0  0.60295  0.54805  0.77068  1.0000
  H   H41       1.0  0.49593000000000004  0.56588  0.73217  1.0000
  H   H42       1.0  0.47496  0.59942  0.65389  1.0000
  H   H43       1.0  0.35932  0.56198  0.7134900000000001  1.0000
  H   H44       1.0  0.3933  0.4699499999999999  0.72473  1.0000
  H   H45       1.0  0.37212  0.50165  0.6451200000000001  1.0000
  H   H46       1.0  0.51991  0.3447  0.60527  1.0000
  H   H47       1.0  0.44283  0.40215  0.58869  1.0000
  H   H48       1.0  0.45559  0.36531  0.66882  1.0000
  H   H49       1.0  0.48595  0.63428  0.3331700000000001  1.0000
  H   H50       1.0  0.38312  0.5846299999999999  0.26713  1.0000
  H   H51       1.0  0.54381  0.51126  0.12439  1.0000
  H   H52       1.0  0.64019  0.56016  0.19859  1.0000
  H   H53       1.0  0.42604  0.38631  0.23029  1.0000
  H   H54       1.0  0.41413  0.24753  0.22645  1.0000
  H   H55       1.0  0.31494  0.253  0.04448  1.0000
  H   H56       1.0  0.32351  0.39218  0.03866  1.0000
  H   H57       1.0  0.24412  0.50691  0.16749000000000003  1.0000
  H   H58       1.0  0.28574  0.58499  0.20488  1.0000
  H   H59       1.0  0.40743  0.59712  0.043460000000000006  1.0000
  H   H60       1.0  0.39522  0.50568  0.01119  1.0000
  H   H61       1.0  0.26116  0.51298  0.026050000000000004  1.0000
  H   H62       1.0  0.28455  0.6015799999999999  0.9936400000000001  1.0000
  H   H63       1.0  0.28512  0.6574099999999998  0.10469  1.0000
  H   H64       1.0  0.20154  0.6078  0.09681000000000001  1.0000
  H   H65       1.0  0.02519  0.9007899999999999  0.5725000000000001  1.0000
  H   H66       1.0  0.9731200000000001  0.95173  0.4699100000000001  1.0000
  H   H67       1.0  0.19384  0.015829999999999993  0.41402  1.0000
  H   H68       1.0  0.23659  0.9631199999999999  0.5200300000000001  1.0000
  H   H69       1.0  0.15284  0.14694  0.34897  1.0000
  H   H70       1.0  0.25584  0.17292999999999994  0.27369  1.0000
  H   H71       1.0  0.20949  0.98576  0.16033000000000003  1.0000
  H   H72       1.0  0.10308  0.95171  0.22948000000000002  1.0000
  H   H73       1.0  0.9957699999999999  0.93415  0.26774  1.0000
  H   H74       1.0  0.97493  0.9004799999999998  0.34601  1.0000
  H   H75       1.0  0.85918  0.9379699999999999  0.28658  1.0000
  H   H76       1.0  0.8931800000000001  0.030019999999999998  0.27541  1.0000
  H   H77       1.0  0.87211  0.9982099999999999  0.35500000000000004  1.0000
  H   H78       1.0  0.01994  0.15534  0.39449000000000006  1.0000
  H   H79       1.0  0.9427799999999998  0.09793  0.41108  1.0000
  H   H80       1.0  0.9556600000000001  0.13459  0.33091  1.0000
  H   H81       1.0  0.98589  0.8656299999999999  0.6668800000000001  1.0000
  H   H82       1.0  0.88309  0.91524  0.7329300000000001  1.0000
  H   H83       1.0  0.04387  0.98862  0.87567  1.0000
  H   H84       1.0  0.14021000000000003  0.93976  0.8014500000000001  1.0000
  H   H85       1.0  0.9261200000000002  0.11362999999999998  0.76973  1.0000
  H   H86       1.0  0.91407  0.25241  0.77353  1.0000
  H   H87       1.0  0.81487  0.24684999999999999  0.9554800000000002  1.0000
  H   H88       1.0  0.82358  0.10766  0.96133  1.0000
  H   H89       1.0  0.74415  0.99299  0.8324200000000002  1.0000
  H   H90       1.0  0.78574  0.91486  0.7951300000000001  1.0000
  H   H91       1.0  0.9073300000000001  0.9027399999999999  0.9565500000000001  1.0000
  H   H92       1.0  0.89525  0.99418  0.9888300000000001  1.0000
  H   H93       1.0  0.76117  0.987  0.9739100000000003  1.0000
  H   H94       1.0  0.78446  0.89839  0.00636  1.0000
  H   H95       1.0  0.78498  0.8425199999999999  0.89534  1.0000
  H   H96       1.0  0.70145  0.8922  0.9031500000000002  1.0000
  H   H97       1.0  0.47484  0.09908  0.07260000000000001  1.0000
  H   H98       1.0  0.52692  0.048239999999999984  0.96996  1.0000
  H   H99       1.0  0.30619  0.98418  0.9139600000000001  1.0000
  H   H100      1.0  0.26346  0.03678  0.020030000000000003  1.0000
  H   H101      1.0  0.34717  0.8530599999999998  0.84896  1.0000
  H   H102      1.0  0.24424  0.8269899999999998  0.7736  1.0000
  H   H103      1.0  0.29053  0.01417  0.66031  1.0000
  H   H104      1.0  0.39688  0.048309999999999985  0.72954  1.0000
  H   H105      1.0  0.50427  0.06581  0.7677  1.0000
  H   H106      1.0  0.52495  0.09964999999999999  0.84596  1.0000
  H   H107      1.0  0.64084  0.06214999999999999  0.7867700000000001  1.0000
  H   H108      1.0  0.60692  0.9700599999999999  0.77562  1.0000
  H   H109      1.0  0.62783  0.00199  0.8552100000000001  1.0000
  H   H110      1.0  0.4801  0.8448  0.8946000000000001  1.0000
  H   H111      1.0  0.55724  0.9022199999999999  0.91119  1.0000
  H   H112      1.0  0.54441  0.8654  0.83104  1.0000
  H   H113      1.0  0.51419  0.13413  0.16679  1.0000
  H   H114      1.0  0.61697  0.08462999999999997  0.23294  1.0000
  H   H115      1.0  0.45614  0.011469999999999996  0.37567  1.0000
  H   H116      1.0  0.35983  0.06017  0.30132000000000003  1.0000
  H   H117      1.0  0.57398  0.8864899999999998  0.26960000000000006  1.0000
  H   H118      1.0  0.58595  0.7477  0.27335  1.0000
  H   H119      1.0  0.68498  0.75315  0.4554  1.0000
  H   H120      1.0  0.67631  0.89234  0.46132000000000006  1.0000
  H   H121      1.0  0.75583  0.007069999999999999  0.33241  1.0000
  H   H122      1.0  0.71423  0.08521  0.29517000000000004  1.0000
  H   H123      1.0  0.59274  0.09727  0.45664000000000005  1.0000
  H   H124      1.0  0.60486  0.00582  0.4888700000000001  1.0000
  H   H125      1.0  0.73892  0.01306  0.47394000000000003  1.0000
  H   H126      1.0  0.71563  0.10166  0.5064  1.0000
  H   H127      1.0  0.71504  0.15753  0.39541  1.0000
  H   H128      1.0  0.79858  0.10785  0.40317  1.0000
  H   H129      1.0  0.70838  0.7398299999999998  0.14954  1.0000
  H   H130      1.0  0.57411  0.72087  0.14792  1.0000
  H   H131      1.0  0.55104  0.96295  0.13101  1.0000
  H   H132      1.0  0.68656  0.9712999999999999  0.13465  1.0000
  H   H133      1.0  0.30446  0.8183  0.06317  1.0000
  H   H134      1.0  0.27106  0.76106  0.95691  1.0000
  H   H135      1.0  0.48477  0.68988  0.92451  1.0000
  H   H136      1.0  0.5273  0.7420199999999998  0.02983  1.0000
  H   H137      1.0  0.42917  0.95908  0.17643  1.0000
  H   H138      1.0  0.36194  0.93813  0.11752  1.0000
  H   H139      1.0  0.37245  0.73004  0.19688  1.0000
  H   H140      1.0  0.45907  0.73787  0.23502000000000003  1.0000
  H   H141      1.0  0.42708  0.8594399999999999  0.28433  1.0000
  H   H142      1.0  0.34627  0.80657  0.29552  1.0000
  H   H143      1.0  0.32241  0.93725  0.2451  1.0000
  H   H144      1.0  0.29156  0.86269  0.19529  1.0000
  H   H145      1.0  0.9572099999999999  0.7626999999999999  0.19296  1.0000
  H   H146      1.0  0.01072  0.69779  0.28945  1.0000
  H   H147      1.0  0.81177  0.7548599999999998  0.3949000000000001  1.0000
  H   H148      1.0  0.76807  0.81848  0.29463000000000006  1.0000
  H   H149      1.0  0.9248  0.5140899999999998  0.40283  1.0000
  H   H150      1.0  0.00324  0.40824  0.36921000000000004  1.0000
  H   H151      1.0  0.1912  0.5402699999999999  0.37266  1.0000
  H   H152      1.0  0.12081  0.65285  0.40495  1.0000
  H   H153      1.0  0.05957  0.7749  0.4331600000000001  1.0000
  H   H154      1.0  0.0458  0.73283  0.51122  1.0000
  H   H155      1.0  0.98375  0.8018299999999999  0.4811800000000001  1.0000
  H   H156      1.0  0.84901  0.70146  0.4980100000000001  1.0000
  H   H157      1.0  0.84715  0.61028  0.46574  1.0000
  H   H158      1.0  0.87284  0.60117  0.58673  1.0000
  H   H159      1.0  0.94686  0.6653499999999998  0.57997  1.0000
  H   H160      1.0  0.9545799999999999  0.57552  0.54467  1.0000
  H   H161      1.0  0.79165  0.26019  0.64945  1.0000
  H   H162      1.0  0.9259100000000001  0.27915  0.64781  1.0000
  H   H163      1.0  0.94901  0.03704  0.63127  1.0000
  H   H164      1.0  0.81349  0.02866  0.63496  1.0000
  H   H165      1.0  0.19552  0.18163  0.56324  1.0000
  H   H166      1.0  0.22898  0.23892  0.45704  1.0000
  H   H167      1.0  0.015270000000000002  0.31017  0.42462  1.0000
  H   H168      1.0  0.97275  0.25798999999999994  0.5299  1.0000
  H   H169      1.0  0.07084  0.04089  0.6764400000000002  1.0000
  H   H170      1.0  0.13806  0.061829999999999996  0.6175400000000001  1.0000
  H   H171      1.0  0.12765  0.26992  0.69692  1.0000
  H   H172      1.0  0.04104  0.26213  0.7350900000000001  1.0000
  H   H173      1.0  0.07301  0.14054999999999995  0.78437  1.0000
  H   H174      1.0  0.15384  0.1934  0.7955600000000002  1.0000
  H   H175      1.0  0.17763  0.0627  0.74511  1.0000
  H   H176      1.0  0.2085  0.13724  0.6953200000000003  1.0000
  H   H177      1.0  0.54278  0.23724  0.69292  1.0000
  H   H178      1.0  0.48919000000000007  0.3021699999999999  0.7893700000000001  1.0000
  H   H179      1.0  0.68814  0.24535999999999997  0.8949200000000002  1.0000
  H   H180      1.0  0.73193  0.18166  0.79471  1.0000
  H   H181      1.0  0.57508  0.48594999999999994  0.9027500000000002  1.0000
  H   H182      1.0  0.49664  0.59176  0.86902  1.0000
  H   H183      1.0  0.30868  0.45975  0.8725900000000001  1.0000
  H   H184      1.0  0.37906  0.34721  0.905  1.0000
  H   H185      1.0  0.44040000000000007  0.22511999999999996  0.93312  1.0000
  H   H186      1.0  0.45414  0.2672  0.011180000000000002  1.0000
  H   H187      1.0  0.51625  0.19826  0.9811500000000002  1.0000
  H   H188      1.0  0.65088  0.29854  0.9979400000000002  1.0000
  H   H189      1.0  0.65283  0.38973  0.9657300000000001  1.0000
  H   H190      1.0  0.62733  0.39885  0.08671  1.0000
  H   H191      1.0  0.55325  0.3347299999999999  0.08004  1.0000
  H   H192      1.0  0.54552  0.42458  0.04477  1.0000
  H   H193      1.0  0.29151  0.23985999999999996  0.35045  1.0000
  H   H194      1.0  0.42576  0.22088999999999995  0.3521000000000001  1.0000
  H   H195      1.0  0.44900000000000007  0.46297999999999995  0.3687400000000001  1.0000
  H   H196      1.0  0.31349  0.47136999999999996  0.36503  1.0000
  H   H197      1.0  0.69545  0.3184499999999999  0.43671000000000004  1.0000
  H   H198      1.0  0.72897  0.26116  0.5429  1.0000
  H   H199      1.0  0.51526  0.18985999999999997  0.57539  1.0000
  H   H200      1.0  0.47268  0.24204  0.47012  1.0000
  H   H201      1.0  0.5709  0.45917  0.32358  1.0000
  H   H202      1.0  0.63808  0.4381499999999999  0.3825  1.0000
  H   H203      1.0  0.62747  0.23010999999999998  0.30307  1.0000
  H   H204      1.0  0.54087  0.23794999999999997  0.26488  1.0000
  H   H205      1.0  0.57297  0.35953  0.21563  1.0000
  H   H206      1.0  0.65374  0.30664  0.20445000000000002  1.0000
  H   H207      1.0  0.67767  0.4373  0.25494  1.0000
  H   H208      1.0  0.70845  0.36273  0.30472000000000005  1.0000
  H   H209      1.0  0.04288  0.2625  0.30718  1.0000
  H   H210      1.0  0.98927  0.19757  0.21071000000000004  1.0000
  H   H211      1.0  0.18815  0.25457  0.10516  1.0000
  H   H212      1.0  0.23196000000000003  0.31831  0.20537  1.0000
  H   H213      1.0  0.07512  0.014199999999999999  0.09729  1.0000
  H   H214      1.0  0.99677  0.9082899999999999  0.13103  1.0000
  H   H215      1.0  0.8087  0.04006  0.12741  1.0000
  H   H216      1.0  0.879  0.15268  0.09499  1.0000
  H   H217      1.0  0.9404600000000001  0.2749399999999999  0.06683  1.0000
  H   H218      1.0  0.9541999999999999  0.23286  0.98877  1.0000
  H   H219      1.0  0.01636  0.30178  0.01884  1.0000
  H   H220      1.0  0.15094  0.20143  0.00212  1.0000
  H   H221      1.0  0.15278  0.11024999999999997  0.03435  1.0000
  H   H222      1.0  0.1273  0.10116  0.9133200000000002  1.0000
  H   H223      1.0  0.05324  0.16524999999999998  0.9200100000000001  1.0000
  H   H224      1.0  0.04552  0.07539  0.95526  1.0000
  H   H225      1.0  0.20835  0.7602899999999999  0.85033  1.0000
  H   H226      1.0  0.07409  0.77914  0.8520000000000001  1.0000
  H   H227      1.0  0.05105  0.53708  0.8690500000000001  1.0000
  H   H228      1.0  0.18657  0.52879  0.8653500000000002  1.0000
  H   H229      1.0  0.80446  0.68164  0.9367500000000001  1.0000
  H   H230      1.0  0.77105  0.73895  0.04297  1.0000
  H   H231      1.0  0.9848  0.81011  0.07545  1.0000
  H   H232      1.0  0.02733  0.75787  0.9701800000000002  1.0000
  H   H233      1.0  0.9291  0.54082  0.8235700000000001  1.0000
  H   H234      1.0  0.8619  0.5618  0.88248  1.0000
  H   H235      1.0  0.8725  0.76991  0.8031  1.0000
  H   H236      1.0  0.9591199999999999  0.762  0.7649700000000001  1.0000
  H   H237      1.0  0.9270000000000002  0.64048  0.71566  1.0000
  H   H238      1.0  0.84621  0.69334  0.7044900000000001  1.0000
  H   H239      1.0  0.8223  0.56268  0.75492  1.0000
  H   H240      1.0  0.79152  0.6372299999999999  0.8047300000000001  1.0000
  H   H241      1.0  0.45713999999999994  0.7374199999999997  0.80706  1.0000
  H   H242      1.0  0.51071  0.80228  0.71056  1.0000
  H   H243      1.0  0.31178  0.7451199999999999  0.60504  1.0000
  H   H244      1.0  0.26803  0.68152  0.70531  1.0000
  H   H245      1.0  0.42482  0.98574  0.5972200000000001  1.0000
  H   H246      1.0  0.50317  0.09169  0.63086  1.0000
  H   H247      1.0  0.69124  0.9599299999999998  0.62735  1.0000
  H   H248      1.0  0.62094  0.84727  0.59505  1.0000
  H   H249      1.0  0.55961  0.7250699999999998  0.56671  1.0000
  H   H250      1.0  0.54582  0.76725  0.48871000000000003  1.0000
  H   H251      1.0  0.48377  0.6981799999999998  0.5186600000000001  1.0000
  H   H252      1.0  0.34902  0.79858  0.50195  1.0000
  H   H253      1.0  0.34726  0.8897499999999998  0.5342500000000001  1.0000
  H   H254      1.0  0.37287  0.89889  0.4132600000000001  1.0000
  H   H255      1.0  0.44686  0.8347  0.41996000000000006  1.0000
  H   H256      1.0  0.45465000000000005  0.9245199999999999  0.4553  1.0000
  C   C1        1.0  0.9393299999999999  0.42723  0.9636900000000002  1.0000
  C   C2        1.0  0.9679000000000001  0.45588  0.02145  1.0000
  C   C3        1.0  0.92118  0.48906999999999995  0.06861  1.0000
  C   C4        1.0  0.84588  0.4914  0.05219  1.0000
  C   C5        1.0  0.82138  0.46194  0.9930900000000001  1.0000
  C   C6        1.0  0.88331  0.54601  0.20345000000000002  1.0000
  C   C7        1.0  0.83697  0.6086  0.19164  1.0000
  C   C8        1.0  0.77895  0.6239499999999999  0.23347000000000004  1.0000
  C   C9        1.0  0.80548  0.52016  0.29762000000000005  1.0000
  C   C10       1.0  0.86475  0.50139  0.25817  1.0000
  C   C11       1.0  0.02544  0.45161  0.18422  1.0000
  C   C12       1.0  0.1045  0.48078  0.19211  1.0000
  C   C13       1.0  0.0157  0.61151  0.12605  1.0000
  C   C14       1.0  0.00336  0.39494  0.7871400000000001  1.0000
  C   C15       1.0  0.06095  0.4224199999999999  0.7493600000000002  1.0000
  C   C16       1.0  0.04729  0.45670999999999995  0.6882500000000001  1.0000
  C   C17       1.0  0.97225  0.46256  0.6703900000000002  1.0000
  C   C18       1.0  0.91776  0.4349899999999999  0.71153  1.0000
  C   C19       1.0  0.12602  0.5963199999999999  0.63523  1.0000
  C   C20       1.0  0.09959  0.63989  0.68795  1.0000
  C   C21       1.0  0.10599  0.71786  0.68647  1.0000
  C   C22       1.0  0.1615  0.7147999999999998  0.58491  1.0000
  C   C23       1.0  0.15669  0.63688  0.58227  1.0000
  C   C24       1.0  0.21591  0.44788  0.6594100000000002  1.0000
  C   C25       1.0  0.12579  0.45425999999999994  0.5474800000000001  1.0000
  C   C26       1.0  0.20797  0.43522  0.53652  1.0000
  C   C27       1.0  0.23851  0.39922  0.59961  1.0000
  C   C28       1.0  0.56079  0.5728499999999997  0.46375  1.0000
  C   C29       1.0  0.53219  0.54416  0.52149  1.0000
  C   C30       1.0  0.57889  0.51092  0.56864  1.0000
  C   C31       1.0  0.65419  0.50858  0.5522500000000001  1.0000
  C   C32       1.0  0.67872  0.53809  0.49318000000000006  1.0000
  C   C33       1.0  0.61663  0.45389999999999997  0.70351  1.0000
  C   C34       1.0  0.66302  0.39136  0.69166  1.0000
  C   C35       1.0  0.72112  0.37608999999999987  0.73344  1.0000
  C   C36       1.0  0.69453  0.47982  0.7976600000000001  1.0000
  C   C37       1.0  0.63517  0.49850999999999995  0.75826  1.0000
  C   C38       1.0  0.47453  0.54829  0.68417  1.0000
  C   C39       1.0  0.3955  0.51907  0.69227  1.0000
  C   C40       1.0  0.4843100000000001  0.3883999999999999  0.6260200000000001  1.0000
  C   C41       1.0  0.49671  0.60517  0.28713  1.0000
  C   C42       1.0  0.43908  0.57764  0.2494  1.0000
  C   C43       1.0  0.45267  0.54324  0.18832  1.0000
  C   C44       1.0  0.52769  0.53738  0.17041000000000006  1.0000
  C   C45       1.0  0.58223  0.56501  0.21149  1.0000
  C   C46       1.0  0.37392  0.4036099999999999  0.13518  1.0000
  C   C47       1.0  0.40042  0.36  0.18785000000000002  1.0000
  C   C48       1.0  0.39408  0.28203  0.18629  1.0000
  C   C49       1.0  0.33848  0.28512  0.08476000000000002  1.0000
  C   C50       1.0  0.34324  0.36306  0.0822  1.0000
  C   C51       1.0  0.28406  0.55212  0.15939000000000003  1.0000
  C   C52       1.0  0.37425  0.5456899999999998  0.04753  1.0000
  C   C53       1.0  0.29209  0.56478  0.0365  1.0000
  C   C54       1.0  0.26153  0.6008  0.09958  1.0000
  C   C55       1.0  0.06067999999999999  0.9271199999999999  0.53624  1.0000
  C   C56       1.0  0.03209  0.9557899999999999  0.4784900000000001  1.0000
  C   C57       1.0  0.07879  0.98906  0.43136  1.0000
  C   C58       1.0  0.15411  0.99139  0.44775  1.0000
  C   C59       1.0  0.17862  0.96189  0.50682  1.0000
  C   C60       1.0  0.11664  0.04600999999999999  0.2965  1.0000
  C   C61       1.0  0.16294  0.10868  0.30825  1.0000
  C   C62       1.0  0.221  0.12398999999999998  0.26645  1.0000
  C   C63       1.0  0.19455  0.020069999999999994  0.20239000000000001  1.0000
  C   C64       1.0  0.13523  0.0013299999999999996  0.24182000000000003  1.0000
  C   C65       1.0  0.9744500000000001  0.95166  0.31578  1.0000
  C   C66       1.0  0.89542  0.9808499999999999  0.3078  1.0000
  C   C67       1.0  0.98432  0.11161  0.37379000000000007  1.0000
  C   C68       1.0  0.9966800000000001  0.89475  0.7129100000000002  1.0000
  C   C69       1.0  0.93906  0.9222499999999999  0.75065  1.0000
  C   C70       1.0  0.9526900000000001  0.9566499999999999  0.8117300000000001  1.0000
  C   C71       1.0  0.027730000000000005  0.9625199999999999  0.8296400000000002  1.0000
  C   C72       1.0  0.08224  0.93491  0.7885500000000001  1.0000
  C   C73       1.0  0.87399  0.0963  0.8648200000000001  1.0000
  C   C74       1.0  0.90047  0.13991999999999993  0.81215  1.0000
  C   C75       1.0  0.8940600000000001  0.21789  0.8137000000000001  1.0000
  C   C76       1.0  0.83846  0.21474  0.9152100000000001  1.0000
  C   C77       1.0  0.84328  0.13681  0.9177900000000001  1.0000
  C   C78       1.0  0.78406  0.94778  0.8405900000000001  1.0000
  C   C79       1.0  0.87422  0.9542  0.95248  1.0000
  C   C80       1.0  0.79204  0.93517  0.96349  1.0000
  C   C81       1.0  0.76145  0.89915  0.9004100000000002  1.0000
  C   C82       1.0  0.43936  0.07279  0.036300000000000006  1.0000
  C   C83       1.0  0.46795  0.04417000000000001  0.9785300000000001  1.0000
  C   C84       1.0  0.42124  0.01095  0.93136  1.0000
  C   C85       1.0  0.34593  0.00859  0.94772  1.0000
  C   C86       1.0  0.32142  0.038029999999999994  0.00682  1.0000
  C   C87       1.0  0.38338  0.95397  0.7965000000000001  1.0000
  C   C88       1.0  0.3371  0.89129  0.8082300000000002  1.0000
  C   C89       1.0  0.27906  0.8759499999999998  0.7663900000000002  1.0000
  C   C90       1.0  0.30548  0.97988  0.70237  1.0000
  C   C91       1.0  0.36477  0.9986499999999999  0.7418400000000002  1.0000
  C   C92       1.0  0.52553  0.04841  0.8157900000000002  1.0000
  C   C93       1.0  0.6046  0.019269999999999995  0.8079600000000002  1.0000
  C   C94       1.0  0.51573  0.88848  0.8738700000000001  1.0000
  C   C95       1.0  0.50339  0.10509  0.21285  1.0000
  C   C96       1.0  0.56099  0.07766  0.25064  1.0000
  C   C97       1.0  0.54734  0.04337  0.31176000000000004  1.0000
  C   C98       1.0  0.47230000000000005  0.03751  0.32963  1.0000
  C   C99       1.0  0.41781  0.06504  0.28847  1.0000
  C   C100      1.0  0.62602  0.90375  0.36476  1.0000
  C   C101      1.0  0.59957  0.86017  0.31204  1.0000
  C   C102      1.0  0.60594  0.7822  0.31354  1.0000
  C   C103      1.0  0.66145  0.7852899999999999  0.41512  1.0000
  C   C104      1.0  0.65665  0.86321  0.41774  1.0000
  C   C105      1.0  0.71594  0.05228  0.34062  1.0000
  C   C106      1.0  0.62585  0.045819999999999986  0.4525300000000001  1.0000
  C   C107      1.0  0.70803  0.06487  0.46353  1.0000
  C   C108      1.0  0.73858  0.1009  0.40045000000000003  1.0000
  C   C109      1.0  0.67153  0.7877799999999998  0.1451  1.0000
  C   C110      1.0  0.596  0.77777  0.14363  1.0000
  C   C111      1.0  0.54827  0.84062  0.13852  1.0000
  C   C112      1.0  0.58329  0.9115599999999999  0.13468  1.0000
  C   C113      1.0  0.65919  0.9169299999999999  0.1368  1.0000
  C   C114      1.0  0.41968  0.78447  0.05816  1.0000
  C   C115      1.0  0.34661  0.7897199999999998  0.03463  1.0000
  C   C116      1.0  0.32753  0.7584799999999998  0.9746  1.0000
  C   C117      1.0  0.44613  0.71821  0.9568200000000001  1.0000
  C   C118      1.0  0.46962  0.74738  0.016410000000000004  1.0000
  C   C119      1.0  0.39212  0.91449  0.15917  1.0000
  C   C120      1.0  0.41493  0.77043  0.21201000000000003  1.0000
  C   C121      1.0  0.38233  0.83098  0.25792  1.0000
  C   C122      1.0  0.34116  0.88916  0.21574000000000002  1.0000
  C   C123      1.0  0.9277899999999999  0.7610799999999998  0.23939  1.0000
  C   C124      1.0  0.9571499999999998  0.7246899999999998  0.29361  1.0000
  C   C125      1.0  0.91727  0.72166  0.3528200000000001  1.0000
  C   C126      1.0  0.84722  0.7556599999999999  0.3519900000000001  1.0000
  C   C127      1.0  0.82191  0.79155  0.29578  1.0000
  C   C128      1.0  0.01473  0.59543  0.40718000000000004  1.0000
  C   C129      1.0  0.9835800000000001  0.52338  0.39682000000000006  1.0000
  C   C130      1.0  0.027260000000000003  0.46331  0.37817  1.0000
  C   C131      1.0  0.13194  0.5371  0.37935  1.0000
  C   C132      1.0  0.09185  0.5999099999999999  0.39762000000000003  1.0000
  C   C133      1.0  0.01776  0.75348  0.46714000000000006  1.0000
  C   C134      1.0  0.88378  0.65193  0.48872000000000004  1.0000
  C   C135      1.0  0.91587  0.62185  0.55352  1.0000
  C   C136      1.0  0.8285  0.21222999999999995  0.64509  1.0000
  C   C137      1.0  0.90403  0.22223999999999997  0.6436  1.0000
  C   C138      1.0  0.95176  0.15938  0.63858  1.0000
  C   C139      1.0  0.91675  0.08842999999999998  0.63485  1.0000
  C   C140      1.0  0.84085  0.08305  0.6370000000000001  1.0000
  C   C141      1.0  0.08034  0.21550999999999995  0.55822  1.0000
  C   C142      1.0  0.15341  0.21025999999999997  0.53471  1.0000
  C   C143      1.0  0.1725  0.24151999999999998  0.4747100000000001  1.0000
  C   C144      1.0  0.05393  0.28183  0.45691000000000004  1.0000
  C   C145      1.0  0.030430000000000002  0.25263  0.5164800000000002  1.0000
  C   C146      1.0  0.1079  0.08547  0.65919  1.0000
  C   C147      1.0  0.08515  0.22954  0.71206  1.0000
  C   C148      1.0  0.11776  0.169  0.75796  1.0000
  C   C149      1.0  0.15889  0.11079  0.7157600000000001  1.0000
  C   C150      1.0  0.57219  0.23891  0.73936  1.0000
  C   C151      1.0  0.54278  0.27533  0.79355  1.0000
  C   C152      1.0  0.58264  0.27844  0.85278  1.0000
  C   C153      1.0  0.65271  0.24449  0.85199  1.0000
  C   C154      1.0  0.67808  0.20857  0.79581  1.0000
  C   C155      1.0  0.48516  0.40462  0.90716  1.0000
  C   C156      1.0  0.5163  0.4766599999999999  0.89674  1.0000
  C   C157      1.0  0.47262000000000004  0.5367099999999999  0.87805  1.0000
  C   C158      1.0  0.36794  0.46291999999999994  0.87929  1.0000
  C   C159      1.0  0.40803  0.4001299999999999  0.8976000000000001  1.0000
  C   C160      1.0  0.48219999999999996  0.24657  0.96711  1.0000
  C   C161      1.0  0.61616  0.34811999999999993  0.9887000000000001  1.0000
  C   C162      1.0  0.58421  0.37822  0.05356  1.0000
  C   C163      1.0  0.32839  0.28782  0.35483  1.0000
  C   C164      1.0  0.40391  0.27779  0.35634000000000005  1.0000
  C   C165      1.0  0.45168  0.34064  0.3614  1.0000
  C   C166      1.0  0.41671  0.4115899999999999  0.3651400000000001  1.0000
  C   C167      1.0  0.34081  0.41698  0.3629800000000001  1.0000
  C   C168      1.0  0.58027  0.28452  0.44176  1.0000
  C   C169      1.0  0.65336  0.28979  0.4652400000000001  1.0000
  C   C170      1.0  0.67248  0.25855  0.5252500000000001  1.0000
  C   C171      1.0  0.5539  0.21821  0.54307  1.0000
  C   C172      1.0  0.53037  0.24739  0.48352  1.0000
  C   C173      1.0  0.60789  0.4145499999999999  0.3408300000000001  1.0000
  C   C174      1.0  0.58502  0.27051  0.28792  1.0000
  C   C175      1.0  0.61769  0.33104  0.24205000000000002  1.0000
  C   C176      1.0  0.65886  0.3892199999999999  0.2842700000000001  1.0000
  C   C177      1.0  0.07226  0.26091  0.26072  1.0000
  C   C178      1.0  0.04283  0.2245  0.20652000000000004  1.0000
  C   C179      1.0  0.08264  0.22149  0.14727000000000004  1.0000
  C   C180      1.0  0.15273  0.25546  0.14809  1.0000
  C   C181      1.0  0.17811  0.29136999999999996  0.20428000000000002  1.0000
  C   C182      1.0  0.9851200000000001  0.09538  0.09281  1.0000
  C   C183      1.0  0.01633  0.0234  0.10326000000000002  1.0000
  C   C184      1.0  0.9727000000000001  0.9632999999999999  0.12198000000000003  1.0000
  C   C185      1.0  0.86796  0.03694999999999999  0.12071  1.0000
  C   C186      1.0  0.9079999999999999  0.09978999999999998  0.10237  1.0000
  C   C187      1.0  0.9822599999999999  0.25346999999999986  0.03287  1.0000
  C   C188      1.0  0.11617000000000001  0.15187999999999996  0.01135  1.0000
  C   C189      1.0  0.0842  0.12177999999999999  0.94648  1.0000
  C   C190      1.0  0.17152  0.7123  0.8548000000000002  1.0000
  C   C191      1.0  0.09599  0.72227  0.85632  1.0000
  C   C192      1.0  0.04827  0.65939  0.8614700000000001  1.0000
  C   C193      1.0  0.0833  0.58847  0.8653400000000001  1.0000
  C   C194      1.0  0.1592  0.5831499999999998  0.8631700000000002  1.0000
  C   C195      1.0  0.91969  0.71547  0.94181  1.0000
  C   C196      1.0  0.8466  0.71024  0.96529  1.0000
  C   C197      1.0  0.82753  0.74151  0.025300000000000007  1.0000
  C   C198      1.0  0.9461400000000001  0.78176  0.04314  1.0000
  C   C199      1.0  0.9696300000000001  0.75255  0.98358  1.0000
  C   C200      1.0  0.8920799999999999  0.58542  0.84083  1.0000
  C   C201      1.0  0.9149399999999999  0.7294799999999998  0.7879700000000001  1.0000
  C   C202      1.0  0.8822800000000001  0.6689399999999999  0.74208  1.0000
  C   C203      1.0  0.84111  0.61076  0.78427  1.0000
  C   C204      1.0  0.42775  0.7389799999999997  0.7606  1.0000
  C   C205      1.0  0.45713999999999994  0.7753499999999999  0.70639  1.0000
  C   C206      1.0  0.41731  0.77832  0.64714  1.0000
  C   C207      1.0  0.34724  0.7443199999999998  0.64796  1.0000
  C   C208      1.0  0.32188  0.70846  0.70417  1.0000
  C   C209      1.0  0.51481  0.9045499999999999  0.5928100000000001  1.0000
  C   C210      1.0  0.48361000000000004  0.97655  0.6032  1.0000
  C   C211      1.0  0.52725  0.03668  0.62186  1.0000
  C   C212      1.0  0.63198  0.96303  0.62066  1.0000
  C   C213      1.0  0.59193  0.90017  0.60238  1.0000
  C   C214      1.0  0.51778  0.74652  0.53276  1.0000
  C   C215      1.0  0.38385  0.84809  0.51124  1.0000
  C   C216      1.0  0.41591  0.8782  0.44644  1.0000
  N   N1        1.0  0.8669  0.42929  0.9485  1.0000
  N   N2        1.0  0.76228  0.5812599999999999  0.28655  1.0000
  N   N3        1.0  0.9317300000000001  0.40045999999999987  0.7694200000000001  1.0000
  N   N4        1.0  0.1373  0.75608  0.63635  1.0000
  N   N5        1.0  0.63323  0.5707699999999998  0.44859000000000004  1.0000
  N   N6        1.0  0.73781  0.4188  0.7865100000000002  1.0000
  N   N7        1.0  0.56832  0.59959  0.26937  1.0000
  N   N8        1.0  0.36276  0.24381  0.13615000000000002  1.0000
  N   N9        1.0  0.13311  0.92924  0.5514200000000001  1.0000
  N   N10       1.0  0.23773000000000002  0.08121  0.21344  1.0000
  N   N11       1.0  0.06831  0.9003699999999999  0.73065  1.0000
  N   N12       1.0  0.86271  0.25607  0.8638200000000001  1.0000
  N   N13       1.0  0.36692  0.07066  0.05145000000000001  1.0000
  N   N14       1.0  0.26234  0.9187099999999999  0.71337  1.0000
  N   N15       1.0  0.43177  0.09951  0.23056  1.0000
  N   N16       1.0  0.63725  0.74399  0.36368  1.0000
  N   N17       1.0  0.70461  0.8562099999999999  0.14203  1.0000
  N   N18       1.0  0.37579  0.72265  0.9348600000000001  1.0000
  N   N19       1.0  0.86125  0.79508  0.23975000000000002  1.0000
  N   N20       1.0  0.10133  0.46823  0.36904000000000003  1.0000
  N   N21       1.0  0.79543  0.14378  0.6421300000000001  1.0000
  N   N22       1.0  0.12427  0.27737  0.4349600000000001  1.0000
  N   N23       1.0  0.63876  0.20495999999999995  0.7397500000000001  1.0000
  N   N24       1.0  0.39855  0.53177  0.8689200000000001  1.0000
  N   N25       1.0  0.29536  0.35626  0.35782  1.0000
  N   N26       1.0  0.62425  0.22268  0.56501  1.0000
  N   N27       1.0  0.1388  0.29495  0.26034  1.0000
  N   N28       1.0  0.8986299999999999  0.96815  0.1311  1.0000
  N   N29       1.0  0.20461  0.64389  0.85788  1.0000
  N   N30       1.0  0.87579  0.77734  0.06507  1.0000
  N   N31       1.0  0.36121  0.70493  0.7602200000000001  1.0000
  N   N32       1.0  0.60133  0.03186  0.63098  1.0000
