data_image0
_chemical_formula_structural       La8H144C240N24O72
_chemical_formula_sum              "La8 H144 C240 N24 O72"
_cell_length_a       15.74573
_cell_length_b       18.629000000000005
_cell_length_c       34.8073
_cell_angle_alpha    89.92970999999999
_cell_angle_beta     90.03521
_cell_angle_gamma    105.70580999999999

_space_group_name_H-M_alt    "P 1"
_space_group_IT_number       1

loop_
  _space_group_symop_operation_xyz
  'x, y, z'

loop_
  _atom_site_type_symbol
  _atom_site_label
  _atom_site_symmetry_multiplicity
  _atom_site_fract_x
  _atom_site_fract_y
  _atom_site_fract_z
  _atom_site_occupancy
  La  La1       1.0  0.78926  0.29208  0.7676299999999999  1.0000
  La  La2       1.0  0.95883  0.6845  0.25013  1.0000
  La  La3       1.0  0.71216  0.70892  0.26811999999999997  1.0000
  La  La4       1.0  0.21073  0.70793  0.23237  1.0000
  La  La5       1.0  0.04117  0.31551  0.74987  1.0000
  La  La6       1.0  0.2878399999999999  0.29108  0.73188  1.0000
  La  La7       1.0  0.54092  0.31662  0.74984  1.0000
  La  La8       1.0  0.45908  0.68339  0.25016  1.0000
  H   H1        1.0  0.23706  0.65837  0.93275  1.0000
  H   H2        1.0  0.051290000000000016  0.81195  0.33337  1.0000
  H   H3        1.0  0.78881  0.59798  0.70753  1.0000
  H   H4        1.0  0.05488000000000001  0.24253000000000002  0.88901  1.0000
  H   H5        1.0  0.95859  0.22152  0.33664  1.0000
  H   H6        1.0  0.5371399999999997  0.32043  0.86577  1.0000
  H   H7        1.0  0.68695  0.86982  0.54181  1.0000
  H   H8        1.0  0.99798  0.78658  0.04395  1.0000
  H   H9        1.0  0.7292499999999997  0.18524  0.66831  1.0000
  H   H10       1.0  0.74628  0.5196  0.36244  1.0000
  H   H11       1.0  0.15859999999999994  0.5241  0.74827  1.0000
  H   H12       1.0  0.8457499999999998  0.50057  0.73961  1.0000
  H   H13       1.0  0.14346  0.07431  0.28681  1.0000
  H   H14       1.0  0.03854999999999999  0.9306  0.80478  1.0000
  H   H15       1.0  0.7563  0.07588  0.63437  1.0000
  H   H16       1.0  0.18434999999999996  0.97278  0.24989999999999998  1.0000
  H   H17       1.0  0.21118  0.40203  0.2924699999999999  1.0000
  H   H18       1.0  0.07488999999999998  0.432  0.39608  1.0000
  H   H19       1.0  0.21327  0.69029  0.06581  1.0000
  H   H20       1.0  0.53515  0.70738  0.9551300000000001  1.0000
  H   H21       1.0  0.29974  0.41745  0.10837  1.0000
  H   H22       1.0  0.9451199999999996  0.75748  0.11099  1.0000
  H   H23       1.0  0.68398  0.9728399999999999  0.25028999999999996  1.0000
  H   H24       1.0  0.8413899999999999  0.47591000000000006  0.25172  1.0000
  H   H25       1.0  0.9616499999999998  0.96216  0.61786  1.0000
  H   H26       1.0  0.94871  0.18805  0.66663  1.0000
  H   H27       1.0  0.44380999999999987  0.75713  0.38904  1.0000
  H   H28       1.0  0.3366099999999999  0.33263  0.63328  1.0000
  H   H29       1.0  0.24244999999999994  0.81724  0.8420099999999998  1.0000
  H   H30       1.0  0.44862999999999986  0.18848  0.83289  1.0000
  H   H31       1.0  0.36651999999999985  0.11689000000000001  0.34128  1.0000
  H   H32       1.0  0.03456999999999999  0.70673  0.54574  1.0000
  H   H33       1.0  0.64282  0.15312  0.9547399999999999  1.0000
  H   H34       1.0  0.7704799999999997  0.81517  0.16801  1.0000
  H   H35       1.0  0.96237  0.68071  0.36584  1.0000
  H   H36       1.0  0.28763  0.30974  0.56548  1.0000
  H   H37       1.0  0.08444000000000002  0.69185  0.66854  1.0000
  H   H38       1.0  0.24635  0.52013  0.13732  1.0000
  H   H39       1.0  0.53879  0.03748  0.11765  1.0000
  H   H40       1.0  0.006510000000000005  0.26914  0.50477  1.0000
  H   H41       1.0  0.55136  0.81153  0.16711  1.0000
  H   H42       1.0  0.14294  0.15311  0.54461  1.0000
  H   H43       1.0  0.71237  0.69026  0.43452  1.0000
  H   H44       1.0  0.2875299999999999  0.59869  0.79206  1.0000
  H   H45       1.0  0.51584  0.91151  0.1283  1.0000
  H   H46       1.0  0.74301  0.92464  0.13421  1.0000
  H   H47       1.0  0.46484  0.29263  0.04487  1.0000
  H   H48       1.0  0.75755  0.18276  0.15799  1.0000
  H   H49       1.0  0.7002599999999998  0.58256  0.89163  1.0000
  H   H50       1.0  0.48415  0.08849  0.8717  1.0000
  H   H51       1.0  0.9964699999999997  0.31435  0.5647  1.0000
  H   H52       1.0  0.50758  0.26967  0.99498  1.0000
  H   H53       1.0  0.6565999999999997  0.49899000000000004  0.24032999999999996  1.0000
  H   H54       1.0  0.60351  0.79158  0.50178  1.0000
  H   H55       1.0  0.54108  0.77823  0.83725  1.0000
  H   H56       1.0  0.18991000000000002  0.86976  0.9586499999999999  1.0000
  H   H57       1.0  0.7867299999999998  0.30972  0.9341899999999999  1.0000
  H   H58       1.0  0.015149999999999999  0.52618  0.36298  1.0000
  H   H59       1.0  0.10421  0.79058  0.99796  1.0000
  H   H60       1.0  0.8570600000000002  0.8469  0.4553899999999999  1.0000
  H   H61       1.0  0.76293  0.34164  0.06725  1.0000
  H   H62       1.0  0.25698  0.07537  0.86579  1.0000
  H   H63       1.0  0.81564  0.027230000000000004  0.7501  1.0000
  H   H64       1.0  0.003520000000000013  0.68565  0.4353  1.0000
  H   H65       1.0  0.98484  0.4738200000000001  0.6370199999999998  1.0000
  H   H66       1.0  0.5384  0.93101  0.69568  1.0000
  H   H67       1.0  0.99161  0.9589  0.22695  1.0000
  H   H68       1.0  0.46158999999999994  0.06899  0.30432  1.0000
  H   H69       1.0  0.35645  0.92581  0.7870999999999998  1.0000
  H   H70       1.0  0.49652999999999997  0.31475  0.9353199999999999  1.0000
  H   H71       1.0  0.15424  0.49944000000000005  0.26039  1.0000
  H   H72       1.0  0.74276  0.81793  0.6582  1.0000
  H   H73       1.0  0.04139999999999999  0.77849  0.66336  1.0000
  H   H74       1.0  0.03835  0.03785  0.38214  1.0000
  H   H75       1.0  0.8677399999999997  0.1174  0.15758999999999998  1.0000
  H   H76       1.0  0.50338  0.21394  0.54388  1.0000
  H   H77       1.0  0.03762  0.3193  0.63416  1.0000
  H   H78       1.0  0.01556999999999994  0.9122999999999999  0.37174999999999997  1.0000
  H   H79       1.0  0.96543  0.29327  0.45426  1.0000
  H   H80       1.0  0.13225999999999993  0.88261  0.84241  1.0000
  H   H81       1.0  0.3434  0.50102  0.75967  1.0000
  H   H82       1.0  0.4612  0.96252  0.88235  1.0000
  H   H83       1.0  0.48371  0.47319000000000006  0.86182  1.0000
  H   H84       1.0  0.63347  0.88311  0.65872  1.0000
  H   H85       1.0  0.66339  0.66737  0.36672  1.0000
  H   H86       1.0  0.34098999999999996  0.4744999999999999  0.24795  1.0000
  H   H87       1.0  0.35717  0.84689  0.04526  1.0000
  H   H88       1.0  0.91555  0.30816  0.3314599999999999  1.0000
  H   H89       1.0  0.2707399999999999  0.81476  0.33169  1.0000
  H   H90       1.0  0.58395  0.69165  0.83227  1.0000
  H   H91       1.0  0.81009  0.13025  0.04135  1.0000
  H   H92       1.0  0.49134999999999995  0.95864  0.27241999999999994  1.0000
  H   H93       1.0  0.18713  0.16162  0.61397  1.0000
  H   H94       1.0  0.7985099999999998  0.41587  0.39106  1.0000
  H   H95       1.0  0.26354  0.34089  0.43244  1.0000
  H   H96       1.0  0.2537199999999999  0.48039999999999994  0.63756  1.0000
  H   H97       1.0  0.45891999999999994  0.22177  0.16275  1.0000
  H   H98       1.0  0.50865  0.04136  0.72758  1.0000
  H   H99       1.0  0.41603999999999997  0.30835  0.16773  1.0000
  H   H100      1.0  0.39649  0.20843  0.49822  1.0000
  H   H101      1.0  0.49241  0.73034  0.005019999999999999  1.0000
  H   H102      1.0  0.81287  0.83839  0.38603  1.0000
  H   H103      1.0  0.50346  0.68525  0.06467999999999999  1.0000
  H   H104      1.0  0.31305  0.13019  0.45818999999999993  1.0000
  H   H105      1.0  0.65977  0.35084  0.10595  1.0000
  H   H106      1.0  0.7124699999999998  0.40132  0.20794  1.0000
  H   H107      1.0  0.8358  0.33286  0.8664  1.0000
  H   H108      1.0  0.64355  0.0742  0.21289999999999998  1.0000
  H   H109      1.0  0.46286  0.67957  0.13423  1.0000
  H   H110      1.0  0.89082  0.37117  0.27928  1.0000
  H   H111      1.0  0.9844199999999997  0.08771  0.62825  1.0000
  H   H112      1.0  0.51629  0.52682  0.13818  1.0000
  H   H113      1.0  0.8957899999999998  0.20942  0.00203  1.0000
  H   H114      1.0  0.31357  0.83776  0.11473  1.0000
  H   H115      1.0  0.75365  0.47988000000000003  0.86268  1.0000
  H   H116      1.0  0.16418999999999995  0.66715  0.1336  1.0000
  H   H117      1.0  0.002009999999999991  0.21343  0.9560499999999998  1.0000
  H   H118      1.0  0.90692  0.8748  0.57863  1.0000
  H   H119      1.0  0.2572299999999999  0.18208  0.3418  1.0000
  H   H120      1.0  0.84067  0.64947  0.6053999999999999  1.0000
  H   H121      1.0  0.40929  0.87661  0.92191  1.0000
  H   H122      1.0  0.659  0.52551  0.7520499999999998  1.0000
  H   H123      1.0  0.96145  0.0694  0.19522  1.0000
  H   H124      1.0  0.57516  0.43248  0.10472  1.0000
  H   H125      1.0  0.55618  0.24287999999999998  0.61096  1.0000
  H   H126      1.0  0.68643  0.16225  0.8852699999999998  1.0000
  H   H127      1.0  0.49661  0.78607  0.45612  1.0000
  H   H128      1.0  0.10918  0.62884  0.72072  1.0000
  H   H129      1.0  0.22951  0.18483  0.83199  1.0000
  H   H130      1.0  0.7364599999999998  0.65911  0.56756  1.0000
  H   H131      1.0  0.85653  0.9257  0.71319  1.0000
  H   H132      1.0  0.6084399999999998  0.62911  0.78005  1.0000
  H   H133      1.0  0.99348  0.73087  0.49522999999999995  1.0000
  H   H134      1.0  0.09307  0.12521  0.42137  1.0000
  H   H135      1.0  0.39155  0.3709  0.21995  1.0000
  H   H136      1.0  0.24369999999999994  0.92413  0.36563  1.0000
  H   H137      1.0  0.20147999999999994  0.58414  0.60894  1.0000
  H   H138      1.0  0.5907  0.12338999999999999  0.07809  1.0000
  H   H139      1.0  0.9251  0.56801  0.60392  1.0000
  H   H140      1.0  0.00839  0.04111  0.77305  1.0000
  H   H141      1.0  0.34022  0.64917  0.89405  1.0000
  H   H142      1.0  0.42484  0.56753  0.89528  1.0000
  H   H143      1.0  0.15933  0.35054  0.3946  1.0000
  H   H144      1.0  0.31602  0.02717  0.74971  1.0000
  C   C1        1.0  0.01582000000000001  0.74309  0.5667  1.0000
  C   C2        1.0  0.59558  0.68007  0.89013  1.0000
  C   C3        1.0  0.04866  0.5779  0.29022  1.0000
  C   C4        1.0  0.02039000000000002  0.6963  0.16714  1.0000
  C   C5        1.0  0.9672299999999998  0.79334  0.5575  1.0000
  C   C6        1.0  0.35827  0.75321  0.16916999999999993  1.0000
  C   C7        1.0  0.53735  0.2807  0.9241999999999999  1.0000
  C   C8        1.0  0.61373  0.24106  0.87155  1.0000
  C   C9        1.0  0.83175  0.46242999999999995  0.28212  1.0000
  C   C10       1.0  0.43712999999999996  0.9517100000000001  0.29268999999999995  1.0000
  C   C11       1.0  0.84982  0.38826  0.33722999999999986  1.0000
  C   C12       1.0  0.29182  0.50478  0.19409999999999994  1.0000
  C   C13       1.0  0.57208  0.8691  0.17671  1.0000
  C   C14       1.0  0.7059999999999997  0.92792  0.61148  1.0000
  C   C15       1.0  0.39981  0.81501  0.28006  1.0000
  C   C16       1.0  0.5509  0.57785  0.21075  1.0000
  C   C17       1.0  0.73129  0.42869  0.7907599999999998  1.0000
  C   C18       1.0  0.48349  0.25636  0.06597  1.0000
  C   C19       1.0  0.6492900000000001  0.9966800000000001  0.66288  1.0000
  C   C20       1.0  0.26992  0.28736  0.42224999999999996  1.0000
  C   C21       1.0  0.94001  0.71702  0.38566  1.0000
  C   C22       1.0  0.44768  0.07482  0.8449  1.0000
  C   C23       1.0  0.55122  0.16082  0.08612999999999998  1.0000
  C   C24       1.0  0.75635  0.26679  0.11605  1.0000
  C   C25       1.0  0.4323099999999999  0.76634  0.05068  1.0000
  C   C26       1.0  0.73121  0.31394  0.14671  1.0000
  C   C27       1.0  0.64628  0.96056  0.22375  1.0000
  C   C28       1.0  0.56286  0.0483  0.70731  1.0000
  C   C29       1.0  0.79285  0.24103  0.05035  1.0000
  C   C30       1.0  0.06754999999999997  0.23338000000000003  0.55031  1.0000
  C   C31       1.0  0.9054  0.32029  0.38931  1.0000
  C   C32       1.0  0.37502  0.98301  0.79712  1.0000
  C   C33       1.0  0.3598399999999999  0.40364  0.20177999999999996  1.0000
  C   C34       1.0  0.47717  0.21888  0.13272  1.0000
  C   C35       1.0  0.31314  0.87052  0.32632  1.0000
  C   C36       1.0  0.74408  0.73411  0.61618  1.0000
  C   C37       1.0  0.20085  0.82925  0.93802  1.0000
  C   C38       1.0  0.56594  0.19356  0.0178  1.0000
  C   C39       1.0  0.60018  0.185  0.71994  1.0000
  C   C40       1.0  0.9470699999999995  0.83788  0.58668  1.0000
  C   C41       1.0  0.05137000000000001  0.71092  0.1268  1.0000
  C   C42       1.0  0.69205  0.73051  0.51019  1.0000
  C   C43       1.0  0.53266  0.75935  0.43658999999999987  1.0000
  C   C44       1.0  0.11684  0.11981  0.80068  1.0000
  C   C45       1.0  0.35601  0.1725  0.7667  1.0000
  C   C46       1.0  0.62652  0.69283  0.38644  1.0000
  C   C47       1.0  0.85949  0.40387  0.29761  1.0000
  C   C48       1.0  0.79914  0.17076  0.06197999999999999  1.0000
  C   C49       1.0  0.2123  0.85059  0.8992  1.0000
  C   C50       1.0  0.04361  0.73637  0.60462  1.0000
  C   C51       1.0  0.62018  0.18925  0.9351799999999999  1.0000
  C   C52       1.0  0.32882  0.57007  0.80728  1.0000
  C   C53       1.0  0.6684199999999998  0.53834  0.7824999999999998  1.0000
  C   C54       1.0  0.54647  0.12194000000000002  0.15611999999999998  1.0000
  C   C55       1.0  0.91733  0.47969  0.69025  1.0000
  C   C56       1.0  0.2687  0.57132  0.20923999999999995  1.0000
  C   C57       1.0  0.34519  0.29414  0.57563  1.0000
  C   C58       1.0  0.46837  0.79435  0.9431  1.0000
  C   C59       1.0  0.35095  0.58834  0.84588  1.0000
  C   C60       1.0  0.50297  0.74338  0.39906999999999987  1.0000
  C   C61       1.0  0.90753  0.55322  0.63371  1.0000
  C   C62       1.0  0.85604  0.80646  0.39715  1.0000
  C   C63       1.0  0.4535299999999999  0.87807  0.84388  1.0000
  C   C64       1.0  0.29745999999999995  0.93138  0.34531  1.0000
  C   C65       1.0  0.3862599999999999  0.75895  0.12845  1.0000
  C   C66       1.0  0.14323  0.24487  0.6687999999999998  1.0000
  C   C67       1.0  0.004250000000000016  0.74374  0.10101  1.0000
  C   C68       1.0  0.14396  0.19354  0.6028499999999999  1.0000
  C   C69       1.0  0.51651  0.74364  0.93403  1.0000
  C   C70       1.0  0.037299999999999986  0.28006  0.57563  1.0000
  C   C71       1.0  0.64016  0.59636  0.79822  1.0000
  C   C72       1.0  0.22173  0.51341  0.65531  1.0000
  C   C73       1.0  0.95638  0.26363  0.3953799999999999  1.0000
  C   C74       1.0  0.94863  0.28909  0.8732  1.0000
  C   C75       1.0  0.43405  0.80645  0.9822000000000001  1.0000
  C   C76       1.0  0.0627  0.04787  0.79328  1.0000
  C   C77       1.0  0.70817  0.49523000000000006  0.8058999999999998  1.0000
  C   C78       1.0  0.84422  0.29405  0.9240399999999999  1.0000
  C   C79       1.0  0.2892399999999999  0.14916  0.39888  1.0000
  C   C80       1.0  0.69242  0.57026  0.86122  1.0000
  C   C81       1.0  0.59325  0.44715  0.13446  1.0000
  C   C82       1.0  0.9523099999999997  0.87744  0.65645  1.0000
  C   C83       1.0  0.7876900000000001  0.14941  0.10079999999999999  1.0000
  C   C84       1.0  0.41534  0.47966  0.80887  1.0000
  C   C85       1.0  0.85339  0.03936  0.72359  1.0000
  C   C86       1.0  0.40675  0.55286  0.86554  1.0000
  C   C87       1.0  0.79695  0.93179  0.15445  1.0000
  C   C88       1.0  0.7782700000000001  0.4865900000000001  0.34469  1.0000
  C   C89       1.0  0.47926  0.30375  0.66706  1.0000
  C   C90       1.0  0.26829  0.19738  0.37196  1.0000
  C   C91       1.0  0.09247000000000001  0.4467900000000001  0.36628999999999995  1.0000
  C   C92       1.0  0.64968  0.61138  0.83787  1.0000
  C   C93       1.0  0.85538  0.17238  0.73265  1.0000
  C   C94       1.0  0.52407  0.16691  0.12381999999999999  1.0000
  C   C95       1.0  0.39141  0.25951  0.55036  1.0000
  C   C96       1.0  0.56769  0.23366  0.94932  1.0000
  C   C97       1.0  0.35646  0.80582  0.10341  1.0000
  C   C98       1.0  0.7300799999999997  0.71265  0.57775  1.0000
  C   C99       1.0  0.76998  0.57256  0.29126  1.0000
  C   C100      1.0  0.14659999999999995  0.9606399999999999  0.27641  1.0000
  C   C101      1.0  0.24364  0.73321  0.88395  1.0000
  C   C102      1.0  0.06686  0.19447  0.48164999999999997  1.0000
  C   C103      1.0  0.7701799999999998  0.68678  0.64648  1.0000
  C   C104      1.0  0.19307  0.57114  0.63927  1.0000
  C   C105      1.0  0.72164  0.51304  0.84496  1.0000
  C   C106      1.0  0.30794  0.26949  0.48981  1.0000
  C   C107      1.0  0.20762  0.4947  0.6942599999999998  1.0000
  C   C108      1.0  0.4490899999999999  0.42216  0.78925  1.0000
  C   C109      1.0  0.27835  0.48697  0.15504  1.0000
  C   C110      1.0  0.29399  0.07209  0.38852  1.0000
  C   C111      1.0  0.2300199999999999  0.42744  0.70874  1.0000
  C   C112      1.0  0.87974  0.81108  0.43571  1.0000
  C   C113      1.0  0.38285  0.87977  0.30013  1.0000
  C   C114      1.0  0.83025  0.5698  0.6921499999999998  1.0000
  C   C115      1.0  0.15018  0.61174  0.66277  1.0000
  C   C116      1.0  0.19365  0.73024  0.99026  1.0000
  C   C117      1.0  0.5442  0.73662  0.89613  1.0000
  C   C118      1.0  0.88565  0.75996  0.37186  1.0000
  C   C119      1.0  0.7912  0.07212  0.11146  1.0000
  C   C120      1.0  0.87256  0.30711  0.8860999999999999  1.0000
  C   C121      1.0  0.23188999999999996  0.802  0.87221  1.0000
  C   C122      1.0  0.80692  0.42887  0.36073  1.0000
  C   C123      1.0  0.58465  0.52035  0.19113  1.0000
  C   C124      1.0  0.12744  0.69289  0.1139  1.0000
  C   C125      1.0  0.43915999999999983  0.49965000000000004  0.8471  1.0000
  C   C126      1.0  0.08266999999999997  0.52032  0.30975  1.0000
  C   C127      1.0  0.33158  0.46166  0.2175  1.0000
  C   C128      1.0  0.60858  0.7405  0.44964  1.0000
  C   C129      1.0  0.22981  0.31323  0.35352  1.0000
  C   C130      1.0  0.94763  0.07436  0.6549899999999999  1.0000
  C   C131      1.0  0.96269  0.71995  0.42437  1.0000
  C   C132      1.0  0.37348  0.30718  0.6135599999999998  1.0000
  C   C133      1.0  0.57959  0.98688  0.68938  1.0000
  C   C134      1.0  0.92167  0.00040000000000000013  0.66826  1.0000
  C   C135      1.0  0.16975  0.43021  0.30785  1.0000
  C   C136      1.0  0.87999  0.11337000000000001  0.71065  1.0000
  C   C137      1.0  0.64399  0.82751  0.2333  1.0000
  C   C138      1.0  0.8748099999999996  0.9828199999999999  0.70295  1.0000
  C   C139      1.0  0.09459  0.67971  0.61069  1.0000
  C   C140      1.0  0.63951  0.4843300000000001  0.21059  1.0000
  C   C141      1.0  0.20878999999999998  0.92789  0.8885399999999999  1.0000
  C   C142      1.0  0.42791  0.1309  0.82329  1.0000
  C   C143      1.0  0.14966999999999994  0.9962600000000001  0.83753  1.0000
  C   C144      1.0  0.44958  0.28926  0.62658  1.0000
  C   C145      1.0  0.67117  0.42994  0.19272  1.0000
  C   C146      1.0  0.55967  0.28401  0.88552  1.0000
  C   C147      1.0  0.52282  0.78113  0.86728  1.0000
  C   C148      1.0  0.6548  0.70587  0.42437  1.0000
  C   C149      1.0  0.42041  0.01312  0.31062  1.0000
  C   C150      1.0  0.94045  0.50001  0.65197  1.0000
  C   C151      1.0  0.61961  0.88645  0.21104  1.0000
  C   C152      1.0  0.37982  0.81076  0.06482  1.0000
  C   C153      1.0  0.05998  0.28298  0.61434  1.0000
  C   C154      1.0  0.05236999999999995  0.9256399999999999  0.34501  1.0000
  C   C155      1.0  0.35071  0.0033300000000000005  0.33712  1.0000
  C   C156      1.0  0.09941999999999997  0.18455  0.78073  1.0000
  C   C157      1.0  0.9278  0.13055  0.67639  1.0000
  C   C158      1.0  0.14805  0.41145  0.34647  1.0000
  C   C159      1.0  0.35031  0.38863  0.16213  1.0000
  C   C160      1.0  0.032759999999999984  0.20667  0.4425  1.0000
  C   C161      1.0  0.92027  0.013579999999999998  0.18888  1.0000
  C   C162      1.0  0.40441  0.31993  0.10987  1.0000
  C   C163      1.0  0.4970199999999999  0.25663  0.60093  1.0000
  C   C164      1.0  0.14461  0.82763  0.26735  1.0000
  C   C165      1.0  0.42193  0.00079  0.83179  1.0000
  C   C166      1.0  0.62497  0.01699  0.20288  1.0000
  C   C167      1.0  0.89031  0.25944  0.9494599999999999  1.0000
  C   C168      1.0  0.26878  0.68607  0.85329  1.0000
  C   C169      1.0  0.88316  0.8802  0.19932  1.0000
  C   C170      1.0  0.02526  0.16771  0.37565  1.0000
  C   C171      1.0  0.15577  0.70595  0.07595999999999997  1.0000
  C   C172      1.0  0.55232  0.92519  0.1551  1.0000
  C   C173      1.0  0.76929  0.28806  0.07748  1.0000
  C   C174      1.0  0.52074  0.69626  0.33294  1.0000
  C   C175      1.0  0.11434999999999998  0.24005000000000004  0.6281399999999999  1.0000
  C   C176      1.0  0.93313  0.80554  0.51835  1.0000
  C   C177      1.0  0.6171399999999998  0.12023  0.69987  1.0000
  C   C178      1.0  0.68686  0.12949  0.6736799999999998  1.0000
  C   C179      1.0  0.55042  0.71075  0.37341999999999986  1.0000
  C   C180      1.0  0.47592999999999996  0.8331  0.8761799999999997  1.0000
  C   C181      1.0  0.022380000000000018  0.78093  0.63338  1.0000
  C   C182      1.0  0.46733  0.24064999999999998  0.56341  1.0000
  C   C183      1.0  0.9513399999999997  0.4221  0.70978  1.0000
  C   C184      1.0  0.29455  0.24063  0.44928  1.0000
  C   C185      1.0  0.7317  0.80262  0.62804  1.0000
  C   C186      1.0  0.12025  0.18893  0.56429  1.0000
  C   C187      1.0  0.4403199999999999  0.716  0.11448  1.0000
  C   C188      1.0  0.69869  0.8294  0.56235  1.0000
  C   C189      1.0  0.53162  0.20565  0.0569  1.0000
  C   C190      1.0  0.7923799999999995  0.5053  0.30574  1.0000
  C   C191      1.0  0.46264  0.7193  0.07579999999999999  1.0000
  C   C192      1.0  0.3013  0.1706  0.43765  1.0000
  C   C193      1.0  0.7107499999999998  0.85085  0.60112  1.0000
  C   C194      1.0  0.047679999999999986  0.12255999999999999  0.3435499999999999  1.0000
  C   C195      1.0  0.81294  0.87091  0.17336999999999997  1.0000
  C   C196      1.0  0.7025299999999998  0.06862  0.65469  1.0000
  C   C197      1.0  0.07219000000000002  0.86946  0.32360999999999995  1.0000
  C   C198      1.0  0.10968  0.74056  0.05054  1.0000
  C   C199      1.0  0.8519499999999999  0.58856  0.65353  1.0000
  C   C200      1.0  0.85033  0.0037500000000000003  0.16247  1.0000
  C   C201      1.0  0.36049  0.51567  0.78941  1.0000
  C   C202      1.0  0.3075699999999999  0.42974  0.13878  1.0000
  C   C203      1.0  0.18706  0.1291  0.82663  1.0000
  C   C204      1.0  0.16824  0.53758  0.7178799999999999  1.0000
  C   C205      1.0  0.07832000000000001  0.99961  0.33174  1.0000
  C   C206      1.0  0.3537099999999999  0.03945  0.77625  1.0000
  C   C207      1.0  0.23071  0.71194  0.9225200000000001  1.0000
  C   C208      1.0  0.9841699999999997  0.25692  0.4333  1.0000
  C   C209      1.0  0.12001000000000006  0.88664  0.28935  1.0000
  C   C210      1.0  0.4487799999999999  0.83919  0.91387  1.0000
  C   C211      1.0  0.9005799999999999  0.81546  0.21927  1.0000
  C   C212      1.0  0.05293  0.16212  0.41331999999999997  1.0000
  C   C213      1.0  0.8625  0.51543  0.7098399999999998  1.0000
  C   C214      1.0  0.14049999999999996  0.59614  0.70239  1.0000
  C   C215      1.0  0.93729  0.95213  0.20672  1.0000
  C   C216      1.0  0.20714999999999995  0.75898  0.9496500000000001  1.0000
  C   C217      1.0  0.38039  0.11356  0.78896  1.0000
  C   C218      1.0  0.64354  0.19418  0.89659  1.0000
  C   C219      1.0  0.70544  0.75938  0.5507199999999999  1.0000
  C   C220      1.0  0.5780699999999998  0.99922  0.16821  1.0000
  C   C221      1.0  0.9957399999999998  0.25627  0.89899  1.0000
  C   C222      1.0  0.20305  0.06821  0.84555  1.0000
  C   C223      1.0  0.93244  0.76662  0.44969  1.0000
  C   C224      1.0  0.64173  0.2468  0.83083  1.0000
  C   C225      1.0  0.12518  0.01719  0.29705  1.0000
  C   C226      1.0  0.7681  0.198  0.12779  1.0000
  C   C227      1.0  0.1375  0.48458  0.29016  1.0000
  C   C228      1.0  0.97762  0.21908  0.36662  1.0000
  C   C229      1.0  0.25592  0.2659  0.38382  1.0000
  C   C230      1.0  0.05955  0.5  0.34803  1.0000
  C   C231      1.0  0.97961  0.3037  0.83286  1.0000
  C   C232      1.0  0.4558  0.26339  0.10387  1.0000
  C   C233      1.0  0.80634  0.26977  0.00974  1.0000
  C   C234      1.0  0.97474  0.8323  0.62435  1.0000
  C   C235      1.0  0.9660599999999998  0.2403  0.93651  1.0000
  C   C236      1.0  0.03393999999999999  0.7597  0.06349  1.0000
  C   C237      1.0  0.07973000000000002  0.9864300000000001  0.8111199999999997  1.0000
  C   C238      1.0  0.5608299999999998  0.50035  0.1529  1.0000
  C   C239      1.0  0.85676  0.75513  0.3312  1.0000
  C   C240      1.0  0.64904  0.41167  0.15412  1.0000
  N   N1        1.0  0.86302  0.24143  0.98779  1.0000
  N   N2        1.0  0.31924  0.64067  0.86638  1.0000
  N   N3        1.0  0.68076  0.35934  0.13362  1.0000
  N   N4        1.0  0.364  0.24098  0.51211  1.0000
  N   N5        1.0  0.88584  0.33232  0.35164  1.0000
  N   N6        1.0  0.63599  0.75902  0.48788999999999993  1.0000
  N   N7        1.0  0.11416000000000003  0.66768  0.64836  1.0000
  N   N8        1.0  0.54396  0.23403999999999997  0.98819  1.0000
  N   N9        1.0  0.95624  0.76595  0.48859  1.0000
  N   N10       1.0  0.61369  0.66722  0.85239  1.0000
  N   N11       1.0  0.8353  0.06798  0.14542  1.0000
  N   N12       1.0  0.33555  0.06761  0.35397  1.0000
  N   N13       1.0  0.45604  0.76596  0.01181  1.0000
  N   N14       1.0  0.05752  0.05428  0.35491  1.0000
  N   N15       1.0  0.44272999999999996  0.9461100000000001  0.85507  1.0000
  N   N16       1.0  0.9424799999999998  0.9457300000000001  0.64509  1.0000
  N   N17       1.0  0.13698  0.75858  0.012209999999999999  1.0000
  N   N18       1.0  0.16469  0.93203  0.85458  1.0000
  N   N19       1.0  0.5572699999999998  0.05389  0.14493  1.0000
  N   N20       1.0  0.04375  0.23406  0.51141  1.0000
  N   N21       1.0  0.17995999999999995  0.35893  0.36687  1.0000
  N   N22       1.0  0.8200399999999998  0.64108  0.63313  1.0000
  N   N23       1.0  0.38631  0.33278  0.14761  1.0000
  N   N24       1.0  0.66444  0.9323999999999999  0.64602  1.0000
  O   O1        1.0  0.39819  0.72069  0.19279  1.0000
  O   O2        1.0  0.76987  0.3165  0.99805  1.0000
  O   O3        1.0  0.07877  0.70157  0.19424  1.0000
  O   O4        1.0  0.56022  0.32014  0.67602  1.0000
  O   O5        1.0  0.26339  0.01846  0.40986  1.0000
  O   O6        1.0  0.55418  0.1454  0.18942  1.0000
  O   O7        1.0  0.58433  0.6037  0.24375999999999998  1.0000
  O   O8        1.0  0.52317  0.18222  0.73154  1.0000
  O   O9        1.0  0.4397699999999999  0.67987  0.32398  1.0000
  O   O10       1.0  0.4768199999999999  0.81778  0.26846  1.0000
  O   O11       1.0  0.72809  0.68334  0.49888999999999994  1.0000
  O   O12       1.0  0.06077999999999999  0.32004  0.82461  1.0000
  O   O13       1.0  0.6018  0.27931  0.80721  1.0000
  O   O14       1.0  0.6970899999999998  0.39969  0.75829  1.0000
  O   O15       1.0  0.10359  0.27587  0.69328  1.0000
  O   O16       1.0  0.61823  0.6479  0.91783  1.0000
  O   O17       1.0  0.98681  0.60022  0.30505  1.0000
  O   O18       1.0  0.88812  0.85001  0.51422  1.0000
  O   O19       1.0  0.29805  0.15662  0.7407899999999998  1.0000
  O   O20       1.0  0.61026  0.1486  0.01348  1.0000
  O   O21       1.0  0.20850999999999997  0.22012  0.6778  1.0000
  O   O22       1.0  0.25133  0.30957  0.31968  1.0000
  O   O23       1.0  0.11188  0.15  0.48578  1.0000
  O   O24       1.0  0.02207  0.18194  0.7694599999999999  1.0000
  O   O25       1.0  0.41566  0.39631  0.75624  1.0000
  O   O26       1.0  0.71844  0.60047  0.31057  1.0000
  O   O27       1.0  0.97793  0.81807  0.23054  1.0000
  O   O28       1.0  0.9439699999999999  0.85417  0.6898  1.0000
  O   O29       1.0  0.08210999999999997  0.60383  0.25719  1.0000
  O   O30       1.0  0.11605  0.64691  0.5829999999999999  1.0000
  O   O31       1.0  0.92122  0.29843  0.80576  1.0000
  O   O32       1.0  0.24644999999999995  0.68979  0.81951  1.0000
  O   O33       1.0  0.4890199999999999  0.60017  0.1959  1.0000
  O   O34       1.0  0.24271  0.98184  0.90913  1.0000
  O   O35       1.0  0.75355  0.31022  0.18049  1.0000
  O   O36       1.0  0.38176  0.35211  0.08217  1.0000
  O   O37       1.0  0.7967599999999998  0.15671  0.7582599999999998  1.0000
  O   O38       1.0  0.73661  0.98155  0.59014  1.0000
  O   O39       1.0  0.5109699999999998  0.39983  0.8041  1.0000
  O   O40       1.0  0.2719099999999999  0.31666  0.50111  1.0000
  O   O41       1.0  0.8358999999999998  0.75575  0.22464  1.0000
  O   O42       1.0  0.2939699999999999  0.77855  0.17892  1.0000
  O   O43       1.0  0.78307  0.40023  0.8097299999999998  1.0000
  O   O44       1.0  0.3028999999999999  0.60032  0.24169999999999997  1.0000
  O   O45       1.0  0.19558  0.39706  0.74097  1.0000
  O   O46       1.0  0.9392199999999997  0.67997  0.17539  1.0000
  O   O47       1.0  0.39397  0.24277  0.77525  1.0000
  O   O48       1.0  0.7914900000000001  0.77988  0.3222  1.0000
  O   O49       1.0  0.013180000000000022  0.39979  0.69495  1.0000
  O   O50       1.0  0.28155  0.39954  0.6894299999999999  1.0000
  O   O51       1.0  0.3897399999999999  0.85141  0.98652  1.0000
  O   O52       1.0  0.70194  0.84339  0.25921  1.0000
  O   O53       1.0  0.7060199999999998  0.22145  0.82108  1.0000
  O   O54       1.0  0.8942  0.24251  0.724  1.0000
  O   O55       1.0  0.41977  0.29843  0.69355  1.0000
  O   O56       1.0  0.44581999999999994  0.85461  0.81058  1.0000
  O   O57       1.0  0.58022  0.70158  0.30645  1.0000
  O   O58       1.0  0.88395  0.35309  0.417  1.0000
  O   O59       1.0  0.8964099999999997  0.72414  0.30672  1.0000
  O   O60       1.0  0.60602  0.75723  0.22475  1.0000
  O   O61       1.0  0.80442  0.60295  0.25903  1.0000
  O   O62       1.0  0.6646400000000001  0.24497  0.72507  1.0000
  O   O63       1.0  0.7486699999999995  0.69043  0.68032  1.0000
  O   O64       1.0  0.20323  0.8433  0.24173999999999998  1.0000
  O   O65       1.0  0.10578999999999995  0.7575  0.276  1.0000
  O   O66       1.0  0.91789  0.39618  0.74281  1.0000
  O   O67       1.0  0.05601999999999999  0.14583  0.3102  1.0000
  O   O68       1.0  0.7572799999999997  0.01817  0.09087  1.0000
  O   O69       1.0  0.23012  0.68351  0.0019500000000000001  1.0000
  O   O70       1.0  0.1641  0.24426  0.77536  1.0000
  O   O71       1.0  0.33535  0.75504  0.27493  1.0000
  O   O72       1.0  0.21692  0.59978  0.19027  1.0000
