data_image0
_chemical_formula_structural       Cd8H160C240N32O64
_chemical_formula_sum              "Cd8 H160 C240 N32 O64"
_cell_length_a       14.87765
_cell_length_b       22.05715
_cell_length_c       22.05715
_cell_angle_alpha    89.99955
_cell_angle_beta     90.0
_cell_angle_gamma    90.0

_space_group_name_H-M_alt    "P 1"
_space_group_IT_number       1

loop_
  _space_group_symop_operation_xyz
  'x, y, z'

loop_
  _atom_site_type_symbol
  _atom_site_label
  _atom_site_symmetry_multiplicity
  _atom_site_fract_x
  _atom_site_fract_y
  _atom_site_fract_z
  _atom_site_occupancy
  Cd  Cd1       1.0  0.4773099999999999  0.21472000000000002  0.9510699999999997  1.0000
  Cd  Cd2       1.0  0.27268  0.28532  0.45104999999999995  1.0000
  Cd  Cd3       1.0  0.9773099999999999  0.78528  0.04893  1.0000
  Cd  Cd4       1.0  0.7726799999999998  0.71468  0.5489399999999999  1.0000
  Cd  Cd5       1.0  0.22731999999999994  0.54894  0.7146799999999998  1.0000
  Cd  Cd6       1.0  0.02269  0.04893  0.7852799999999998  1.0000
  Cd  Cd7       1.0  0.72732  0.45105  0.28532  1.0000
  Cd  Cd8       1.0  0.52269  0.95107  0.21470999999999996  1.0000
  H   H1        1.0  0.9834699999999998  0.21719000000000002  0.4157799999999999  1.0000
  H   H2        1.0  0.95107  0.29102  0.49665  1.0000
  H   H3        1.0  0.88087  0.22585999999999998  0.50362  1.0000
  H   H4        1.0  0.97307  0.23588000000000003  0.5538599999999999  1.0000
  H   H5        1.0  0.06588999999999999  0.049389999999999996  0.62405  1.0000
  H   H6        1.0  0.06813  0.9371599999999999  0.6302899999999999  1.0000
  H   H7        1.0  0.002479999999999999  0.03199  0.32216  1.0000
  H   H8        1.0  0.014599999999999997  0.9175100000000002  0.32787  1.0000
  H   H9        1.0  0.022889999999999994  0.74356  0.4419599999999999  1.0000
  H   H10       1.0  0.17347999999999994  0.72674  0.47634  1.0000
  H   H11       1.0  0.10315999999999999  0.6771  0.5190199999999999  1.0000
  H   H12       1.0  0.14611  0.74424  0.55326  1.0000
  H   H13       1.0  0.7665299999999998  0.28281  0.9157799999999998  1.0000
  H   H14       1.0  0.7989299999999998  0.20898000000000003  0.9966599999999998  1.0000
  H   H15       1.0  0.86913  0.27414  0.0036299999999999995  1.0000
  H   H16       1.0  0.7769299999999998  0.26412  0.05386  1.0000
  H   H17       1.0  0.6841099999999998  0.45061  0.12405999999999999  1.0000
  H   H18       1.0  0.6818699999999998  0.56283  0.1303  1.0000
  H   H19       1.0  0.7475199999999997  0.46801999999999994  0.8221599999999999  1.0000
  H   H20       1.0  0.7354  0.58249  0.82787  1.0000
  H   H21       1.0  0.7271099999999999  0.75644  0.9419599999999998  1.0000
  H   H22       1.0  0.5765099999999999  0.77326  0.9763399999999998  1.0000
  H   H23       1.0  0.6468399999999997  0.8228999999999999  0.01902  1.0000
  H   H24       1.0  0.6038799999999998  0.75576  0.05325999999999999  1.0000
  H   H25       1.0  0.4178899999999999  0.13691  0.8277899999999999  1.0000
  H   H26       1.0  0.36435  0.16001  0.7241  1.0000
  H   H27       1.0  0.4273699999999999  0.34865  0.75999  1.0000
  H   H28       1.0  0.4864699999999999  0.31666  0.8594099999999999  1.0000
  H   H29       1.0  0.20713999999999994  0.22183  0.5647599999999999  1.0000
  H   H30       1.0  0.26627  0.19345  0.66523  1.0000
  H   H31       1.0  0.4246499999999999  0.3583  0.66165  1.0000
  H   H32       1.0  0.3615799999999999  0.37841  0.55968  1.0000
  H   H33       1.0  0.33211  0.36309  0.32779  1.0000
  H   H34       1.0  0.38564  0.33999  0.22409  1.0000
  H   H35       1.0  0.3226199999999999  0.15135  0.25999  1.0000
  H   H36       1.0  0.2635299999999999  0.18334  0.35941  1.0000
  H   H37       1.0  0.5428699999999997  0.27817  0.06476  1.0000
  H   H38       1.0  0.4837399999999999  0.30654  0.16522999999999996  1.0000
  H   H39       1.0  0.32535  0.14169  0.16165  1.0000
  H   H40       1.0  0.3884199999999999  0.12157999999999998  0.05968999999999999  1.0000
  H   H41       1.0  0.4834699999999999  0.78281  0.58422  1.0000
  H   H42       1.0  0.4510699999999999  0.70898  0.50334  1.0000
  H   H43       1.0  0.3808699999999999  0.77414  0.49637  1.0000
  H   H44       1.0  0.4730699999999999  0.76412  0.44613  1.0000
  H   H45       1.0  0.5658899999999998  0.95061  0.37594  1.0000
  H   H46       1.0  0.5681299999999998  0.06283  0.36969999999999986  1.0000
  H   H47       1.0  0.50248  0.9680099999999999  0.67784  1.0000
  H   H48       1.0  0.5146  0.08248  0.67213  1.0000
  H   H49       1.0  0.52289  0.25644  0.5580299999999999  1.0000
  H   H50       1.0  0.6734799999999997  0.27326  0.52365  1.0000
  H   H51       1.0  0.6031599999999998  0.3229  0.48097  1.0000
  H   H52       1.0  0.64611  0.25576  0.4467299999999999  1.0000
  H   H53       1.0  0.2665299999999999  0.71719  0.08421999999999999  1.0000
  H   H54       1.0  0.29893  0.7910200000000001  0.00334  1.0000
  H   H55       1.0  0.36913  0.72586  0.9963699999999998  1.0000
  H   H56       1.0  0.27693  0.73588  0.9461299999999999  1.0000
  H   H57       1.0  0.18410999999999994  0.54939  0.87594  1.0000
  H   H58       1.0  0.18186999999999995  0.43717  0.8697  1.0000
  H   H59       1.0  0.24751999999999993  0.53198  0.17783999999999997  1.0000
  H   H60       1.0  0.2354  0.41750999999999994  0.17212999999999998  1.0000
  H   H61       1.0  0.22710999999999995  0.24356  0.05804  1.0000
  H   H62       1.0  0.07650999999999997  0.22674  0.02365  1.0000
  H   H63       1.0  0.14683999999999994  0.1771  0.9809699999999998  1.0000
  H   H64       1.0  0.10389  0.24424  0.9467299999999998  1.0000
  H   H65       1.0  0.9178799999999998  0.86309  0.17219999999999996  1.0000
  H   H66       1.0  0.8643499999999997  0.83999  0.2758999999999999  1.0000
  H   H67       1.0  0.92737  0.65135  0.24000999999999995  1.0000
  H   H68       1.0  0.9864699999999997  0.68334  0.14059  1.0000
  H   H69       1.0  0.7071399999999998  0.77817  0.43523999999999996  1.0000
  H   H70       1.0  0.76627  0.8065400000000001  0.33476  1.0000
  H   H71       1.0  0.92465  0.64169  0.3383399999999999  1.0000
  H   H72       1.0  0.8615799999999998  0.62158  0.44030999999999987  1.0000
  H   H73       1.0  0.8321099999999998  0.63691  0.67221  1.0000
  H   H74       1.0  0.8856399999999998  0.66  0.77591  1.0000
  H   H75       1.0  0.8226199999999998  0.84864  0.74001  1.0000
  H   H76       1.0  0.76352  0.8166500000000001  0.64059  1.0000
  H   H77       1.0  0.04287  0.72183  0.93523  1.0000
  H   H78       1.0  0.98373  0.69345  0.83476  1.0000
  H   H79       1.0  0.8253499999999998  0.8582999999999998  0.83834  1.0000
  H   H80       1.0  0.88842  0.87842  0.94031  1.0000
  H   H81       1.0  0.7334699999999997  0.08422  0.71719  1.0000
  H   H82       1.0  0.7010699999999997  0.0033400000000000005  0.7910199999999998  1.0000
  H   H83       1.0  0.6308699999999998  0.99637  0.7258599999999998  1.0000
  H   H84       1.0  0.7230699999999998  0.94613  0.7358799999999999  1.0000
  H   H85       1.0  0.8158899999999998  0.87594  0.54938  1.0000
  H   H86       1.0  0.81813  0.8697  0.43716999999999995  1.0000
  H   H87       1.0  0.75248  0.17784  0.53198  1.0000
  H   H88       1.0  0.7645999999999997  0.17213  0.41751  1.0000
  H   H89       1.0  0.77289  0.05804  0.24356  1.0000
  H   H90       1.0  0.9234799999999997  0.02365  0.22673999999999997  1.0000
  H   H91       1.0  0.85316  0.98097  0.1771  1.0000
  H   H92       1.0  0.8961099999999997  0.94673  0.24424  1.0000
  H   H93       1.0  0.51652  0.58422  0.7828  1.0000
  H   H94       1.0  0.5489299999999999  0.50334  0.70898  1.0000
  H   H95       1.0  0.61912  0.49637  0.7741399999999999  1.0000
  H   H96       1.0  0.52693  0.44613  0.7641199999999999  1.0000
  H   H97       1.0  0.4341099999999999  0.37594  0.95061  1.0000
  H   H98       1.0  0.43187  0.36970000000000003  0.06283  1.0000
  H   H99       1.0  0.4975199999999999  0.67784  0.9680099999999998  1.0000
  H   H100      1.0  0.4853999999999999  0.67213  0.08248  1.0000
  H   H101      1.0  0.47710999999999987  0.55803  0.25644  1.0000
  H   H102      1.0  0.32651999999999987  0.52365  0.27326  1.0000
  H   H103      1.0  0.39684  0.48097  0.3229  1.0000
  H   H104      1.0  0.35389  0.44673  0.25576  1.0000
  H   H105      1.0  0.16788999999999996  0.67221  0.6369099999999999  1.0000
  H   H106      1.0  0.11436  0.77591  0.6599999999999999  1.0000
  H   H107      1.0  0.17738  0.74001  0.84864  1.0000
  H   H108      1.0  0.23646999999999996  0.64059  0.81665  1.0000
  H   H109      1.0  0.95713  0.93523  0.7218299999999999  1.0000
  H   H110      1.0  0.016259999999999993  0.83476  0.69345  1.0000
  H   H111      1.0  0.17464999999999994  0.83834  0.8582999999999997  1.0000
  H   H112      1.0  0.11157999999999997  0.94031  0.87841  1.0000
  H   H113      1.0  0.08210999999999997  0.1722  0.8630799999999998  1.0000
  H   H114      1.0  0.13564999999999994  0.2759  0.8399899999999998  1.0000
  H   H115      1.0  0.07263  0.24001  0.65135  1.0000
  H   H116      1.0  0.01353  0.14059  0.6833399999999998  1.0000
  H   H117      1.0  0.29286  0.43524  0.77817  1.0000
  H   H118      1.0  0.23372999999999997  0.33477  0.80654  1.0000
  H   H119      1.0  0.07534999999999997  0.33834  0.64169  1.0000
  H   H120      1.0  0.13841  0.4403099999999999  0.6215799999999999  1.0000
  H   H121      1.0  0.23347  0.91578  0.28281  1.0000
  H   H122      1.0  0.20106999999999994  0.9966599999999999  0.20898  1.0000
  H   H123      1.0  0.13087  0.00363  0.27414  1.0000
  H   H124      1.0  0.22306999999999994  0.05385999999999999  0.26412  1.0000
  H   H125      1.0  0.31589  0.12406  0.45061  1.0000
  H   H126      1.0  0.3181299999999999  0.1303  0.5628299999999999  1.0000
  H   H127      1.0  0.25248  0.82216  0.4680199999999999  1.0000
  H   H128      1.0  0.2645999999999999  0.82787  0.58248  1.0000
  H   H129      1.0  0.27289  0.94196  0.7564399999999999  1.0000
  H   H130      1.0  0.42348999999999987  0.9763399999999999  0.7732599999999997  1.0000
  H   H131      1.0  0.35315999999999986  0.01902  0.8229  1.0000
  H   H132      1.0  0.3961099999999999  0.05327  0.7557599999999998  1.0000
  H   H133      1.0  0.016519999999999993  0.41578  0.21718999999999997  1.0000
  H   H134      1.0  0.04893  0.49665  0.29101999999999995  1.0000
  H   H135      1.0  0.11911999999999998  0.50362  0.22585999999999998  1.0000
  H   H136      1.0  0.026929999999999992  0.55386  0.23588  1.0000
  H   H137      1.0  0.93411  0.62405  0.04938  1.0000
  H   H138      1.0  0.9318699999999998  0.63029  0.9371599999999999  1.0000
  H   H139      1.0  0.99752  0.32216  0.03198  1.0000
  H   H140      1.0  0.9853999999999998  0.32787  0.9175099999999999  1.0000
  H   H141      1.0  0.9771099999999998  0.44197  0.7435599999999999  1.0000
  H   H142      1.0  0.82652  0.47635  0.7267399999999999  1.0000
  H   H143      1.0  0.8968399999999997  0.51902  0.6770999999999999  1.0000
  H   H144      1.0  0.8538899999999998  0.55326  0.7442399999999999  1.0000
  H   H145      1.0  0.66789  0.32779  0.36309  1.0000
  H   H146      1.0  0.6143599999999998  0.22409  0.33999  1.0000
  H   H147      1.0  0.6773699999999998  0.25999  0.15135  1.0000
  H   H148      1.0  0.73647  0.35941  0.18333999999999998  1.0000
  H   H149      1.0  0.4571299999999999  0.06477  0.27817  1.0000
  H   H150      1.0  0.51626  0.16523  0.30654  1.0000
  H   H151      1.0  0.6746499999999997  0.16165  0.14168999999999998  1.0000
  H   H152      1.0  0.6115799999999999  0.05969  0.12157999999999998  1.0000
  H   H153      1.0  0.58211  0.8277999999999999  0.13691  1.0000
  H   H154      1.0  0.6356399999999998  0.7241  0.16  1.0000
  H   H155      1.0  0.5726299999999998  0.75999  0.34864  1.0000
  H   H156      1.0  0.51353  0.85941  0.31666  1.0000
  H   H157      1.0  0.7928599999999998  0.56476  0.22182999999999997  1.0000
  H   H158      1.0  0.7337299999999998  0.66523  0.19344999999999996  1.0000
  H   H159      1.0  0.5753499999999998  0.66165  0.3583  1.0000
  H   H160      1.0  0.6384099999999998  0.55968  0.3784099999999999  1.0000
  C   C1        1.0  0.10638999999999997  0.23642000000000002  0.45829999999999993  1.0000
  C   C2        1.0  0.0109  0.21035  0.4615399999999999  1.0000
  C   C3        1.0  0.9500199999999998  0.24247  0.50725  1.0000
  C   C4        1.0  0.010499999999999999  0.11065999999999998  0.41293  1.0000
  C   C5        1.0  0.042399999999999986  0.11863999999999998  0.52349  1.0000
  C   C6        1.0  0.04394999999999999  0.05142  0.5274999999999999  1.0000
  C   C7        1.0  0.05694  0.02279  0.5830199999999999  1.0000
  C   C8        1.0  0.058689999999999985  0.95908  0.58658  1.0000
  C   C9        1.0  0.04973  0.9237  0.53473  1.0000
  C   C10       1.0  0.03878999999999999  0.95181  0.47755  1.0000
  C   C11       1.0  0.03409  0.01621  0.47417  1.0000
  C   C12       1.0  0.020089999999999993  0.04408  0.41729  1.0000
  C   C13       1.0  0.013689999999999997  0.00896  0.3650799999999999  1.0000
  C   C14       1.0  0.01999  0.94559  0.36826  1.0000
  C   C15       1.0  0.031049999999999994  0.91699  0.42395  1.0000
  C   C16       1.0  0.030959999999999994  0.8500399999999999  0.42695  1.0000
  C   C17       1.0  0.0504  0.85685  0.53899  1.0000
  C   C18       1.0  0.036039999999999996  0.75746  0.48904  1.0000
  C   C19       1.0  0.12059999999999997  0.72478  0.5109799999999999  1.0000
  C   C20       1.0  0.9479999999999997  0.74145  0.52198  1.0000
  C   C21       1.0  0.6436199999999999  0.26358  0.9583  1.0000
  C   C22       1.0  0.73911  0.28965  0.96154  1.0000
  C   C23       1.0  0.7999799999999999  0.25753  0.007259999999999999  1.0000
  C   C24       1.0  0.7395  0.3893400000000001  0.9129299999999999  1.0000
  C   C25       1.0  0.7076099999999999  0.38136  0.023489999999999997  1.0000
  C   C26       1.0  0.7060499999999998  0.4485799999999999  0.02751  1.0000
  C   C27       1.0  0.69306  0.4772  0.08303  1.0000
  C   C28       1.0  0.69131  0.54091  0.08658  1.0000
  C   C29       1.0  0.7002699999999997  0.5763  0.03473  1.0000
  C   C30       1.0  0.71121  0.54818  0.9775499999999999  1.0000
  C   C31       1.0  0.7159099999999998  0.48379  0.9741699999999999  1.0000
  C   C32       1.0  0.72991  0.45592  0.91729  1.0000
  C   C33       1.0  0.7363099999999998  0.49104  0.86507  1.0000
  C   C34       1.0  0.7300099999999999  0.55441  0.86825  1.0000
  C   C35       1.0  0.7189499999999998  0.58301  0.9239499999999999  1.0000
  C   C36       1.0  0.71903  0.64996  0.9269499999999999  1.0000
  C   C37       1.0  0.6995999999999998  0.64315  0.03898999999999999  1.0000
  C   C38       1.0  0.7139499999999998  0.7425400000000001  0.9890399999999998  1.0000
  C   C39       1.0  0.6293899999999998  0.7752200000000001  0.01098  1.0000
  C   C40       1.0  0.8019899999999998  0.75855  0.02198  1.0000
  C   C41       1.0  0.42085  0.18303  0.81037  1.0000
  C   C42       1.0  0.38941  0.19648999999999997  0.75264  1.0000
  C   C43       1.0  0.39023  0.25692  0.73237  1.0000
  C   C44       1.0  0.4262299999999999  0.30075  0.7716099999999999  1.0000
  C   C45       1.0  0.45833  0.28343  0.8282199999999998  1.0000
  C   C46       1.0  0.25548  0.25104  0.58773  1.0000
  C   C47       1.0  0.28910999999999987  0.23531  0.64427  1.0000
  C   C48       1.0  0.35230999999999996  0.27314  0.67265  1.0000
  C   C49       1.0  0.37662  0.32661  0.64222  1.0000
  C   C50       1.0  0.3408299999999999  0.33859  0.58518  1.0000
  C   C51       1.0  0.32914  0.31698  0.31036  1.0000
  C   C52       1.0  0.36058  0.30351  0.25264  1.0000
  C   C53       1.0  0.35976  0.24307999999999996  0.23236999999999997  1.0000
  C   C54       1.0  0.3237599999999999  0.19925  0.27161  1.0000
  C   C55       1.0  0.29166  0.21657000000000004  0.32822  1.0000
  C   C56       1.0  0.4945299999999999  0.24895000000000003  0.08773  1.0000
  C   C57       1.0  0.4608899999999999  0.26469  0.14427  1.0000
  C   C58       1.0  0.39769  0.22686  0.17265  1.0000
  C   C59       1.0  0.3733799999999999  0.17339  0.14222  1.0000
  C   C60       1.0  0.40916999999999987  0.1614  0.08517999999999999  1.0000
  C   C61       1.0  0.60638  0.7635800000000001  0.54169  1.0000
  C   C62       1.0  0.5108999999999999  0.7896499999999999  0.5384499999999999  1.0000
  C   C63       1.0  0.45003  0.75753  0.49273999999999996  1.0000
  C   C64       1.0  0.5104999999999998  0.88934  0.5870699999999999  1.0000
  C   C65       1.0  0.54239  0.8813599999999999  0.4765099999999999  1.0000
  C   C66       1.0  0.54395  0.94858  0.47248999999999997  1.0000
  C   C67       1.0  0.55694  0.9772  0.4169699999999999  1.0000
  C   C68       1.0  0.55869  0.04092  0.41341  1.0000
  C   C69       1.0  0.54973  0.0763  0.4652599999999999  1.0000
  C   C70       1.0  0.53879  0.04818000000000001  0.52245  1.0000
  C   C71       1.0  0.53409  0.98379  0.52583  1.0000
  C   C72       1.0  0.52008  0.95592  0.58271  1.0000
  C   C73       1.0  0.5136899999999999  0.99104  0.63492  1.0000
  C   C74       1.0  0.51999  0.05441  0.63174  1.0000
  C   C75       1.0  0.5310499999999998  0.08301  0.5760499999999998  1.0000
  C   C76       1.0  0.5309599999999999  0.14997  0.57305  1.0000
  C   C77       1.0  0.5504  0.14315  0.46099999999999997  1.0000
  C   C78       1.0  0.53604  0.24254  0.51095  1.0000
  C   C79       1.0  0.6205999999999998  0.27522  0.4890099999999999  1.0000
  C   C80       1.0  0.448  0.25855  0.47801999999999994  1.0000
  C   C81       1.0  0.14362  0.7364199999999999  0.04169  1.0000
  C   C82       1.0  0.23910999999999993  0.71035  0.038459999999999994  1.0000
  C   C83       1.0  0.29998  0.74247  0.99274  1.0000
  C   C84       1.0  0.23949999999999994  0.61065  0.08707  1.0000
  C   C85       1.0  0.20760999999999993  0.61864  0.9764999999999998  1.0000
  C   C86       1.0  0.20605  0.55142  0.9724899999999999  1.0000
  C   C87       1.0  0.19305999999999995  0.5228  0.9169699999999998  1.0000
  C   C88       1.0  0.19130999999999995  0.45908  0.9134099999999999  1.0000
  C   C89       1.0  0.20027  0.42369999999999997  0.96526  1.0000
  C   C90       1.0  0.21120999999999995  0.45182  0.022449999999999998  1.0000
  C   C91       1.0  0.21590999999999994  0.51621  0.02583  1.0000
  C   C92       1.0  0.22990999999999995  0.54407  0.08271  1.0000
  C   C93       1.0  0.23630999999999994  0.50896  0.13492  1.0000
  C   C94       1.0  0.23000999999999994  0.44559  0.13174  1.0000
  C   C95       1.0  0.21894999999999995  0.41699  0.07604999999999999  1.0000
  C   C96       1.0  0.21903999999999996  0.35003  0.07305  1.0000
  C   C97       1.0  0.1996  0.35685  0.9609999999999999  1.0000
  C   C98       1.0  0.21395  0.25746  0.010959999999999998  1.0000
  C   C99       1.0  0.12939999999999993  0.22478000000000004  0.98901  1.0000
  C   C100      1.0  0.30199  0.24145  0.9780199999999998  1.0000
  C   C101      1.0  0.92085  0.8169700000000001  0.18963  1.0000
  C   C102      1.0  0.8894099999999998  0.80351  0.24735  1.0000
  C   C103      1.0  0.8902299999999997  0.7430799999999999  0.26763  1.0000
  C   C104      1.0  0.9262299999999998  0.69925  0.22839  1.0000
  C   C105      1.0  0.9583299999999998  0.71657  0.17177  1.0000
  C   C106      1.0  0.75548  0.74896  0.41227  1.0000
  C   C107      1.0  0.7891099999999998  0.7646900000000001  0.35572999999999994  1.0000
  C   C108      1.0  0.85231  0.7268599999999998  0.3273499999999999  1.0000
  C   C109      1.0  0.8766199999999997  0.67339  0.35777999999999993  1.0000
  C   C110      1.0  0.8408299999999997  0.6614  0.41482  1.0000
  C   C111      1.0  0.8291399999999998  0.68302  0.6896399999999999  1.0000
  C   C112      1.0  0.8605799999999998  0.69649  0.74736  1.0000
  C   C113      1.0  0.85976  0.7569200000000001  0.76763  1.0000
  C   C114      1.0  0.82376  0.8007399999999999  0.7283899999999999  1.0000
  C   C115      1.0  0.79166  0.78343  0.67177  1.0000
  C   C116      1.0  0.99453  0.75104  0.9122699999999999  1.0000
  C   C117      1.0  0.9608899999999999  0.7353099999999999  0.85572  1.0000
  C   C118      1.0  0.89769  0.7731400000000002  0.82735  1.0000
  C   C119      1.0  0.87338  0.82661  0.8577799999999998  1.0000
  C   C120      1.0  0.9091699999999999  0.83859  0.91481  1.0000
  C   C121      1.0  0.85638  0.0417  0.73642  1.0000
  C   C122      1.0  0.7608899999999998  0.03846  0.71035  1.0000
  C   C123      1.0  0.70002  0.99274  0.7424699999999999  1.0000
  C   C124      1.0  0.7604899999999998  0.08707  0.61066  1.0000
  C   C125      1.0  0.79239  0.9765  0.61863  1.0000
  C   C126      1.0  0.79395  0.9724899999999999  0.55142  1.0000
  C   C127      1.0  0.8069399999999999  0.91697  0.52279  1.0000
  C   C128      1.0  0.8086899999999998  0.9134099999999999  0.4590799999999999  1.0000
  C   C129      1.0  0.7997299999999998  0.96526  0.42369999999999997  1.0000
  C   C130      1.0  0.7887899999999998  0.02245  0.45182  1.0000
  C   C131      1.0  0.78409  0.02583  0.5161999999999999  1.0000
  C   C132      1.0  0.77008  0.08271  0.54407  1.0000
  C   C133      1.0  0.76369  0.13492  0.50896  1.0000
  C   C134      1.0  0.76999  0.13174  0.44558999999999993  1.0000
  C   C135      1.0  0.78105  0.07605  0.41699  1.0000
  C   C136      1.0  0.78096  0.07305  0.35002999999999995  1.0000
  C   C137      1.0  0.8003999999999998  0.9609999999999999  0.35684999999999995  1.0000
  C   C138      1.0  0.78605  0.01096  0.25745999999999997  1.0000
  C   C139      1.0  0.8705999999999998  0.98901  0.22478  1.0000
  C   C140      1.0  0.69801  0.97802  0.24145  1.0000
  C   C141      1.0  0.3936099999999999  0.54169  0.76357  1.0000
  C   C142      1.0  0.4891  0.53846  0.78965  1.0000
  C   C143      1.0  0.5499699999999997  0.49274  0.75753  1.0000
  C   C144      1.0  0.4895  0.58707  0.88934  1.0000
  C   C145      1.0  0.4575999999999999  0.47651  0.8813599999999999  1.0000
  C   C146      1.0  0.4560499999999999  0.47249  0.94858  1.0000
  C   C147      1.0  0.4430599999999999  0.41697  0.9771999999999997  1.0000
  C   C148      1.0  0.44131  0.41341  0.04091999999999999  1.0000
  C   C149      1.0  0.4502699999999999  0.46526000000000006  0.07629999999999999  1.0000
  C   C150      1.0  0.46121  0.52245  0.04818  1.0000
  C   C151      1.0  0.4659099999999999  0.52583  0.9837899999999998  1.0000
  C   C152      1.0  0.4799099999999999  0.58271  0.95592  1.0000
  C   C153      1.0  0.48631  0.63492  0.9910399999999998  1.0000
  C   C154      1.0  0.4800099999999999  0.63174  0.054409999999999986  1.0000
  C   C155      1.0  0.46895  0.57605  0.08301  1.0000
  C   C156      1.0  0.46904  0.57305  0.14995999999999998  1.0000
  C   C157      1.0  0.4495999999999999  0.46099999999999997  0.14314999999999997  1.0000
  C   C158      1.0  0.4639599999999999  0.51095  0.24253999999999998  1.0000
  C   C159      1.0  0.3793999999999999  0.48901  0.27522  1.0000
  C   C160      1.0  0.552  0.47802000000000006  0.25855  1.0000
  C   C161      1.0  0.17085999999999996  0.68964  0.68302  1.0000
  C   C162      1.0  0.13941999999999993  0.7473600000000001  0.6964799999999999  1.0000
  C   C163      1.0  0.14023  0.76763  0.7569199999999999  1.0000
  C   C164      1.0  0.17624  0.7283899999999999  0.8007399999999998  1.0000
  C   C165      1.0  0.20833999999999994  0.67178  0.7834299999999998  1.0000
  C   C166      1.0  0.005469999999999998  0.91227  0.75104  1.0000
  C   C167      1.0  0.03911  0.85572  0.7353099999999999  1.0000
  C   C168      1.0  0.10230999999999997  0.82735  0.7731399999999999  1.0000
  C   C169      1.0  0.12662  0.85778  0.82661  1.0000
  C   C170      1.0  0.09082999999999997  0.91481  0.83859  1.0000
  C   C171      1.0  0.07915  0.18963  0.8169699999999999  1.0000
  C   C172      1.0  0.11058999999999998  0.24736000000000002  0.8035099999999998  1.0000
  C   C173      1.0  0.10976999999999998  0.26763  0.7430799999999999  1.0000
  C   C174      1.0  0.07377  0.22838999999999998  0.6992499999999999  1.0000
  C   C175      1.0  0.04167  0.17177  0.7165699999999999  1.0000
  C   C176      1.0  0.24451999999999993  0.41227  0.7489499999999999  1.0000
  C   C177      1.0  0.21089  0.35573  0.7646899999999999  1.0000
  C   C178      1.0  0.14768999999999993  0.32735  0.7268599999999998  1.0000
  C   C179      1.0  0.12337999999999998  0.35778  0.67339  1.0000
  C   C180      1.0  0.15917  0.41482  0.6613999999999999  1.0000
  C   C181      1.0  0.35637999999999986  0.9583000000000002  0.26358  1.0000
  C   C182      1.0  0.26089  0.96154  0.28965  1.0000
  C   C183      1.0  0.20001999999999995  0.00726  0.25753  1.0000
  C   C184      1.0  0.2605  0.9129300000000001  0.38933999999999996  1.0000
  C   C185      1.0  0.29238999999999987  0.023489999999999997  0.38135999999999987  1.0000
  C   C186      1.0  0.2939499999999999  0.027510000000000003  0.44858  1.0000
  C   C187      1.0  0.30694  0.08303  0.4772  1.0000
  C   C188      1.0  0.30868999999999996  0.08659  0.54091  1.0000
  C   C189      1.0  0.2997299999999999  0.03473  0.5762999999999999  1.0000
  C   C190      1.0  0.28878999999999994  0.97755  0.5481799999999999  1.0000
  C   C191      1.0  0.2840899999999999  0.9741699999999999  0.48378999999999994  1.0000
  C   C192      1.0  0.27009  0.91729  0.45592  1.0000
  C   C193      1.0  0.26369  0.86508  0.4910399999999999  1.0000
  C   C194      1.0  0.26999  0.86825  0.55441  1.0000
  C   C195      1.0  0.2810499999999999  0.92395  0.58301  1.0000
  C   C196      1.0  0.2809599999999999  0.92694  0.64996  1.0000
  C   C197      1.0  0.3003999999999999  0.039  0.64315  1.0000
  C   C198      1.0  0.2860499999999999  0.9890399999999999  0.74253  1.0000
  C   C199      1.0  0.3706  0.01099  0.77522  1.0000
  C   C200      1.0  0.19800999999999994  0.02198  0.75855  1.0000
  C   C201      1.0  0.8936099999999998  0.45829999999999993  0.23641999999999994  1.0000
  C   C202      1.0  0.9890999999999998  0.46154  0.21035  1.0000
  C   C203      1.0  0.04997  0.50725  0.24247  1.0000
  C   C204      1.0  0.9894999999999998  0.41293  0.11066  1.0000
  C   C205      1.0  0.9575999999999998  0.52349  0.11863999999999998  1.0000
  C   C206      1.0  0.9560499999999997  0.52751  0.05142  1.0000
  C   C207      1.0  0.9430599999999998  0.58302  0.02279  1.0000
  C   C208      1.0  0.9413099999999998  0.58658  0.95908  1.0000
  C   C209      1.0  0.9502699999999998  0.53473  0.9236999999999999  1.0000
  C   C210      1.0  0.9612099999999998  0.47755  0.9518099999999999  1.0000
  C   C211      1.0  0.9659099999999998  0.47417  0.01621  1.0000
  C   C212      1.0  0.9799099999999997  0.41729  0.04408  1.0000
  C   C213      1.0  0.9863099999999998  0.36508  0.00896  1.0000
  C   C214      1.0  0.9800099999999998  0.36826  0.9455899999999998  1.0000
  C   C215      1.0  0.9689499999999998  0.42395  0.91699  1.0000
  C   C216      1.0  0.9690399999999998  0.42694999999999994  0.85003  1.0000
  C   C217      1.0  0.9495999999999999  0.539  0.85685  1.0000
  C   C218      1.0  0.96396  0.48905  0.75746  1.0000
  C   C219      1.0  0.8794  0.51098  0.7247699999999999  1.0000
  C   C220      1.0  0.051999999999999984  0.52198  0.74144  1.0000
  C   C221      1.0  0.6708599999999998  0.31036  0.31698  1.0000
  C   C222      1.0  0.63942  0.25264  0.30351  1.0000
  C   C223      1.0  0.6402299999999999  0.23237  0.24308  1.0000
  C   C224      1.0  0.6762399999999998  0.27161  0.19925  1.0000
  C   C225      1.0  0.7083399999999997  0.32822  0.21656999999999996  1.0000
  C   C226      1.0  0.50547  0.08773  0.24895  1.0000
  C   C227      1.0  0.5391  0.14427  0.26469  1.0000
  C   C228      1.0  0.6023099999999998  0.17265  0.22685999999999998  1.0000
  C   C229      1.0  0.6266199999999998  0.14222  0.17339  1.0000
  C   C230      1.0  0.59083  0.08518  0.1614  1.0000
  C   C231      1.0  0.5791499999999998  0.81037  0.18302  1.0000
  C   C232      1.0  0.61059  0.7526399999999999  0.19648999999999997  1.0000
  C   C233      1.0  0.6097699999999998  0.73237  0.25692  1.0000
  C   C234      1.0  0.57376  0.7716100000000001  0.30073999999999995  1.0000
  C   C235      1.0  0.5416699999999998  0.82822  0.28343  1.0000
  C   C236      1.0  0.7445199999999997  0.58773  0.25103999999999993  1.0000
  C   C237      1.0  0.71089  0.64427  0.23530999999999994  1.0000
  C   C238      1.0  0.6476899999999998  0.67265  0.27314  1.0000
  C   C239      1.0  0.6233799999999998  0.64222  0.32661  1.0000
  C   C240      1.0  0.65917  0.58518  0.33859  1.0000
  N   N1        1.0  0.014419999999999997  0.14367  0.4678799999999999  1.0000
  N   N2        1.0  0.045739999999999996  0.82394  0.4845999999999999  1.0000
  N   N3        1.0  0.7355899999999999  0.35634  0.96788  1.0000
  N   N4        1.0  0.70425  0.67605  0.9845999999999998  1.0000
  N   N5        1.0  0.4550099999999999  0.22549  0.84784  1.0000
  N   N6        1.0  0.2815899999999999  0.30138  0.55769  1.0000
  N   N7        1.0  0.29498  0.27451  0.34784  1.0000
  N   N8        1.0  0.4684199999999999  0.19862000000000002  0.05768999999999999  1.0000
  N   N9        1.0  0.51441  0.8563300000000001  0.53211  1.0000
  N   N10       1.0  0.54574  0.17606  0.5153899999999999  1.0000
  N   N11       1.0  0.23559  0.64366  0.032119999999999996  1.0000
  N   N12       1.0  0.20424999999999993  0.32394  0.015399999999999997  1.0000
  N   N13       1.0  0.9550099999999998  0.77451  0.15215  1.0000
  N   N14       1.0  0.78159  0.69862  0.44231  1.0000
  N   N15       1.0  0.7949799999999999  0.72549  0.65216  1.0000
  N   N16       1.0  0.9684099999999998  0.8013799999999999  0.9422999999999998  1.0000
  N   N17       1.0  0.76441  0.03212  0.6436599999999999  1.0000
  N   N18       1.0  0.7957499999999997  0.015400000000000002  0.32394  1.0000
  N   N19       1.0  0.4855799999999999  0.53212  0.85633  1.0000
  N   N20       1.0  0.4542599999999999  0.51539  0.17606  1.0000
  N   N21       1.0  0.20501999999999995  0.65216  0.7254799999999998  1.0000
  N   N22       1.0  0.03157999999999999  0.9423  0.80138  1.0000
  N   N23       1.0  0.04498999999999999  0.15216  0.7745099999999998  1.0000
  N   N24       1.0  0.21841  0.44231  0.69862  1.0000
  N   N25       1.0  0.26440999999999987  0.96788  0.35633  1.0000
  N   N26       1.0  0.29574999999999996  0.9846  0.6760499999999999  1.0000
  N   N27       1.0  0.9855799999999998  0.46788  0.14367  1.0000
  N   N28       1.0  0.9542599999999998  0.48460000000000003  0.82394  1.0000
  N   N29       1.0  0.70502  0.34784  0.27451  1.0000
  N   N30       1.0  0.53158  0.057690000000000005  0.19862  1.0000
  N   N31       1.0  0.54499  0.84784  0.22548999999999997  1.0000
  N   N32       1.0  0.7184099999999999  0.55769  0.3013799999999999  1.0000
  O   O1        1.0  0.17211999999999994  0.20016  0.4516899999999999  1.0000
  O   O2        1.0  0.11407  0.29397  0.46057  1.0000
  O   O3        1.0  0.9987899999999998  0.1363  0.364  1.0000
  O   O4        1.0  0.06351999999999997  0.15138  0.56655  1.0000
  O   O5        1.0  0.01774999999999999  0.81822  0.38191  1.0000
  O   O6        1.0  0.05487  0.83016  0.5880699999999999  1.0000
  O   O7        1.0  0.8876299999999998  0.78245  0.5239999999999999  1.0000
  O   O8        1.0  0.93647  0.68717  0.5392899999999999  1.0000
  O   O9        1.0  0.57788  0.29984  0.95168  1.0000
  O   O10       1.0  0.63593  0.20603  0.9605699999999998  1.0000
  O   O11       1.0  0.7512  0.3637  0.864  1.0000
  O   O12       1.0  0.6864799999999998  0.34862  0.06655  1.0000
  O   O13       1.0  0.7322499999999997  0.68177  0.8819099999999997  1.0000
  O   O14       1.0  0.6951299999999998  0.66983  0.08806999999999998  1.0000
  O   O15       1.0  0.86235  0.71753  0.024  1.0000
  O   O16       1.0  0.8135199999999998  0.81282  0.03929  1.0000
  O   O17       1.0  0.67212  0.79984  0.54831  1.0000
  O   O18       1.0  0.61407  0.70603  0.53942  1.0000
  O   O19       1.0  0.4987999999999999  0.8636999999999999  0.636  1.0000
  O   O20       1.0  0.56352  0.8486200000000002  0.43344999999999995  1.0000
  O   O21       1.0  0.5177499999999999  0.18177  0.61808  1.0000
  O   O22       1.0  0.5548699999999998  0.16984  0.41193  1.0000
  O   O23       1.0  0.3876299999999999  0.21755000000000002  0.476  1.0000
  O   O24       1.0  0.4364699999999999  0.31282  0.4606999999999999  1.0000
  O   O25       1.0  0.07788  0.70016  0.04831  1.0000
  O   O26       1.0  0.13592999999999994  0.79396  0.03942  1.0000
  O   O27       1.0  0.2511999999999999  0.6363  0.136  1.0000
  O   O28       1.0  0.18648  0.65138  0.9334399999999999  1.0000
  O   O29       1.0  0.23224999999999996  0.31823  0.11807999999999998  1.0000
  O   O30       1.0  0.19513  0.33016  0.9119299999999999  1.0000
  O   O31       1.0  0.36234999999999995  0.28246  0.976  1.0000
  O   O32       1.0  0.31353  0.18717999999999999  0.9606999999999998  1.0000
  O   O33       1.0  0.92211  0.04830999999999999  0.7001599999999999  1.0000
  O   O34       1.0  0.8640699999999998  0.03942  0.79396  1.0000
  O   O35       1.0  0.7487999999999998  0.136  0.6363  1.0000
  O   O36       1.0  0.8135199999999998  0.93345  0.6513799999999998  1.0000
  O   O37       1.0  0.76775  0.11809000000000001  0.31823  1.0000
  O   O38       1.0  0.8048699999999998  0.91193  0.33016  1.0000
  O   O39       1.0  0.6376499999999998  0.976  0.28245999999999993  1.0000
  O   O40       1.0  0.6864699999999998  0.9607000000000001  0.18717999999999999  1.0000
  O   O41       1.0  0.3278799999999999  0.54831  0.79983  1.0000
  O   O42       1.0  0.38593  0.53942  0.7060299999999999  1.0000
  O   O43       1.0  0.5011999999999998  0.636  0.8636999999999998  1.0000
  O   O44       1.0  0.43647999999999987  0.43344999999999995  0.84862  1.0000
  O   O45       1.0  0.48225  0.61808  0.18177  1.0000
  O   O46       1.0  0.4451299999999999  0.41193  0.16983999999999996  1.0000
  O   O47       1.0  0.61237  0.476  0.21755  1.0000
  O   O48       1.0  0.5635299999999998  0.46071  0.31282  1.0000
  O   O49       1.0  0.4221099999999999  0.95169  0.29984  1.0000
  O   O50       1.0  0.3640699999999999  0.96057  0.20602999999999996  1.0000
  O   O51       1.0  0.2488  0.864  0.36369999999999997  1.0000
  O   O52       1.0  0.3135199999999999  0.06655  0.34861999999999993  1.0000
  O   O53       1.0  0.26775  0.8819099999999999  0.6817699999999999  1.0000
  O   O54       1.0  0.30487  0.08807  0.6698299999999999  1.0000
  O   O55       1.0  0.13764999999999994  0.024000000000000004  0.71753  1.0000
  O   O56       1.0  0.18647  0.03929  0.8128199999999999  1.0000
  O   O57       1.0  0.8278799999999997  0.45169  0.20016  1.0000
  O   O58       1.0  0.8859299999999998  0.46057  0.29397  1.0000
  O   O59       1.0  0.0011999999999999995  0.36400000000000005  0.13629999999999998  1.0000
  O   O60       1.0  0.9364799999999999  0.56655  0.15138  1.0000
  O   O61       1.0  0.9822499999999997  0.38192  0.81823  1.0000
  O   O62       1.0  0.94513  0.58807  0.83016  1.0000
  O   O63       1.0  0.11236999999999997  0.524  0.78245  1.0000
  O   O64       1.0  0.06353  0.53929  0.68717  1.0000
