data_image0
_chemical_formula_structural       Zn12H120C264O48
_chemical_formula_sum              "Zn12 H120 C264 O48"
_cell_length_a       20.49915
_cell_length_b       20.4967
_cell_length_c       39.77234
_cell_angle_alpha    90.0
_cell_angle_beta     90.0
_cell_angle_gamma    90.0

_symmetry_space_group_name_H-M    'P 1'
_symmetry_Int_Tables_number       1

loop_
  _symmetry_equiv_pos_as_xyz
  'x,y,z'

loop_
  _atom_site_type_symbol
  _atom_site_label
  _atom_site_symmetry_multiplicity
  _atom_site_fract_x
  _atom_site_fract_y
  _atom_site_fract_z
  _atom_site_occupancy
  Zn  Zn1       1.0  0.8298500000000001  0.12827  0.70747  1.0000
  Zn  Zn2       1.0  0.17015000000000002  0.87173  0.20747  1.0000
  Zn  Zn3       1.0  0.8717  0.82998  0.95694  1.0000
  Zn  Zn4       1.0  0.12831  0.17002  0.45694  1.0000
  Zn  Zn5       1.0  0.17015000000000002  0.12827  0.29253  1.0000
  Zn  Zn6       1.0  0.8298500000000001  0.87173  0.79253  1.0000
  Zn  Zn7       1.0  0.12831  0.82998  0.04306  1.0000
  Zn  Zn8       1.0  0.8717  0.17002  0.54306  1.0000
  Zn  Zn9       1.0  0.83009  0.0  0.75  1.0000
  Zn  Zn10      1.0  0.16991000000000003  0.0  0.25  1.0000
  Zn  Zn11      1.0  0.0  0.8300900000000001  0.0  1.0000
  Zn  Zn12      1.0  0.0  0.16991  0.5  1.0000
  H   H1        1.0  0.83725  0.88332  0.66462  1.0000
  H   H2        1.0  0.85808  0.81742  0.61282  1.0000
  H   H3        1.0  0.9006800000000001  0.9941000000000001  0.558  1.0000
  H   H4        1.0  0.87923  0.05885  0.6094  1.0000
  H   H5        1.0  0.89613  0.70054  0.52772  1.0000
  H   H6        1.0  0.93586  0.6755  0.42197000000000007  1.0000
  H   H7        1.0  0.92611  0.86913  0.46447000000000005  1.0000
  H   H8        1.0  0.8382200000000001  0.49995000000000006  0.53351  1.0000
  H   H9        1.0  0.8301100000000001  0.38105  0.54714  1.0000
  H   H10       1.0  0.9547000000000001  0.33589  0.46342  1.0000
  H   H11       1.0  0.96303  0.45459000000000005  0.4494000000000001  1.0000
  H   H12       1.0  0.01743  0.73402  0.33919  1.0000
  H   H13       1.0  0.07026000000000002  0.75625  0.28361  1.0000
  H   H14       1.0  0.018470000000000004  0.95872  0.29184  1.0000
  H   H15       1.0  0.96388  0.93714  0.34689  1.0000
  H   H16       1.0  0.16275  0.11668  0.16462  1.0000
  H   H17       1.0  0.14192  0.18258  0.11282  1.0000
  H   H18       1.0  0.09932  0.00589  0.05800000000000001  1.0000
  H   H19       1.0  0.12077000000000003  0.9411399999999999  0.10939999999999998  1.0000
  H   H20       1.0  0.10387  0.29945  0.02772  1.0000
  H   H21       1.0  0.06414  0.3245  0.92197  1.0000
  H   H22       1.0  0.07389  0.13086  0.9644700000000002  1.0000
  H   H23       1.0  0.16179  0.50005  0.03351  1.0000
  H   H24       1.0  0.16989  0.61895  0.04714  1.0000
  H   H25       1.0  0.04530000000000001  0.66411  0.96342  1.0000
  H   H26       1.0  0.03698  0.5454  0.9494  1.0000
  H   H27       1.0  0.9825700000000002  0.26598  0.83919  1.0000
  H   H28       1.0  0.92974  0.24374  0.78361  1.0000
  H   H29       1.0  0.9815300000000001  0.04128  0.79184  1.0000
  H   H30       1.0  0.03612  0.06286  0.84689  1.0000
  H   H31       1.0  0.11646000000000002  0.8372900000000001  0.91451  1.0000
  H   H32       1.0  0.18264  0.8581300000000001  0.8627599999999999  1.0000
  H   H33       1.0  0.0061200000000000004  0.9008200000000001  0.80775  1.0000
  H   H34       1.0  0.9411900000000001  0.87932  0.85913  1.0000
  H   H35       1.0  0.29947  0.89613  0.77768  1.0000
  H   H36       1.0  0.32456  0.9358799999999999  0.67193  1.0000
  H   H37       1.0  0.13092000000000004  0.9261199999999999  0.71444  1.0000
  H   H38       1.0  0.4999  0.83814  0.78348  1.0000
  H   H39       1.0  0.61873  0.83001  0.79726  1.0000
  H   H40       1.0  0.6643700000000001  0.95458  0.71361  1.0000
  H   H41       1.0  0.54579  0.9629299999999998  0.69943  1.0000
  H   H42       1.0  0.26587000000000005  0.01766  0.58899  1.0000
  H   H43       1.0  0.24379  0.07039  0.53345  1.0000
  H   H44       1.0  0.041240000000000006  0.0186  0.54169  1.0000
  H   H45       1.0  0.06290000000000001  0.9641399999999999  0.59669  1.0000
  H   H46       1.0  0.88354  0.16271  0.41451  1.0000
  H   H47       1.0  0.81736  0.14187  0.36276  1.0000
  H   H48       1.0  0.9938800000000002  0.09917999999999999  0.30775  1.0000
  H   H49       1.0  0.05881  0.12068  0.35913  1.0000
  H   H50       1.0  0.70054  0.10387  0.27768  1.0000
  H   H51       1.0  0.6754400000000002  0.06412  0.17193  1.0000
  H   H52       1.0  0.8690800000000002  0.07388  0.21444000000000002  1.0000
  H   H53       1.0  0.5001000000000001  0.16185  0.28348  1.0000
  H   H54       1.0  0.38127  0.16999  0.29726  1.0000
  H   H55       1.0  0.33564000000000005  0.04542  0.21361  1.0000
  H   H56       1.0  0.45422000000000007  0.03707  0.19943  1.0000
  H   H57       1.0  0.7341300000000001  0.98233  0.08899  1.0000
  H   H58       1.0  0.75622  0.9296099999999999  0.03345  1.0000
  H   H59       1.0  0.9587600000000001  0.9814000000000002  0.04169  1.0000
  H   H60       1.0  0.9371000000000002  0.03585  0.09669  1.0000
  H   H61       1.0  0.16275  0.88332  0.33538  1.0000
  H   H62       1.0  0.14192  0.81742  0.38718  1.0000
  H   H63       1.0  0.09932  0.9941000000000001  0.442  1.0000
  H   H64       1.0  0.12077000000000003  0.05885  0.3906  1.0000
  H   H65       1.0  0.10387  0.70054  0.4722799999999999  1.0000
  H   H66       1.0  0.06414  0.6755  0.57803  1.0000
  H   H67       1.0  0.07389  0.86913  0.53553  1.0000
  H   H68       1.0  0.16179  0.49995000000000006  0.46649  1.0000
  H   H69       1.0  0.16989  0.38105  0.45286  1.0000
  H   H70       1.0  0.04530000000000001  0.33589  0.53658  1.0000
  H   H71       1.0  0.03698  0.45459000000000005  0.5506  1.0000
  H   H72       1.0  0.9825700000000002  0.73402  0.66081  1.0000
  H   H73       1.0  0.92974  0.75625  0.71639  1.0000
  H   H74       1.0  0.9815300000000001  0.95872  0.70816  1.0000
  H   H75       1.0  0.03612  0.93714  0.65311  1.0000
  H   H76       1.0  0.83725  0.11668  0.83538  1.0000
  H   H77       1.0  0.85808  0.18258  0.88718  1.0000
  H   H78       1.0  0.9006800000000001  0.00589  0.942  1.0000
  H   H79       1.0  0.87923  0.9411399999999999  0.8906  1.0000
  H   H80       1.0  0.89613  0.29945  0.97228  1.0000
  H   H81       1.0  0.93586  0.3245  0.07803  1.0000
  H   H82       1.0  0.92611  0.13086  0.03553  1.0000
  H   H83       1.0  0.8382200000000001  0.50005  0.9664900000000001  1.0000
  H   H84       1.0  0.8301100000000001  0.61895  0.9528599999999999  1.0000
  H   H85       1.0  0.9547000000000001  0.66411  0.03658  1.0000
  H   H86       1.0  0.96303  0.5454  0.050600000000000006  1.0000
  H   H87       1.0  0.01743  0.26598  0.16081  1.0000
  H   H88       1.0  0.07026000000000002  0.24374  0.21639  1.0000
  H   H89       1.0  0.018470000000000004  0.04128  0.20816  1.0000
  H   H90       1.0  0.96388  0.06286  0.15311  1.0000
  H   H91       1.0  0.88354  0.8372900000000001  0.08549  1.0000
  H   H92       1.0  0.81736  0.8581300000000001  0.13724  1.0000
  H   H93       1.0  0.9938800000000002  0.9008200000000001  0.19225  1.0000
  H   H94       1.0  0.05881  0.87932  0.14087  1.0000
  H   H95       1.0  0.70054  0.89613  0.22232000000000002  1.0000
  H   H96       1.0  0.6754400000000002  0.9358799999999999  0.32807  1.0000
  H   H97       1.0  0.8690800000000002  0.9261199999999999  0.28556  1.0000
  H   H98       1.0  0.5001000000000001  0.83814  0.21652  1.0000
  H   H99       1.0  0.38127  0.83001  0.20274  1.0000
  H   H100      1.0  0.33564000000000005  0.95458  0.28639  1.0000
  H   H101      1.0  0.45422000000000007  0.9629299999999998  0.30057  1.0000
  H   H102      1.0  0.7341300000000001  0.01766  0.41101  1.0000
  H   H103      1.0  0.75622  0.07039  0.46655  1.0000
  H   H104      1.0  0.9587600000000001  0.0186  0.45830999999999994  1.0000
  H   H105      1.0  0.9371000000000002  0.9641399999999999  0.40330999999999995  1.0000
  H   H106      1.0  0.11646000000000002  0.16271  0.58549  1.0000
  H   H107      1.0  0.18264  0.14187  0.63724  1.0000
  H   H108      1.0  0.0061200000000000004  0.09917999999999999  0.69225  1.0000
  H   H109      1.0  0.9411900000000001  0.12068  0.64087  1.0000
  H   H110      1.0  0.29947  0.10387  0.72232  1.0000
  H   H111      1.0  0.32456  0.06412  0.8280700000000001  1.0000
  H   H112      1.0  0.13092000000000004  0.07388  0.78556  1.0000
  H   H113      1.0  0.4999  0.16185  0.71652  1.0000
  H   H114      1.0  0.61873  0.16999  0.70274  1.0000
  H   H115      1.0  0.6643700000000001  0.04542  0.78639  1.0000
  H   H116      1.0  0.54579  0.03707  0.80057  1.0000
  H   H117      1.0  0.26587000000000005  0.98233  0.91101  1.0000
  H   H118      1.0  0.24379  0.9296099999999999  0.96655  1.0000
  H   H119      1.0  0.041240000000000006  0.9814000000000002  0.95831  1.0000
  H   H120      1.0  0.06290000000000001  0.03585  0.90331  1.0000
  C   C1        1.0  0.84516  0.013750000000000002  0.67144  1.0000
  C   C2        1.0  0.8570200000000002  0.9750500000000001  0.64035  1.0000
  C   C3        1.0  0.8508700000000001  0.90678  0.64112  1.0000
  C   C4        1.0  0.8625700000000001  0.87025  0.61235  1.0000
  C   C5        1.0  0.8808400000000001  0.90123  0.58197  1.0000
  C   C6        1.0  0.88686  0.96989  0.58131  1.0000
  C   C7        1.0  0.87472  0.00609  0.61018  1.0000
  C   C8        1.0  0.89224  0.86366  0.55277  1.0000
  C   C9        1.0  0.9008400000000001  0.83021  0.52775  1.0000
  C   C10       1.0  0.91007  0.7896  0.49937  1.0000
  C   C11       1.0  0.9062100000000002  0.72136  0.50312  1.0000
  C   C12       1.0  0.9153700000000001  0.67992  0.4752799999999999  1.0000
  C   C13       1.0  0.92889  0.70723  0.4435700000000001  1.0000
  C   C14       1.0  0.93296  0.77548  0.43956  1.0000
  C   C15       1.0  0.92321  0.81651  0.46748999999999996  1.0000
  C   C16       1.0  0.9111  0.61142  0.47951  1.0000
  C   C17       1.0  0.90709  0.5526  0.48397000000000007  1.0000
  C   C18       1.0  0.9015200000000001  0.48509  0.4907  1.0000
  C   C19       1.0  0.86359  0.46383  0.51834  1.0000
  C   C20       1.0  0.85899  0.39785999999999994  0.52589  1.0000
  C   C21       1.0  0.8923800000000002  0.35161  0.50625  1.0000
  C   C22       1.0  0.92936  0.3723  0.47845  1.0000
  C   C23       1.0  0.9338  0.43825  0.47061  1.0000
  C   C24       1.0  0.88973  0.28158  0.5154  1.0000
  C   C25       1.0  0.94847  0.80123  0.40749  1.0000
  C   C26       1.0  0.9639600000000003  0.8198499999999999  0.37942  1.0000
  C   C27       1.0  0.98816  0.83419  0.34697  1.0000
  C   C28       1.0  0.01731  0.78284  0.3285  1.0000
  C   C29       1.0  0.0466  0.7950499999999999  0.29773  1.0000
  C   C30       1.0  0.04767  0.85876  0.28471  1.0000
  C   C31       1.0  0.01704  0.9097  0.30235  1.0000
  C   C32       1.0  0.9871000000000001  0.89765  0.33309  1.0000
  C   C33       1.0  0.08515  0.87266  0.25387  1.0000
  C   C34       1.0  0.15485  0.9862400000000001  0.17144  1.0000
  C   C35       1.0  0.14299  0.02495  0.14035  1.0000
  C   C36       1.0  0.14913  0.09321  0.14112  1.0000
  C   C37       1.0  0.13743  0.12975  0.11235000000000002  1.0000
  C   C38       1.0  0.11916  0.09876999999999998  0.08197  1.0000
  C   C39       1.0  0.11314000000000002  0.030110000000000005  0.08131  1.0000
  C   C40       1.0  0.12528  0.99391  0.11018  1.0000
  C   C41       1.0  0.10776  0.13633  0.052770000000000004  1.0000
  C   C42       1.0  0.09917  0.16978  0.027750000000000004  1.0000
  C   C43       1.0  0.08993  0.2104  0.99937  1.0000
  C   C44       1.0  0.0938  0.27864  0.00312  1.0000
  C   C45       1.0  0.08463  0.32007  0.9752800000000001  1.0000
  C   C46       1.0  0.07112  0.29277  0.94357  1.0000
  C   C47       1.0  0.06704  0.22451000000000002  0.9395600000000001  1.0000
  C   C48       1.0  0.07679  0.18349  0.96749  1.0000
  C   C49       1.0  0.08891000000000002  0.38858  0.97951  1.0000
  C   C50       1.0  0.09291000000000002  0.44739999999999996  0.98397  1.0000
  C   C51       1.0  0.09848  0.51491  0.9907000000000001  1.0000
  C   C52       1.0  0.13641  0.53616  0.01834  1.0000
  C   C53       1.0  0.14101  0.60214  0.025890000000000003  1.0000
  C   C54       1.0  0.10762  0.64838  0.00625  1.0000
  C   C55       1.0  0.07064  0.6277  0.9784499999999999  1.0000
  C   C56       1.0  0.06620000000000001  0.56175  0.97061  1.0000
  C   C57       1.0  0.11027000000000002  0.71842  0.015399999999999999  1.0000
  C   C58       1.0  0.05153  0.19877000000000003  0.9074899999999999  1.0000
  C   C59       1.0  0.03604000000000001  0.18015  0.87942  1.0000
  C   C60       1.0  0.01185  0.16581  0.84697  1.0000
  C   C61       1.0  0.9826900000000001  0.21716  0.8285  1.0000
  C   C62       1.0  0.9534  0.20495  0.79773  1.0000
  C   C63       1.0  0.95233  0.14124  0.78471  1.0000
  C   C64       1.0  0.98296  0.0903  0.80235  1.0000
  C   C65       1.0  0.0129  0.10233999999999999  0.83309  1.0000
  C   C66       1.0  0.9148500000000002  0.12733  0.75387  1.0000
  C   C67       1.0  0.9861  0.8451399999999999  0.92105  1.0000
  C   C68       1.0  0.024930000000000004  0.85709  0.89007  1.0000
  C   C69       1.0  0.09317  0.85092  0.89097  1.0000
  C   C70       1.0  0.12981  0.8626200000000002  0.86224  1.0000
  C   C71       1.0  0.09889000000000002  0.88091  0.8318600000000002  1.0000
  C   C72       1.0  0.030240000000000006  0.88698  0.8310800000000002  1.0000
  C   C73       1.0  0.9939500000000001  0.8748299999999999  0.85991  1.0000
  C   C74       1.0  0.13649  0.89228  0.8027  1.0000
  C   C75       1.0  0.1699  0.9008499999999999  0.77767  1.0000
  C   C76       1.0  0.21049  0.9100799999999999  0.7493  1.0000
  C   C77       1.0  0.27871  0.90621  0.75307  1.0000
  C   C78       1.0  0.32015  0.91539  0.72523  1.0000
  C   C79       1.0  0.29281  0.9289099999999999  0.69352  1.0000
  C   C80       1.0  0.22456000000000004  0.93301  0.68948  1.0000
  C   C81       1.0  0.18355  0.92323  0.71742  1.0000
  C   C82       1.0  0.38867000000000007  0.91112  0.72946  1.0000
  C   C83       1.0  0.4475  0.90714  0.73391  1.0000
  C   C84       1.0  0.51499  0.9015199999999999  0.7407  1.0000
  C   C85       1.0  0.53607  0.86354  0.76836  1.0000
  C   C86       1.0  0.6019700000000001  0.85893  0.77602  1.0000
  C   C87       1.0  0.6483400000000001  0.89232  0.75648  1.0000
  C   C88       1.0  0.6279  0.92927  0.72862  1.0000
  C   C89       1.0  0.56199  0.9337299999999998  0.72068  1.0000
  C   C90       1.0  0.71815  0.8895300000000002  0.76592  1.0000
  C   C91       1.0  0.19882000000000002  0.9485799999999999  0.65738  1.0000
  C   C92       1.0  0.18018000000000003  0.96413  0.62931  1.0000
  C   C93       1.0  0.1658  0.98837  0.59684  1.0000
  C   C94       1.0  0.21706  0.01756  0.57831  1.0000
  C   C95       1.0  0.20485  0.04685  0.54752  1.0000
  C   C96       1.0  0.14116000000000004  0.04797  0.53444  1.0000
  C   C97       1.0  0.0903  0.0173  0.55215  1.0000
  C   C98       1.0  0.10239  0.9873700000000001  0.58291  1.0000
  C   C99       1.0  0.12735000000000002  0.08523  0.50346  1.0000
  C   C100      1.0  0.013900000000000001  0.15486  0.42105  1.0000
  C   C101      1.0  0.9750700000000001  0.14291  0.39007  1.0000
  C   C102      1.0  0.90683  0.14908  0.39097  1.0000
  C   C103      1.0  0.8701900000000001  0.13737  0.36224  1.0000
  C   C104      1.0  0.9011100000000001  0.11909  0.33186  1.0000
  C   C105      1.0  0.96976  0.11301000000000001  0.33108  1.0000
  C   C106      1.0  0.00605  0.12517  0.35991  1.0000
  C   C107      1.0  0.86351  0.10771  0.3027  1.0000
  C   C108      1.0  0.8301  0.09914999999999999  0.27767  1.0000
  C   C109      1.0  0.78951  0.08991  0.2493  1.0000
  C   C110      1.0  0.72129  0.09378  0.25307  1.0000
  C   C111      1.0  0.67985  0.08461  0.22523000000000004  1.0000
  C   C112      1.0  0.70719  0.07109  0.19352  1.0000
  C   C113      1.0  0.77545  0.06699  0.18948  1.0000
  C   C114      1.0  0.81645  0.07677  0.21742000000000003  1.0000
  C   C115      1.0  0.61134  0.08888  0.22946000000000003  1.0000
  C   C116      1.0  0.5525000000000001  0.09286  0.23391000000000003  1.0000
  C   C117      1.0  0.48501  0.09847999999999998  0.24070000000000003  1.0000
  C   C118      1.0  0.46393  0.13645  0.26836  1.0000
  C   C119      1.0  0.39803  0.14107  0.27602  1.0000
  C   C120      1.0  0.35166  0.10767  0.25648  1.0000
  C   C121      1.0  0.3721  0.07072  0.22862  1.0000
  C   C122      1.0  0.43801000000000007  0.06627  0.22068000000000002  1.0000
  C   C123      1.0  0.28185  0.11047  0.26592  1.0000
  C   C124      1.0  0.80118  0.05142  0.15738  1.0000
  C   C125      1.0  0.81983  0.03587  0.12931  1.0000
  C   C126      1.0  0.8342  0.01163  0.09684  1.0000
  C   C127      1.0  0.7829400000000001  0.9824399999999999  0.07831  1.0000
  C   C128      1.0  0.7951500000000001  0.95315  0.04752  1.0000
  C   C129      1.0  0.8588400000000002  0.95203  0.03444  1.0000
  C   C130      1.0  0.9097  0.9826900000000001  0.05215000000000001  1.0000
  C   C131      1.0  0.89762  0.012630000000000002  0.08291  1.0000
  C   C132      1.0  0.8726500000000001  0.9147700000000001  0.00346  1.0000
  C   C133      1.0  0.15485  0.013750000000000002  0.32856  1.0000
  C   C134      1.0  0.14299  0.9750500000000001  0.35965  1.0000
  C   C135      1.0  0.14913  0.90678  0.35888  1.0000
  C   C136      1.0  0.13743  0.87025  0.38765  1.0000
  C   C137      1.0  0.11916  0.90123  0.41803  1.0000
  C   C138      1.0  0.11314000000000002  0.96989  0.41869000000000006  1.0000
  C   C139      1.0  0.12528  0.00609  0.38982  1.0000
  C   C140      1.0  0.10776  0.86366  0.44722  1.0000
  C   C141      1.0  0.09917  0.83021  0.47225  1.0000
  C   C142      1.0  0.08993  0.7896  0.50063  1.0000
  C   C143      1.0  0.0938  0.72136  0.49688000000000004  1.0000
  C   C144      1.0  0.08463  0.67992  0.52472  1.0000
  C   C145      1.0  0.07112  0.70723  0.55643  1.0000
  C   C146      1.0  0.06704  0.77548  0.56044  1.0000
  C   C147      1.0  0.07679  0.81651  0.53251  1.0000
  C   C148      1.0  0.08891000000000002  0.61142  0.52049  1.0000
  C   C149      1.0  0.09291000000000002  0.5526  0.51603  1.0000
  C   C150      1.0  0.09848  0.48509  0.5093  1.0000
  C   C151      1.0  0.13641  0.46383  0.48166  1.0000
  C   C152      1.0  0.14101  0.39785999999999994  0.47411  1.0000
  C   C153      1.0  0.10762  0.35161  0.49374999999999997  1.0000
  C   C154      1.0  0.07064  0.3723  0.52155  1.0000
  C   C155      1.0  0.06620000000000001  0.43825  0.52939  1.0000
  C   C156      1.0  0.11027000000000002  0.28158  0.4846  1.0000
  C   C157      1.0  0.05153  0.80123  0.59251  1.0000
  C   C158      1.0  0.03604000000000001  0.8198499999999999  0.62058  1.0000
  C   C159      1.0  0.01185  0.83419  0.65303  1.0000
  C   C160      1.0  0.9826900000000001  0.78284  0.6715  1.0000
  C   C161      1.0  0.9534  0.7950499999999999  0.70227  1.0000
  C   C162      1.0  0.95233  0.85876  0.71529  1.0000
  C   C163      1.0  0.98296  0.9097  0.69765  1.0000
  C   C164      1.0  0.0129  0.89765  0.66691  1.0000
  C   C165      1.0  0.9148500000000002  0.87266  0.74613  1.0000
  C   C166      1.0  0.84516  0.9862400000000001  0.8285600000000001  1.0000
  C   C167      1.0  0.8570200000000002  0.02495  0.8596500000000001  1.0000
  C   C168      1.0  0.8508700000000001  0.09321  0.8588800000000001  1.0000
  C   C169      1.0  0.8625700000000001  0.12975  0.88765  1.0000
  C   C170      1.0  0.8808400000000001  0.09876999999999998  0.9180300000000001  1.0000
  C   C171      1.0  0.88686  0.030110000000000005  0.91869  1.0000
  C   C172      1.0  0.87472  0.99391  0.8898200000000002  1.0000
  C   C173      1.0  0.89224  0.13633  0.94722  1.0000
  C   C174      1.0  0.9008400000000001  0.16978  0.97225  1.0000
  C   C175      1.0  0.91007  0.2104  0.00063  1.0000
  C   C176      1.0  0.9062100000000002  0.27864  0.99687  1.0000
  C   C177      1.0  0.9153700000000001  0.32007  0.02472  1.0000
  C   C178      1.0  0.92889  0.29277  0.05643  1.0000
  C   C179      1.0  0.93296  0.22451000000000002  0.06044  1.0000
  C   C180      1.0  0.92321  0.18349  0.03251  1.0000
  C   C181      1.0  0.9111  0.38857  0.02049  1.0000
  C   C182      1.0  0.90709  0.44739999999999996  0.01603  1.0000
  C   C183      1.0  0.9015200000000001  0.51491  0.0093  1.0000
  C   C184      1.0  0.86359  0.53616  0.9816599999999999  1.0000
  C   C185      1.0  0.85899  0.60214  0.97411  1.0000
  C   C186      1.0  0.8923800000000002  0.64838  0.9937500000000001  1.0000
  C   C187      1.0  0.92936  0.6277  0.02155  1.0000
  C   C188      1.0  0.9338  0.56175  0.02939  1.0000
  C   C189      1.0  0.88973  0.71842  0.9846  1.0000
  C   C190      1.0  0.94847  0.19877000000000003  0.09251  1.0000
  C   C191      1.0  0.9639600000000003  0.18015  0.12058  1.0000
  C   C192      1.0  0.98816  0.16581  0.15303  1.0000
  C   C193      1.0  0.01731  0.21716  0.1715  1.0000
  C   C194      1.0  0.0466  0.20495  0.20227  1.0000
  C   C195      1.0  0.04767  0.14124  0.21529  1.0000
  C   C196      1.0  0.01704  0.0903  0.19765  1.0000
  C   C197      1.0  0.9871000000000001  0.10233999999999999  0.16691  1.0000
  C   C198      1.0  0.08515  0.12733  0.24613000000000002  1.0000
  C   C199      1.0  0.013900000000000001  0.8451399999999999  0.07895  1.0000
  C   C200      1.0  0.9750700000000001  0.85709  0.10993000000000001  1.0000
  C   C201      1.0  0.90683  0.85092  0.10903  1.0000
  C   C202      1.0  0.8701900000000001  0.8626200000000002  0.13776  1.0000
  C   C203      1.0  0.9011100000000001  0.88091  0.16814  1.0000
  C   C204      1.0  0.96976  0.88698  0.16892  1.0000
  C   C205      1.0  0.00605  0.8748299999999999  0.14009  1.0000
  C   C206      1.0  0.86351  0.89228  0.1973  1.0000
  C   C207      1.0  0.8301  0.9008499999999999  0.22233  1.0000
  C   C208      1.0  0.78951  0.9100799999999999  0.2507  1.0000
  C   C209      1.0  0.72129  0.90621  0.24693000000000004  1.0000
  C   C210      1.0  0.67985  0.91539  0.27477  1.0000
  C   C211      1.0  0.70719  0.9289099999999999  0.30648  1.0000
  C   C212      1.0  0.77545  0.93301  0.31052  1.0000
  C   C213      1.0  0.81645  0.92323  0.28258  1.0000
  C   C214      1.0  0.61134  0.91112  0.27054  1.0000
  C   C215      1.0  0.5525000000000001  0.90714  0.26609  1.0000
  C   C216      1.0  0.48501  0.9015199999999999  0.2593  1.0000
  C   C217      1.0  0.46393  0.86354  0.23163999999999998  1.0000
  C   C218      1.0  0.39803  0.85893  0.22398  1.0000
  C   C219      1.0  0.35166  0.89232  0.24352  1.0000
  C   C220      1.0  0.3721  0.92927  0.27138  1.0000
  C   C221      1.0  0.43801000000000007  0.9337299999999998  0.27932  1.0000
  C   C222      1.0  0.28185  0.8895300000000002  0.23407999999999998  1.0000
  C   C223      1.0  0.80118  0.9485799999999999  0.34262  1.0000
  C   C224      1.0  0.81983  0.96413  0.37069  1.0000
  C   C225      1.0  0.8342  0.98837  0.40315999999999996  1.0000
  C   C226      1.0  0.7829400000000001  0.01756  0.42169000000000006  1.0000
  C   C227      1.0  0.7951500000000001  0.04685  0.45247999999999994  1.0000
  C   C228      1.0  0.8588400000000002  0.04797  0.46556  1.0000
  C   C229      1.0  0.9097  0.0173  0.44785  1.0000
  C   C230      1.0  0.89762  0.9873700000000001  0.41708999999999996  1.0000
  C   C231      1.0  0.8726500000000001  0.08523  0.49654  1.0000
  C   C232      1.0  0.9861  0.15486  0.57895  1.0000
  C   C233      1.0  0.024930000000000004  0.14291  0.60993  1.0000
  C   C234      1.0  0.09317  0.14908  0.60903  1.0000
  C   C235      1.0  0.12981  0.13737  0.63776  1.0000
  C   C236      1.0  0.09889000000000002  0.11909  0.66814  1.0000
  C   C237      1.0  0.030240000000000006  0.11301000000000001  0.66891  1.0000
  C   C238      1.0  0.9939500000000001  0.12517  0.64009  1.0000
  C   C239      1.0  0.13649  0.10771  0.6973  1.0000
  C   C240      1.0  0.1699  0.09914999999999999  0.72233  1.0000
  C   C241      1.0  0.21049  0.08991  0.7507  1.0000
  C   C242      1.0  0.27871  0.09378  0.74693  1.0000
  C   C243      1.0  0.32015  0.08461  0.77477  1.0000
  C   C244      1.0  0.29281  0.07109  0.80648  1.0000
  C   C245      1.0  0.22456000000000004  0.06699  0.8105200000000001  1.0000
  C   C246      1.0  0.18355  0.07677  0.78258  1.0000
  C   C247      1.0  0.38867000000000007  0.08888  0.77054  1.0000
  C   C248      1.0  0.4475  0.09286  0.76609  1.0000
  C   C249      1.0  0.51499  0.09847999999999998  0.7593  1.0000
  C   C250      1.0  0.53607  0.13645  0.73164  1.0000
  C   C251      1.0  0.6019700000000001  0.14107  0.72398  1.0000
  C   C252      1.0  0.6483400000000001  0.10767  0.74352  1.0000
  C   C253      1.0  0.6279  0.07072  0.77138  1.0000
  C   C254      1.0  0.56199  0.06627  0.77932  1.0000
  C   C255      1.0  0.71815  0.11047  0.73408  1.0000
  C   C256      1.0  0.19882000000000002  0.05142  0.84262  1.0000
  C   C257      1.0  0.18018000000000003  0.03587  0.8706900000000001  1.0000
  C   C258      1.0  0.1658  0.01163  0.90316  1.0000
  C   C259      1.0  0.21706  0.9824399999999999  0.92169  1.0000
  C   C260      1.0  0.20485  0.95315  0.9524800000000001  1.0000
  C   C261      1.0  0.14116000000000004  0.95203  0.9655600000000001  1.0000
  C   C262      1.0  0.0903  0.9826900000000001  0.94785  1.0000
  C   C263      1.0  0.10239  0.012630000000000002  0.91709  1.0000
  C   C264      1.0  0.12735000000000002  0.9147700000000001  0.99654  1.0000
  O   O1        1.0  0.8307900000000003  0.98384  0.69832  1.0000
  O   O2        1.0  0.85036  0.07665  0.66841  1.0000
  O   O3        1.0  0.8506100000000001  0.26364  0.53912  1.0000
  O   O4        1.0  0.92531  0.24039999999999997  0.49986  1.0000
  O   O5        1.0  0.11067000000000003  0.8244  0.23747000000000001  1.0000
  O   O6        1.0  0.09335  0.93135  0.24399  1.0000
  O   O7        1.0  0.16921  0.01615  0.19832  1.0000
  O   O8        1.0  0.14965  0.9233399999999999  0.16841  1.0000
  O   O9        1.0  0.14939  0.73635  0.03912  1.0000
  O   O10       1.0  0.07469000000000002  0.75959  0.99986  1.0000
  O   O11       1.0  0.88933  0.1756  0.73747  1.0000
  O   O12       1.0  0.9066500000000001  0.06865  0.74399  1.0000
  O   O13       1.0  0.01592  0.83083  0.9479300000000002  1.0000
  O   O14       1.0  0.92316  0.85018  0.91783  1.0000
  O   O15       1.0  0.7358  0.8505500000000001  0.78975  1.0000
  O   O16       1.0  0.7597100000000001  0.92499  0.75053  1.0000
  O   O17       1.0  0.17568  0.11056  0.48704  1.0000
  O   O18       1.0  0.06874  0.09346  0.49336  1.0000
  O   O19       1.0  0.9840800000000002  0.16917  0.44794  1.0000
  O   O20       1.0  0.07684  0.14982  0.41783  1.0000
  O   O21       1.0  0.2642  0.14944  0.28975  1.0000
  O   O22       1.0  0.2403  0.07501  0.25053  1.0000
  O   O23       1.0  0.8243200000000002  0.8894399999999999  0.98704  1.0000
  O   O24       1.0  0.9312700000000002  0.90654  0.99336  1.0000
  O   O25       1.0  0.16921  0.98384  0.30168  1.0000
  O   O26       1.0  0.14965  0.07665  0.33159  1.0000
  O   O27       1.0  0.14939  0.26364  0.46088  1.0000
  O   O28       1.0  0.07469000000000002  0.24039999999999997  0.50014  1.0000
  O   O29       1.0  0.88933  0.8244  0.76253  1.0000
  O   O30       1.0  0.9066500000000001  0.93135  0.75601  1.0000
  O   O31       1.0  0.8307900000000003  0.01615  0.80168  1.0000
  O   O32       1.0  0.85036  0.9233399999999999  0.83159  1.0000
  O   O33       1.0  0.8506100000000001  0.73635  0.9608699999999999  1.0000
  O   O34       1.0  0.92531  0.75959  0.00014  1.0000
  O   O35       1.0  0.11067000000000003  0.1756  0.26253  1.0000
  O   O36       1.0  0.09335  0.06865  0.25601  1.0000
  O   O37       1.0  0.9840800000000002  0.83083  0.05206  1.0000
  O   O38       1.0  0.07684  0.85018  0.08217  1.0000
  O   O39       1.0  0.2642  0.8505500000000001  0.21025000000000002  1.0000
  O   O40       1.0  0.2403  0.92499  0.24947  1.0000
  O   O41       1.0  0.8243200000000002  0.11056  0.51296  1.0000
  O   O42       1.0  0.9312700000000002  0.09346  0.50664  1.0000
  O   O43       1.0  0.01592  0.16917  0.55206  1.0000
  O   O44       1.0  0.92316  0.14982  0.58216  1.0000
  O   O45       1.0  0.7358  0.14944  0.71025  1.0000
  O   O46       1.0  0.7597100000000001  0.07501  0.74947  1.0000
  O   O47       1.0  0.17568  0.8894399999999999  0.01296  1.0000
  O   O48       1.0  0.06874  0.90654  0.00664  1.0000
