data_image0
_chemical_formula_structural       In24H72C216O104
_chemical_formula_sum              "In24 H72 C216 O104"
_cell_length_a       23.08279
_cell_length_b       23.08279
_cell_length_c       23.08279
_cell_angle_alpha    90.0
_cell_angle_beta     90.0
_cell_angle_gamma    90.0

_symmetry_space_group_name_H-M    'P 1'
_symmetry_Int_Tables_number       1

loop_
  _symmetry_equiv_pos_as_xyz
  'x,y,z'

loop_
  _atom_site_type_symbol
  _atom_site_label
  _atom_site_symmetry_multiplicity
  _atom_site_fract_x
  _atom_site_fract_y
  _atom_site_fract_z
  _atom_site_occupancy
  In  In1       1.0  0.25  0.18724  0.31276  1.0000
  In  In2       1.0  0.75  0.81276  0.31276  1.0000
  In  In3       1.0  0.75  0.18724  0.6872400000000001  1.0000
  In  In4       1.0  0.25  0.81276  0.6872400000000001  1.0000
  In  In5       1.0  0.31276  0.25  0.18724  1.0000
  In  In6       1.0  0.31276  0.75  0.81276  1.0000
  In  In7       1.0  0.6872400000000001  0.75  0.18724  1.0000
  In  In8       1.0  0.6872400000000001  0.25  0.81276  1.0000
  In  In9       1.0  0.18724  0.31276  0.25  1.0000
  In  In10      1.0  0.81276  0.31276  0.75  1.0000
  In  In11      1.0  0.18724  0.6872400000000001  0.75  1.0000
  In  In12      1.0  0.81276  0.6872400000000001  0.25  1.0000
  In  In13      1.0  0.75  0.81276  0.6872400000000001  1.0000
  In  In14      1.0  0.25  0.18724  0.6872400000000001  1.0000
  In  In15      1.0  0.25  0.81276  0.31276  1.0000
  In  In16      1.0  0.75  0.18724  0.31276  1.0000
  In  In17      1.0  0.6872400000000001  0.75  0.81276  1.0000
  In  In18      1.0  0.6872400000000001  0.25  0.18724  1.0000
  In  In19      1.0  0.31276  0.25  0.81276  1.0000
  In  In20      1.0  0.31276  0.75  0.18724  1.0000
  In  In21      1.0  0.81276  0.6872400000000001  0.75  1.0000
  In  In22      1.0  0.18724  0.6872400000000001  0.25  1.0000
  In  In23      1.0  0.81276  0.31276  0.25  1.0000
  In  In24      1.0  0.18724  0.31276  0.75  1.0000
  H   H1        1.0  0.31489  0.09355000000000002  0.09537000000000002  1.0000
  H   H2        1.0  0.68511  0.9064600000000002  0.09537000000000002  1.0000
  H   H3        1.0  0.68511  0.09355000000000002  0.9046300000000003  1.0000
  H   H4        1.0  0.31489  0.9064600000000002  0.9046300000000003  1.0000
  H   H5        1.0  0.09537000000000002  0.31489  0.09355000000000002  1.0000
  H   H6        1.0  0.09537000000000002  0.68511  0.90645  1.0000
  H   H7        1.0  0.9046300000000003  0.68511  0.09355000000000002  1.0000
  H   H8        1.0  0.9046300000000003  0.31489  0.90645  1.0000
  H   H9        1.0  0.09355000000000002  0.09537000000000002  0.31489  1.0000
  H   H10       1.0  0.9064600000000002  0.09537000000000002  0.68511  1.0000
  H   H11       1.0  0.09355000000000002  0.9046300000000003  0.68511  1.0000
  H   H12       1.0  0.9064600000000002  0.9046300000000003  0.31489  1.0000
  H   H13       1.0  0.59355  0.8148900000000001  0.40463  1.0000
  H   H14       1.0  0.4064500000000001  0.18511  0.40463  1.0000
  H   H15       1.0  0.59355  0.18511  0.59537  1.0000
  H   H16       1.0  0.40646  0.8148900000000001  0.59537  1.0000
  H   H17       1.0  0.8148900000000001  0.59537  0.4064500000000001  1.0000
  H   H18       1.0  0.18511  0.59537  0.59355  1.0000
  H   H19       1.0  0.18511  0.40463  0.4064500000000001  1.0000
  H   H20       1.0  0.8148900000000001  0.40463  0.59355  1.0000
  H   H21       1.0  0.59537  0.59355  0.18511  1.0000
  H   H22       1.0  0.59537  0.4064500000000001  0.8148900000000001  1.0000
  H   H23       1.0  0.40463  0.59355  0.8148900000000001  1.0000
  H   H24       1.0  0.40463  0.4064500000000001  0.18511  1.0000
  H   H25       1.0  0.68511  0.9064600000000002  0.9046300000000003  1.0000
  H   H26       1.0  0.31489  0.09355000000000002  0.9046300000000003  1.0000
  H   H27       1.0  0.31489  0.9064600000000002  0.09537000000000002  1.0000
  H   H28       1.0  0.68511  0.09355000000000002  0.09537000000000002  1.0000
  H   H29       1.0  0.9046300000000003  0.68511  0.90645  1.0000
  H   H30       1.0  0.9046300000000003  0.31489  0.09355000000000002  1.0000
  H   H31       1.0  0.09537000000000002  0.31489  0.90645  1.0000
  H   H32       1.0  0.09537000000000002  0.68511  0.09355000000000002  1.0000
  H   H33       1.0  0.9064600000000002  0.9046300000000003  0.68511  1.0000
  H   H34       1.0  0.09355000000000002  0.9046300000000003  0.31489  1.0000
  H   H35       1.0  0.9064600000000002  0.09537000000000002  0.31489  1.0000
  H   H36       1.0  0.09355000000000002  0.09537000000000002  0.68511  1.0000
  H   H37       1.0  0.4064500000000001  0.18511  0.59537  1.0000
  H   H38       1.0  0.59355  0.8148900000000001  0.59537  1.0000
  H   H39       1.0  0.40646  0.8148900000000001  0.40463  1.0000
  H   H40       1.0  0.59355  0.18511  0.40463  1.0000
  H   H41       1.0  0.18511  0.40463  0.59355  1.0000
  H   H42       1.0  0.8148900000000001  0.40463  0.4064500000000001  1.0000
  H   H43       1.0  0.8148900000000001  0.59537  0.59355  1.0000
  H   H44       1.0  0.18511  0.59537  0.4064500000000001  1.0000
  H   H45       1.0  0.40463  0.4064500000000001  0.8148900000000001  1.0000
  H   H46       1.0  0.40463  0.59355  0.18511  1.0000
  H   H47       1.0  0.59537  0.4064500000000001  0.18511  1.0000
  H   H48       1.0  0.59537  0.59355  0.8148900000000001  1.0000
  H   H49       1.0  0.27466000000000007  0.0  0.25163  1.0000
  H   H50       1.0  0.7253400000000002  0.0  0.25163  1.0000
  H   H51       1.0  0.7253400000000002  0.0  0.7483700000000002  1.0000
  H   H52       1.0  0.27466000000000007  0.0  0.7483700000000002  1.0000
  H   H53       1.0  0.25163  0.27466000000000007  0.0  1.0000
  H   H54       1.0  0.25163  0.7253400000000002  0.0  1.0000
  H   H55       1.0  0.7483700000000002  0.7253400000000002  0.0  1.0000
  H   H56       1.0  0.7483700000000002  0.27466000000000007  0.0  1.0000
  H   H57       1.0  0.0  0.25163  0.27466000000000007  1.0000
  H   H58       1.0  0.0  0.25163  0.7253400000000002  1.0000
  H   H59       1.0  0.0  0.7483700000000002  0.7253400000000002  1.0000
  H   H60       1.0  0.0  0.7483700000000002  0.27466000000000007  1.0000
  H   H61       1.0  0.5  0.7746600000000001  0.24837000000000004  1.0000
  H   H62       1.0  0.5  0.22534  0.24837000000000004  1.0000
  H   H63       1.0  0.5  0.22534  0.7516300000000001  1.0000
  H   H64       1.0  0.5  0.7746600000000001  0.7516300000000001  1.0000
  H   H65       1.0  0.7746600000000001  0.7516300000000001  0.5  1.0000
  H   H66       1.0  0.22534  0.7516300000000001  0.5  1.0000
  H   H67       1.0  0.22534  0.24837000000000004  0.5  1.0000
  H   H68       1.0  0.7746600000000001  0.24837000000000004  0.5  1.0000
  H   H69       1.0  0.7516300000000001  0.5  0.22534  1.0000
  H   H70       1.0  0.7516300000000001  0.5  0.7746600000000001  1.0000
  H   H71       1.0  0.24837000000000004  0.5  0.7746600000000001  1.0000
  H   H72       1.0  0.24837000000000004  0.5  0.22534  1.0000
  C   C1        1.0  0.30962000000000006  0.05248  0.11776000000000002  1.0000
  C   C2        1.0  0.29536  0.052460000000000014  0.17668  1.0000
  C   C3        1.0  0.28837  0.10982  0.2065  1.0000
  C   C4        1.0  0.6903800000000001  0.9475200000000003  0.11776000000000002  1.0000
  C   C5        1.0  0.70464  0.94754  0.17668  1.0000
  C   C6        1.0  0.7116300000000002  0.8901800000000002  0.2065  1.0000
  C   C7        1.0  0.6903800000000001  0.05248  0.8822400000000001  1.0000
  C   C8        1.0  0.70464  0.052460000000000014  0.82332  1.0000
  C   C9        1.0  0.7116300000000002  0.10982  0.7935  1.0000
  C   C10       1.0  0.30962000000000006  0.9475200000000003  0.8822400000000001  1.0000
  C   C11       1.0  0.29536  0.94754  0.82332  1.0000
  C   C12       1.0  0.28837  0.8901800000000002  0.7935  1.0000
  C   C13       1.0  0.11776000000000002  0.30962000000000006  0.05248  1.0000
  C   C14       1.0  0.17668  0.29536  0.052460000000000014  1.0000
  C   C15       1.0  0.2065  0.28837  0.10982  1.0000
  C   C16       1.0  0.11777000000000003  0.6903800000000001  0.9475200000000003  1.0000
  C   C17       1.0  0.17668  0.70464  0.94754  1.0000
  C   C18       1.0  0.2065  0.7116300000000002  0.8901800000000002  1.0000
  C   C19       1.0  0.8822400000000001  0.6903800000000001  0.05248  1.0000
  C   C20       1.0  0.82332  0.70464  0.052460000000000014  1.0000
  C   C21       1.0  0.7935  0.7116300000000002  0.10982  1.0000
  C   C22       1.0  0.8822400000000001  0.30962000000000006  0.9475200000000003  1.0000
  C   C23       1.0  0.82332  0.29536  0.94754  1.0000
  C   C24       1.0  0.7935  0.28837  0.8901800000000002  1.0000
  C   C25       1.0  0.05248  0.11776000000000002  0.30962000000000006  1.0000
  C   C26       1.0  0.052460000000000014  0.17668  0.29536  1.0000
  C   C27       1.0  0.10982  0.2065  0.28837  1.0000
  C   C28       1.0  0.9475200000000003  0.11776000000000002  0.6903800000000001  1.0000
  C   C29       1.0  0.94754  0.17668  0.70464  1.0000
  C   C30       1.0  0.8901800000000002  0.2065  0.7116300000000002  1.0000
  C   C31       1.0  0.05248  0.8822400000000001  0.6903800000000001  1.0000
  C   C32       1.0  0.052460000000000014  0.82332  0.70464  1.0000
  C   C33       1.0  0.10982  0.7935  0.7116300000000002  1.0000
  C   C34       1.0  0.9475200000000003  0.8822400000000001  0.30962000000000006  1.0000
  C   C35       1.0  0.94754  0.82332  0.29536  1.0000
  C   C36       1.0  0.8901800000000002  0.7935  0.28837  1.0000
  C   C37       1.0  0.55248  0.8096200000000001  0.38224  1.0000
  C   C38       1.0  0.55246  0.79536  0.32332000000000005  1.0000
  C   C39       1.0  0.60982  0.7883700000000001  0.2935  1.0000
  C   C40       1.0  0.44752  0.19038  0.38224  1.0000
  C   C41       1.0  0.44754  0.20464000000000004  0.32332000000000005  1.0000
  C   C42       1.0  0.3901800000000001  0.21163000000000007  0.2935  1.0000
  C   C43       1.0  0.55248  0.19038  0.6177600000000001  1.0000
  C   C44       1.0  0.55246  0.20464000000000004  0.67668  1.0000
  C   C45       1.0  0.60982  0.21163000000000007  0.7065  1.0000
  C   C46       1.0  0.44752  0.8096200000000001  0.6177600000000001  1.0000
  C   C47       1.0  0.44754  0.79536  0.67668  1.0000
  C   C48       1.0  0.3901800000000001  0.7883700000000001  0.7065  1.0000
  C   C49       1.0  0.8096200000000001  0.61777  0.44752  1.0000
  C   C50       1.0  0.79536  0.67668  0.44754  1.0000
  C   C51       1.0  0.7883700000000001  0.7065  0.3901800000000001  1.0000
  C   C52       1.0  0.19038  0.6177600000000001  0.55248  1.0000
  C   C53       1.0  0.20464000000000004  0.67668  0.55246  1.0000
  C   C54       1.0  0.21163000000000007  0.7065  0.60982  1.0000
  C   C55       1.0  0.19038  0.38224  0.44752  1.0000
  C   C56       1.0  0.20464000000000004  0.32332000000000005  0.44754  1.0000
  C   C57       1.0  0.21163000000000007  0.2935  0.3901800000000001  1.0000
  C   C58       1.0  0.8096200000000001  0.38224  0.55248  1.0000
  C   C59       1.0  0.79536  0.32332000000000005  0.55246  1.0000
  C   C60       1.0  0.7883700000000001  0.2935  0.60982  1.0000
  C   C61       1.0  0.61777  0.55248  0.19038  1.0000
  C   C62       1.0  0.67668  0.55246  0.20464000000000004  1.0000
  C   C63       1.0  0.7065  0.60982  0.21163000000000007  1.0000
  C   C64       1.0  0.61777  0.44752  0.8096200000000001  1.0000
  C   C65       1.0  0.67668  0.44754  0.79536  1.0000
  C   C66       1.0  0.7065  0.3901800000000001  0.7883700000000001  1.0000
  C   C67       1.0  0.38224  0.55248  0.8096200000000001  1.0000
  C   C68       1.0  0.32332000000000005  0.55246  0.79536  1.0000
  C   C69       1.0  0.2935  0.60982  0.7883700000000001  1.0000
  C   C70       1.0  0.38224  0.44752  0.19038  1.0000
  C   C71       1.0  0.32332000000000005  0.44754  0.20464000000000004  1.0000
  C   C72       1.0  0.2935  0.3901800000000001  0.21163000000000007  1.0000
  C   C73       1.0  0.6903800000000001  0.9475200000000003  0.8822400000000001  1.0000
  C   C74       1.0  0.70464  0.94754  0.82332  1.0000
  C   C75       1.0  0.7116300000000002  0.8901800000000002  0.7935  1.0000
  C   C76       1.0  0.30962000000000006  0.05248  0.8822400000000001  1.0000
  C   C77       1.0  0.29536  0.052460000000000014  0.82332  1.0000
  C   C78       1.0  0.28837  0.10982  0.7935  1.0000
  C   C79       1.0  0.30962000000000006  0.9475200000000003  0.11776000000000002  1.0000
  C   C80       1.0  0.29536  0.94754  0.17668  1.0000
  C   C81       1.0  0.28837  0.8901800000000002  0.2065  1.0000
  C   C82       1.0  0.6903800000000001  0.05248  0.11776000000000002  1.0000
  C   C83       1.0  0.70464  0.052460000000000014  0.17668  1.0000
  C   C84       1.0  0.7116300000000002  0.10982  0.2065  1.0000
  C   C85       1.0  0.8822400000000001  0.6903800000000001  0.9475200000000003  1.0000
  C   C86       1.0  0.82332  0.70464  0.94754  1.0000
  C   C87       1.0  0.7935  0.7116300000000002  0.8901800000000002  1.0000
  C   C88       1.0  0.8822400000000001  0.30962000000000006  0.05248  1.0000
  C   C89       1.0  0.82332  0.29536  0.052460000000000014  1.0000
  C   C90       1.0  0.7935  0.28837  0.10982  1.0000
  C   C91       1.0  0.11776000000000002  0.30962000000000006  0.9475200000000003  1.0000
  C   C92       1.0  0.17668  0.29536  0.94754  1.0000
  C   C93       1.0  0.2065  0.28837  0.8901800000000002  1.0000
  C   C94       1.0  0.11777000000000003  0.6903800000000001  0.05248  1.0000
  C   C95       1.0  0.17668  0.70464  0.052460000000000014  1.0000
  C   C96       1.0  0.2065  0.7116300000000002  0.10982  1.0000
  C   C97       1.0  0.9475200000000003  0.8822400000000001  0.6903800000000001  1.0000
  C   C98       1.0  0.94754  0.82332  0.70464  1.0000
  C   C99       1.0  0.8901800000000002  0.7935  0.7116300000000002  1.0000
  C   C100      1.0  0.05248  0.8822400000000001  0.30962000000000006  1.0000
  C   C101      1.0  0.052460000000000014  0.82332  0.29536  1.0000
  C   C102      1.0  0.10982  0.7935  0.28837  1.0000
  C   C103      1.0  0.9475200000000003  0.11776000000000002  0.30962000000000006  1.0000
  C   C104      1.0  0.94754  0.17668  0.29536  1.0000
  C   C105      1.0  0.8901800000000002  0.2065  0.28837  1.0000
  C   C106      1.0  0.05248  0.11776000000000002  0.6903800000000001  1.0000
  C   C107      1.0  0.052460000000000014  0.17668  0.70464  1.0000
  C   C108      1.0  0.10982  0.2065  0.7116300000000002  1.0000
  C   C109      1.0  0.44752  0.19038  0.6177600000000001  1.0000
  C   C110      1.0  0.44754  0.20464000000000004  0.67668  1.0000
  C   C111      1.0  0.3901800000000001  0.21163000000000007  0.7065  1.0000
  C   C112      1.0  0.55248  0.8096200000000001  0.6177600000000001  1.0000
  C   C113      1.0  0.55246  0.79536  0.67668  1.0000
  C   C114      1.0  0.60982  0.7883700000000001  0.7065  1.0000
  C   C115      1.0  0.44752  0.8096200000000001  0.38224  1.0000
  C   C116      1.0  0.44754  0.79536  0.32332000000000005  1.0000
  C   C117      1.0  0.3901800000000001  0.7883700000000001  0.2935  1.0000
  C   C118      1.0  0.55248  0.19038  0.38224  1.0000
  C   C119      1.0  0.55246  0.20464000000000004  0.32332000000000005  1.0000
  C   C120      1.0  0.60982  0.21163000000000007  0.2935  1.0000
  C   C121      1.0  0.19038  0.38224  0.55248  1.0000
  C   C122      1.0  0.20464000000000004  0.32332000000000005  0.55246  1.0000
  C   C123      1.0  0.21163000000000007  0.2935  0.60982  1.0000
  C   C124      1.0  0.8096200000000001  0.38224  0.44752  1.0000
  C   C125      1.0  0.79536  0.32332000000000005  0.44754  1.0000
  C   C126      1.0  0.7883700000000001  0.2935  0.3901800000000001  1.0000
  C   C127      1.0  0.8096200000000001  0.61777  0.55248  1.0000
  C   C128      1.0  0.79536  0.67668  0.55246  1.0000
  C   C129      1.0  0.7883700000000001  0.7065  0.60982  1.0000
  C   C130      1.0  0.19038  0.6177600000000001  0.44752  1.0000
  C   C131      1.0  0.20464000000000004  0.67668  0.44754  1.0000
  C   C132      1.0  0.21163000000000007  0.7065  0.3901800000000001  1.0000
  C   C133      1.0  0.38224  0.44752  0.8096200000000001  1.0000
  C   C134      1.0  0.32332000000000005  0.44754  0.79536  1.0000
  C   C135      1.0  0.2935  0.3901800000000001  0.7883700000000001  1.0000
  C   C136      1.0  0.38224  0.55248  0.19038  1.0000
  C   C137      1.0  0.32332000000000005  0.55246  0.20464000000000004  1.0000
  C   C138      1.0  0.2935  0.60982  0.21163000000000007  1.0000
  C   C139      1.0  0.61777  0.44752  0.19038  1.0000
  C   C140      1.0  0.67668  0.44754  0.20464000000000004  1.0000
  C   C141      1.0  0.7065  0.3901800000000001  0.21163000000000007  1.0000
  C   C142      1.0  0.61777  0.55248  0.8096200000000001  1.0000
  C   C143      1.0  0.67668  0.55246  0.79536  1.0000
  C   C144      1.0  0.7065  0.60982  0.7883700000000001  1.0000
  C   C145      1.0  0.31536  0.0  0.08729000000000003  1.0000
  C   C146      1.0  0.28706  0.0  0.20621000000000006  1.0000
  C   C147      1.0  0.3228  0.0  0.026420000000000006  1.0000
  C   C148      1.0  0.68464  0.0  0.08729000000000003  1.0000
  C   C149      1.0  0.71295  0.0  0.20621000000000006  1.0000
  C   C150      1.0  0.6772  0.0  0.026420000000000006  1.0000
  C   C151      1.0  0.68464  0.0  0.9127100000000002  1.0000
  C   C152      1.0  0.71295  0.0  0.7937900000000001  1.0000
  C   C153      1.0  0.6772  0.0  0.9735800000000002  1.0000
  C   C154      1.0  0.31536  0.0  0.9127100000000002  1.0000
  C   C155      1.0  0.28706  0.0  0.7937900000000001  1.0000
  C   C156      1.0  0.3228  0.0  0.9735800000000002  1.0000
  C   C157      1.0  0.08729000000000003  0.31536  0.0  1.0000
  C   C158      1.0  0.20621000000000006  0.28706  0.0  1.0000
  C   C159      1.0  0.026420000000000006  0.3228  0.0  1.0000
  C   C160      1.0  0.08729000000000003  0.68464  0.0  1.0000
  C   C161      1.0  0.20621000000000006  0.71295  0.0  1.0000
  C   C162      1.0  0.026420000000000006  0.6772  0.0  1.0000
  C   C163      1.0  0.91272  0.68464  0.0  1.0000
  C   C164      1.0  0.7937900000000001  0.71295  0.0  1.0000
  C   C165      1.0  0.9735800000000002  0.6772  0.0  1.0000
  C   C166      1.0  0.91272  0.31536  0.0  1.0000
  C   C167      1.0  0.7937900000000001  0.28706  0.0  1.0000
  C   C168      1.0  0.9735800000000002  0.3228  0.0  1.0000
  C   C169      1.0  0.0  0.08729000000000003  0.31536  1.0000
  C   C170      1.0  0.0  0.20621000000000006  0.28706  1.0000
  C   C171      1.0  0.0  0.026420000000000006  0.3228  1.0000
  C   C172      1.0  0.0  0.08729000000000003  0.68464  1.0000
  C   C173      1.0  0.0  0.20621000000000006  0.7129400000000001  1.0000
  C   C174      1.0  0.0  0.026420000000000006  0.6772  1.0000
  C   C175      1.0  0.0  0.91272  0.68464  1.0000
  C   C176      1.0  0.0  0.7937900000000001  0.7129400000000001  1.0000
  C   C177      1.0  0.0  0.9735800000000002  0.6772  1.0000
  C   C178      1.0  0.0  0.91272  0.31536  1.0000
  C   C179      1.0  0.0  0.7937900000000001  0.28706  1.0000
  C   C180      1.0  0.0  0.9735800000000002  0.3228  1.0000
  C   C181      1.0  0.5  0.8153600000000002  0.41271000000000013  1.0000
  C   C182      1.0  0.5  0.7870600000000002  0.29379  1.0000
  C   C183      1.0  0.5  0.8228000000000002  0.47358000000000006  1.0000
  C   C184      1.0  0.5  0.18464  0.41271000000000013  1.0000
  C   C185      1.0  0.5  0.21295  0.29379  1.0000
  C   C186      1.0  0.5  0.1772  0.47358000000000006  1.0000
  C   C187      1.0  0.5  0.18464  0.58729  1.0000
  C   C188      1.0  0.5  0.21295  0.7062100000000002  1.0000
  C   C189      1.0  0.5  0.1772  0.52642  1.0000
  C   C190      1.0  0.5  0.8153600000000002  0.58729  1.0000
  C   C191      1.0  0.5  0.7870600000000002  0.7062100000000002  1.0000
  C   C192      1.0  0.5  0.8228000000000002  0.52642  1.0000
  C   C193      1.0  0.8153600000000002  0.58729  0.5  1.0000
  C   C194      1.0  0.7870600000000002  0.7062100000000002  0.5  1.0000
  C   C195      1.0  0.8228000000000002  0.52642  0.5  1.0000
  C   C196      1.0  0.18464  0.58729  0.5  1.0000
  C   C197      1.0  0.21294  0.7062100000000002  0.5  1.0000
  C   C198      1.0  0.1772  0.52642  0.5  1.0000
  C   C199      1.0  0.18464  0.41271000000000013  0.5  1.0000
  C   C200      1.0  0.21294  0.29379  0.5  1.0000
  C   C201      1.0  0.1772  0.47358000000000006  0.5  1.0000
  C   C202      1.0  0.8153600000000002  0.41271000000000013  0.5  1.0000
  C   C203      1.0  0.7870600000000002  0.29379  0.5  1.0000
  C   C204      1.0  0.8228000000000002  0.47358000000000006  0.5  1.0000
  C   C205      1.0  0.58729  0.5  0.18464  1.0000
  C   C206      1.0  0.7062100000000002  0.5  0.21294  1.0000
  C   C207      1.0  0.52642  0.5  0.1772  1.0000
  C   C208      1.0  0.58729  0.5  0.8153600000000002  1.0000
  C   C209      1.0  0.7062100000000002  0.5  0.7870600000000002  1.0000
  C   C210      1.0  0.52642  0.5  0.8228000000000002  1.0000
  C   C211      1.0  0.41271000000000013  0.5  0.8153600000000002  1.0000
  C   C212      1.0  0.29379  0.5  0.7870600000000002  1.0000
  C   C213      1.0  0.47358000000000006  0.5  0.8228000000000002  1.0000
  C   C214      1.0  0.41271000000000013  0.5  0.18464  1.0000
  C   C215      1.0  0.29379  0.5  0.21294  1.0000
  C   C216      1.0  0.47358000000000006  0.5  0.1772  1.0000
  O   O1        1.0  0.26564  0.10895  0.25727  1.0000
  O   O2        1.0  0.30567  0.15376  0.17767  1.0000
  O   O3        1.0  0.73436  0.89105  0.25727  1.0000
  O   O4        1.0  0.69433  0.8462400000000001  0.17767  1.0000
  O   O5        1.0  0.73436  0.10895  0.74273  1.0000
  O   O6        1.0  0.69433  0.15376  0.8223300000000001  1.0000
  O   O7        1.0  0.26564  0.89105  0.74273  1.0000
  O   O8        1.0  0.30567  0.8462400000000001  0.8223300000000001  1.0000
  O   O9        1.0  0.25727  0.26564  0.10895  1.0000
  O   O10       1.0  0.17767  0.30567  0.15376  1.0000
  O   O11       1.0  0.25727  0.73436  0.89105  1.0000
  O   O12       1.0  0.17767  0.69433  0.8462400000000001  1.0000
  O   O13       1.0  0.74273  0.73436  0.10895  1.0000
  O   O14       1.0  0.8223300000000001  0.69433  0.15376  1.0000
  O   O15       1.0  0.74273  0.26564  0.89105  1.0000
  O   O16       1.0  0.8223300000000001  0.30567  0.8462400000000001  1.0000
  O   O17       1.0  0.10895  0.25727  0.26564  1.0000
  O   O18       1.0  0.15376  0.17767  0.30567  1.0000
  O   O19       1.0  0.89105  0.25727  0.73436  1.0000
  O   O20       1.0  0.8462400000000001  0.17767  0.69433  1.0000
  O   O21       1.0  0.10895  0.74273  0.73436  1.0000
  O   O22       1.0  0.15376  0.8223300000000001  0.69433  1.0000
  O   O23       1.0  0.89105  0.74273  0.26564  1.0000
  O   O24       1.0  0.8462400000000001  0.8223300000000001  0.30567  1.0000
  O   O25       1.0  0.60895  0.76564  0.24273000000000003  1.0000
  O   O26       1.0  0.6537600000000001  0.80567  0.32233000000000006  1.0000
  O   O27       1.0  0.3910500000000001  0.23436  0.24273000000000003  1.0000
  O   O28       1.0  0.34624000000000005  0.19433000000000003  0.32233000000000006  1.0000
  O   O29       1.0  0.60895  0.23436  0.75727  1.0000
  O   O30       1.0  0.6537600000000001  0.19433000000000003  0.6776700000000001  1.0000
  O   O31       1.0  0.3910500000000001  0.76564  0.75727  1.0000
  O   O32       1.0  0.34624000000000005  0.80567  0.6776700000000001  1.0000
  O   O33       1.0  0.76564  0.75727  0.3910500000000001  1.0000
  O   O34       1.0  0.80567  0.6776700000000001  0.34624000000000005  1.0000
  O   O35       1.0  0.23436  0.75727  0.60895  1.0000
  O   O36       1.0  0.19433000000000003  0.6776700000000001  0.6537600000000001  1.0000
  O   O37       1.0  0.23436  0.24273000000000003  0.3910500000000001  1.0000
  O   O38       1.0  0.19433000000000003  0.32233000000000006  0.34624000000000005  1.0000
  O   O39       1.0  0.76564  0.24273000000000003  0.60895  1.0000
  O   O40       1.0  0.80567  0.32233000000000006  0.6537600000000001  1.0000
  O   O41       1.0  0.75727  0.60895  0.23436  1.0000
  O   O42       1.0  0.6776700000000001  0.6537600000000001  0.19433000000000003  1.0000
  O   O43       1.0  0.75727  0.3910500000000001  0.76564  1.0000
  O   O44       1.0  0.6776700000000001  0.34624000000000005  0.80567  1.0000
  O   O45       1.0  0.24273000000000003  0.60895  0.76564  1.0000
  O   O46       1.0  0.32233000000000006  0.6537600000000001  0.80567  1.0000
  O   O47       1.0  0.24273000000000003  0.3910500000000001  0.23436  1.0000
  O   O48       1.0  0.32233000000000006  0.34624000000000005  0.19433000000000003  1.0000
  O   O49       1.0  0.73436  0.89105  0.74273  1.0000
  O   O50       1.0  0.69433  0.8462400000000001  0.8223300000000001  1.0000
  O   O51       1.0  0.26564  0.10895  0.74273  1.0000
  O   O52       1.0  0.30567  0.15376  0.8223300000000001  1.0000
  O   O53       1.0  0.26564  0.89105  0.25727  1.0000
  O   O54       1.0  0.30567  0.8462400000000001  0.17767  1.0000
  O   O55       1.0  0.73436  0.10895  0.25727  1.0000
  O   O56       1.0  0.69433  0.15376  0.17767  1.0000
  O   O57       1.0  0.74273  0.73436  0.89105  1.0000
  O   O58       1.0  0.8223300000000001  0.69433  0.8462400000000001  1.0000
  O   O59       1.0  0.74273  0.26564  0.10895  1.0000
  O   O60       1.0  0.8223300000000001  0.30567  0.15376  1.0000
  O   O61       1.0  0.25727  0.26564  0.89105  1.0000
  O   O62       1.0  0.17767  0.30567  0.8462400000000001  1.0000
  O   O63       1.0  0.25727  0.73436  0.10895  1.0000
  O   O64       1.0  0.17767  0.69433  0.15376  1.0000
  O   O65       1.0  0.89105  0.74273  0.73436  1.0000
  O   O66       1.0  0.8462400000000001  0.8223300000000001  0.69433  1.0000
  O   O67       1.0  0.10895  0.74273  0.26564  1.0000
  O   O68       1.0  0.15376  0.8223300000000001  0.30567  1.0000
  O   O69       1.0  0.89105  0.25727  0.26564  1.0000
  O   O70       1.0  0.8462400000000001  0.17767  0.30567  1.0000
  O   O71       1.0  0.10895  0.25727  0.73436  1.0000
  O   O72       1.0  0.15376  0.17767  0.69433  1.0000
  O   O73       1.0  0.3910500000000001  0.23436  0.75727  1.0000
  O   O74       1.0  0.34624000000000005  0.19433000000000003  0.6776700000000001  1.0000
  O   O75       1.0  0.60895  0.76564  0.75727  1.0000
  O   O76       1.0  0.6537600000000001  0.80567  0.6776700000000001  1.0000
  O   O77       1.0  0.3910500000000001  0.76564  0.24273000000000003  1.0000
  O   O78       1.0  0.34624000000000005  0.80567  0.32233000000000006  1.0000
  O   O79       1.0  0.60895  0.23436  0.24273000000000003  1.0000
  O   O80       1.0  0.6537600000000001  0.19433000000000003  0.32233000000000006  1.0000
  O   O81       1.0  0.23436  0.24273000000000003  0.60895  1.0000
  O   O82       1.0  0.19433000000000003  0.32233000000000006  0.6537600000000001  1.0000
  O   O83       1.0  0.76564  0.24273000000000003  0.3910500000000001  1.0000
  O   O84       1.0  0.80567  0.32233000000000006  0.34624000000000005  1.0000
  O   O85       1.0  0.76564  0.75727  0.60895  1.0000
  O   O86       1.0  0.80567  0.6776700000000001  0.6537600000000001  1.0000
  O   O87       1.0  0.23436  0.75727  0.3910500000000001  1.0000
  O   O88       1.0  0.19433000000000003  0.6776700000000001  0.34624000000000005  1.0000
  O   O89       1.0  0.24273000000000003  0.3910500000000001  0.76564  1.0000
  O   O90       1.0  0.32233000000000006  0.34624000000000005  0.80567  1.0000
  O   O91       1.0  0.24273000000000003  0.60895  0.23436  1.0000
  O   O92       1.0  0.32233000000000006  0.6537600000000001  0.19433000000000003  1.0000
  O   O93       1.0  0.75727  0.3910500000000001  0.23436  1.0000
  O   O94       1.0  0.6776700000000001  0.34624000000000005  0.19433000000000003  1.0000
  O   O95       1.0  0.75727  0.60895  0.76564  1.0000
  O   O96       1.0  0.6776700000000001  0.6537600000000001  0.80567  1.0000
  O   O97       1.0  0.25  0.25  0.25  1.0000
  O   O98       1.0  0.75  0.75  0.25  1.0000
  O   O99       1.0  0.75  0.25  0.75  1.0000
  O   O100      1.0  0.25  0.75  0.75  1.0000
  O   O101      1.0  0.75  0.75  0.75  1.0000
  O   O102      1.0  0.25  0.25  0.75  1.0000
  O   O103      1.0  0.25  0.75  0.25  1.0000
  O   O104      1.0  0.75  0.25  0.25  1.0000
