data_image0
_chemical_formula_structural       Gd16H144C288O96
_chemical_formula_sum              "Gd16 H144 C288 O96"
_cell_length_a       14.80454
_cell_length_b       22.881440000000005
_cell_length_c       22.87473
_cell_angle_alpha    83.98038
_cell_angle_beta     71.15326
_cell_angle_gamma    71.14135

_symmetry_space_group_name_H-M    'P 1'
_symmetry_Int_Tables_number       1

loop_
  _symmetry_equiv_pos_as_xyz
  'x,y,z'

loop_
  _atom_site_type_symbol
  _atom_site_label
  _atom_site_symmetry_multiplicity
  _atom_site_fract_x
  _atom_site_fract_y
  _atom_site_fract_z
  _atom_site_occupancy
  Gd  Gd1       1.0  0.20639000000000002  0.74228  0.20677  1.0000
  Gd  Gd2       1.0  0.4750100000000002  0.74668  0.18685000000000002  1.0000
  Gd  Gd3       1.0  0.15490000000000015  0.25745  0.79348  1.0000
  Gd  Gd4       1.0  0.40865  0.25331  0.8143300000000001  1.0000
  Gd  Gd5       1.0  0.19926999999999984  0.70651  0.75809  1.0000
  Gd  Gd6       1.0  0.47316000000000036  0.68598  0.75327  1.0000
  Gd  Gd7       1.0  0.6623800000000002  0.29349  0.24273  1.0000
  Gd  Gd8       1.0  0.9120000000000001  0.31453000000000003  0.24707999999999997  1.0000
  Gd  Gd9       1.0  0.7062700000000001  0.20647  0.74239  1.0000
  Gd  Gd10      1.0  0.9752899999999998  0.18581  0.7474000000000001  1.0000
  Gd  Gd11      1.0  0.6549699999999998  0.7934700000000002  0.25788  1.0000
  Gd  Gd12      1.0  0.90877  0.8145800000000001  0.25347  1.0000
  Gd  Gd13      1.0  0.6986499999999999  0.7582400000000001  0.70733  1.0000
  Gd  Gd14      1.0  0.97255  0.7530700000000002  0.68684  1.0000
  Gd  Gd15      1.0  0.16224999999999998  0.24178  0.2935  1.0000
  Gd  Gd16      1.0  0.41137  0.24669  0.31437  1.0000
  H   H1        1.0  0.4048099999999999  0.66853  0.99742  1.0000
  H   H2        1.0  0.5054200000000001  0.67469  0.88851  1.0000
  H   H3        1.0  0.5682499999999999  0.8712800000000002  0.87203  1.0000
  H   H4        1.0  0.5316800000000002  0.9527000000000001  0.94564  1.0000
  H   H5        1.0  0.42772000000000004  0.94624  0.055790000000000006  1.0000
  H   H6        1.0  0.36966000000000004  0.8561800000000002  0.09113  1.0000
  H   H7        1.0  0.24681999999999998  0.70381  0.50934  1.0000
  H   H8        1.0  0.3526100000000002  0.70349  0.39948  1.0000
  H   H9        1.0  0.17064999999999994  0.88179  0.30904  1.0000
  H   H10       1.0  0.020850000000000018  0.97108  0.34935  1.0000
  H   H11       1.0  0.92169  0.9763000000000001  0.46074000000000004  1.0000
  H   H12       1.0  0.9736700000000004  0.89223  0.53218  1.0000
  H   H13       1.0  0.3467700000000001  0.54726  0.17463  1.0000
  H   H14       1.0  0.35237999999999997  0.4383000000000001  0.20412999999999998  1.0000
  H   H15       1.0  0.44415999999999994  0.40338  0.3898400000000001  1.0000
  H   H16       1.0  0.47551000000000004  0.4672700000000001  0.45714  1.0000
  H   H17       1.0  0.46689  0.57697  0.42937  1.0000
  H   H18       1.0  0.4304700000000001  0.62171  0.3334  1.0000
  H   H19       1.0  0.06943999999999996  0.33140000000000003  0.0029500000000000004  1.0000
  H   H20       1.0  0.06705999999999997  0.32554000000000005  0.11193  1.0000
  H   H21       1.0  0.31064  0.12937000000000004  0.1289  1.0000
  H   H22       1.0  0.42929  0.04791000000000001  0.055560000000000005  1.0000
  H   H23       1.0  0.4295300000000002  0.05414000000000001  0.9452700000000002  1.0000
  H   H24       1.0  0.31688  0.14401  0.9096500000000001  1.0000
  H   H25       1.0  0.45827000000000007  0.29699  0.49185  1.0000
  H   H26       1.0  0.45507999999999993  0.29676  0.60164  1.0000
  H   H27       1.0  0.36184  0.11826000000000002  0.69171  1.0000
  H   H28       1.0  0.34151  0.028980000000000002  0.65131  1.0000
  H   H29       1.0  0.35830000000000006  0.02401  0.53989  1.0000
  H   H30       1.0  0.3963500000000002  0.10857  0.46873  1.0000
  H   H31       1.0  0.06878999999999998  0.4517  0.8261200000000001  1.0000
  H   H32       1.0  0.9949800000000001  0.56114  0.79756  1.0000
  H   H33       1.0  0.23645000000000002  0.59669  0.61181  1.0000
  H   H34       1.0  0.39873  0.5331600000000001  0.54419  1.0000
  H   H35       1.0  0.47279999999999983  0.42350000000000004  0.57167  1.0000
  H   H36       1.0  0.3856199999999999  0.37821000000000005  0.66745  1.0000
  H   H37       1.0  0.3229999999999999  0.49749  0.83121  1.0000
  H   H38       1.0  0.4287599999999998  0.38835000000000003  0.82567  1.0000
  H   H39       1.0  0.6898200000000001  0.37096000000000007  0.62977  1.0000
  H   H40       1.0  0.73551  0.44399  0.54795  1.0000
  H   H41       1.0  0.62608  0.55437  0.55383  1.0000
  H   H42       1.0  0.4778800000000001  0.5903  0.6436  1.0000
  H   H43       1.0  0.20087999999999995  0.00875  0.7961900000000001  1.0000
  H   H44       1.0  0.3072800000000003  0.8991400000000002  0.7962300000000001  1.0000
  H   H45       1.0  0.30327000000000004  0.80888  0.61783  1.0000
  H   H46       1.0  0.24230999999999991  0.84936  0.52863  1.0000
  H   H47       1.0  0.1480999999999999  0.9607600000000001  0.52357  1.0000
  H   H48       1.0  0.11535000000000004  0.031860000000000006  0.6081  1.0000
  H   H49       1.0  0.1467000000000002  0.67403  0.95238  1.0000
  H   H50       1.0  0.04303999999999997  0.70329  0.06132  1.0000
  H   H51       1.0  0.09812999999999998  0.88939  0.09632  1.0000
  H   H52       1.0  0.19244999999999998  0.9571400000000001  0.03259  1.0000
  H   H53       1.0  0.2941499999999998  0.9295900000000002  0.9229600000000001  1.0000
  H   H54       1.0  0.3039400000000001  0.83323  0.8781799999999998  1.0000
  H   H55       1.0  0.6502  0.50307  0.16883  1.0000
  H   H56       1.0  0.6422500000000002  0.612  0.17471  1.0000
  H   H57       1.0  0.6901  0.62854  0.37091  1.0000
  H   H58       1.0  0.7266400000000003  0.55511  0.45261999999999997  1.0000
  H   H59       1.0  0.7324299999999999  0.4449600000000001  0.44644  1.0000
  H   H60       1.0  0.7098000000000001  0.40949  0.35642  1.0000
  H   H61       1.0  0.004579999999999798  0.9917500000000002  0.20422  1.0000
  H   H62       1.0  0.0011200000000000062  0.10158000000000003  0.20383999999999997  1.0000
  H   H63       1.0  0.7287  0.19198  0.38204000000000005  1.0000
  H   H64       1.0  0.619  0.1517  0.47127  1.0000
  H   H65       1.0  0.6319300000000002  0.04013  0.47701000000000005  1.0000
  H   H66       1.0  0.7555600000000005  0.96867  0.39296  1.0000
  H   H67       1.0  0.7705100000000005  0.32634  0.04777  1.0000
  H   H68       1.0  0.8059600000000002  0.29711  0.9386100000000002  1.0000
  H   H69       1.0  0.08309999999999995  0.11167000000000002  0.90401  1.0000
  H   H70       1.0  0.18124  0.044140000000000006  0.96797  1.0000
  H   H71       1.0  0.14482  0.07161  0.07775  1.0000
  H   H72       1.0  0.012699999999999996  0.16766  0.12255  1.0000
  H   H73       1.0  0.9050800000000002  0.99701  0.66834  1.0000
  H   H74       1.0  0.005800000000000191  0.88812  0.67451  1.0000
  H   H75       1.0  0.06933999999999992  0.8717100000000001  0.8709200000000001  1.0000
  H   H76       1.0  0.032080000000000025  0.94517  0.95263  1.0000
  H   H77       1.0  0.9277600000000005  0.05527  0.94627  1.0000
  H   H78       1.0  0.86984  0.09064  0.85617  1.0000
  H   H79       1.0  0.7470000000000003  0.5087  0.70378  1.0000
  H   H80       1.0  0.85349  0.39917  0.70359  1.0000
  H   H81       1.0  0.6712799999999999  0.30839000000000005  0.88151  1.0000
  H   H82       1.0  0.5215200000000001  0.34851  0.97083  1.0000
  H   H83       1.0  0.42264000000000007  0.45999  0.97643  1.0000
  H   H84       1.0  0.47440000000000004  0.53148  0.8922800000000001  1.0000
  H   H85       1.0  0.8480300000000001  0.17359  0.54731  1.0000
  H   H86       1.0  0.8539500000000004  0.20324000000000003  0.43825  1.0000
  H   H87       1.0  0.9446300000000001  0.38922000000000007  0.40420000000000006  1.0000
  H   H88       1.0  0.97502  0.4565800000000001  0.46846  1.0000
  H   H89       1.0  0.96597  0.4287400000000001  0.5782  1.0000
  H   H90       1.0  0.93025  0.33243000000000006  0.62264  1.0000
  H   H91       1.0  0.57005  0.0027700000000000008  0.33206  1.0000
  H   H92       1.0  0.5673100000000004  0.11185000000000002  0.32608  1.0000
  H   H93       1.0  0.8100600000000002  0.12908  0.12969  1.0000
  H   H94       1.0  0.9285400000000003  0.055840000000000015  0.04804  1.0000
  H   H95       1.0  0.9292400000000002  0.9455000000000002  0.05435  1.0000
  H   H96       1.0  0.8171100000000001  0.90973  0.14434  1.0000
  H   H97       1.0  0.95862  0.49188  0.29694  1.0000
  H   H98       1.0  0.95505  0.60169  0.2969  1.0000
  H   H99       1.0  0.8616900000000001  0.6917000000000001  0.11823  1.0000
  H   H100      1.0  0.8415900000000003  0.65122  0.02891  1.0000
  H   H101      1.0  0.8584100000000001  0.5398200000000001  0.02401  1.0000
  H   H102      1.0  0.8965499999999998  0.46869000000000005  0.10862000000000001  1.0000
  H   H103      1.0  0.56803  0.82615  0.4525699999999999  1.0000
  H   H104      1.0  0.49479000000000023  0.7974100000000001  0.56194  1.0000
  H   H105      1.0  0.7367700000000001  0.6117100000000001  0.59703  1.0000
  H   H106      1.0  0.8986600000000003  0.54405  0.53316  1.0000
  H   H107      1.0  0.97213  0.57163  0.42345000000000005  1.0000
  H   H108      1.0  0.8848299999999999  0.6676300000000001  0.3784699999999999  1.0000
  H   H109      1.0  0.822  0.8308400000000002  0.49809  1.0000
  H   H110      1.0  0.9280100000000003  0.8255400000000002  0.38904999999999995  1.0000
  H   H111      1.0  0.18933999999999998  0.62959  0.37168999999999996  1.0000
  H   H112      1.0  0.23505  0.54788  0.44486000000000003  1.0000
  H   H113      1.0  0.12558000000000005  0.55384  0.55523  1.0000
  H   H114      1.0  0.97726  0.6434800000000002  0.591  1.0000
  H   H115      1.0  0.7006900000000004  0.79607  0.00983  1.0000
  H   H116      1.0  0.8060499999999997  0.7966100000000002  0.90009  1.0000
  H   H117      1.0  0.8028899999999999  0.61814  0.80976  1.0000
  H   H118      1.0  0.7419099999999998  0.5289  0.85004  1.0000
  H   H119      1.0  0.6471399999999999  0.52388  0.9613700000000001  1.0000
  H   H120      1.0  0.61471  0.6081000000000001  0.03267  1.0000
  H   H121      1.0  0.6457800000000002  0.9518500000000001  0.67483  1.0000
  H   H122      1.0  0.5421199999999999  0.06083000000000001  0.70399  1.0000
  H   H123      1.0  0.59773  0.09622  0.88992  1.0000
  H   H124      1.0  0.6926000000000003  0.03255  0.95751  1.0000
  H   H125      1.0  0.795  0.9231100000000002  0.9297  1.0000
  H   H126      1.0  0.8043200000000001  0.8782700000000002  0.83352  1.0000
  H   H127      1.0  0.14999999999999997  0.16872  0.50285  1.0000
  H   H128      1.0  0.14195000000000002  0.17441  0.61185  1.0000
  H   H129      1.0  0.19003999999999996  0.37050000000000005  0.62872  1.0000
  H   H130      1.0  0.22649000000000005  0.45224  0.55539  1.0000
  H   H131      1.0  0.23225999999999988  0.4462200000000001  0.44520000000000004  1.0000
  H   H132      1.0  0.20948999999999993  0.3563  0.40961  1.0000
  H   H133      1.0  0.5053600000000005  0.20398000000000002  0.99125  1.0000
  H   H134      1.0  0.5024400000000002  0.20315  0.10099  1.0000
  H   H135      1.0  0.23019000000000003  0.38089  0.19240000000000002  1.0000
  H   H136      1.0  0.12006999999999995  0.47036000000000006  0.15266  1.0000
  H   H137      1.0  0.13173000000000004  0.47638  0.04127  1.0000
  H   H138      1.0  0.2548500000000001  0.39258  0.96934  1.0000
  H   H139      1.0  0.27036  0.04767000000000001  0.32586  1.0000
  H   H140      1.0  0.30539000000000005  0.93851  0.29698  1.0000
  H   H141      1.0  0.58294  0.90299  0.11163000000000001  1.0000
  H   H142      1.0  0.68177  0.96656  0.04408  1.0000
  H   H143      1.0  0.6460000000000002  0.07628  0.07137  1.0000
  H   H144      1.0  0.51379  0.12144  0.16721  1.0000
  C   C1        1.0  0.40442999999999996  0.756  0.02248  1.0000
  C   C2        1.0  0.4295900000000001  0.70881  0.98118  1.0000
  C   C3        1.0  0.4853599999999999  0.7128700000000001  0.91945  1.0000
  C   C4        1.0  0.51461  0.76496  0.89685  1.0000
  C   C5        1.0  0.49339  0.81421  0.93844  1.0000
  C   C6        1.0  0.5252900000000004  0.8674600000000001  0.91978  1.0000
  C   C7        1.0  0.50353  0.91347  0.9613  1.0000
  C   C8        1.0  0.44614  0.9095  0.02334  1.0000
  C   C9        1.0  0.41340000000000016  0.8587700000000001  0.04331  1.0000
  C   C10       1.0  0.43721  0.80935  0.00264  1.0000
  C   C11       1.0  0.34117999999999993  0.7473300000000002  0.0862  1.0000
  C   C12       1.0  0.5641299999999999  0.76666  0.82936  1.0000
  C   C13       1.0  0.13480999999999993  0.7880000000000003  0.50205  1.0000
  C   C14       1.0  0.22383999999999996  0.7409300000000002  0.47841  1.0000
  C   C15       1.0  0.28240000000000004  0.7402500000000001  0.41645  1.0000
  C   C16       1.0  0.25005000000000005  0.7852  0.3757  1.0000
  C   C17       1.0  0.16000999999999999  0.83532  0.39758  1.0000
  C   C18       1.0  0.12794999999999995  0.88413  0.35781  1.0000
  C   C19       1.0  0.04403000000000006  0.93397  0.38029  1.0000
  C   C20       1.0  0.98808  0.9369000000000001  0.44355999999999995  1.0000
  C   C21       1.0  0.016550000000000016  0.89024  0.48358  1.0000
  C   C22       1.0  0.10257999999999998  0.83798  0.46239  1.0000
  C   C23       1.0  0.07847000000000003  0.7810300000000001  0.56859  1.0000
  C   C24       1.0  0.31513  0.77806  0.30987  1.0000
  C   C25       1.0  0.39007000000000003  0.56327  0.25045  1.0000
  C   C26       1.0  0.36667  0.52726  0.21571000000000004  1.0000
  C   C27       1.0  0.36971999999999994  0.46611000000000014  0.23229  1.0000
  C   C28       1.0  0.39739  0.4406300000000001  0.28386  1.0000
  C   C29       1.0  0.41854  0.4760600000000001  0.32245  1.0000
  C   C30       1.0  0.4410499999999999  0.4511200000000001  0.3775  1.0000
  C   C31       1.0  0.4577100000000001  0.4870300000000001  0.41535  1.0000
  C   C32       1.0  0.4525400000000001  0.5491300000000001  0.39964  1.0000
  C   C33       1.0  0.43194  0.57447  0.34612  1.0000
  C   C34       1.0  0.41452000000000006  0.53911  0.30576  1.0000
  C   C35       1.0  0.38642  0.62681  0.22674  1.0000
  C   C36       1.0  0.40482  0.37462  0.29642  1.0000
  C   C37       1.0  0.18233999999999997  0.24412  0.97799  1.0000
  C   C38       1.0  0.11849000000000003  0.29127  0.01922  1.0000
  C   C39       1.0  0.11637999999999997  0.28738  0.08101  1.0000
  C   C40       1.0  0.17538000000000006  0.23547000000000007  0.10366  1.0000
  C   C41       1.0  0.24526999999999996  0.18624000000000004  0.06225  1.0000
  C   C42       1.0  0.31176  0.13312  0.08112  1.0000
  C   C43       1.0  0.37771  0.08707  0.03973  1.0000
  C   C44       1.0  0.37867  0.09090000000000001  0.9776299999999999  1.0000
  C   C45       1.0  0.31523000000000023  0.14152  0.95749  1.0000
  C   C46       1.0  0.24867999999999985  0.19094000000000005  0.9980300000000001  1.0000
  C   C47       1.0  0.17476  0.25256000000000006  0.9140999999999999  1.0000
  C   C48       1.0  0.15912  0.23370000000000005  0.17112  1.0000
  C   C49       1.0  0.42435000000000006  0.21240000000000006  0.49888  1.0000
  C   C50       1.0  0.44221999999999995  0.25961  0.52265  1.0000
  C   C51       1.0  0.43844  0.26009  0.5846  1.0000
  C   C52       1.0  0.41066  0.21495000000000003  0.62521  1.0000
  C   C53       1.0  0.39277999999999996  0.16481000000000004  0.60324  1.0000
  C   C54       1.0  0.37004000000000015  0.11591000000000001  0.64295  1.0000
  C   C55       1.0  0.35849999999999993  0.06608  0.62037  1.0000
  C   C56       1.0  0.3683000000000002  0.06333  0.55713  1.0000
  C   C57       1.0  0.38964  0.11017  0.51722  1.0000
  C   C58       1.0  0.40261  0.1623  0.53844  1.0000
  C   C59       1.0  0.42838  0.21917000000000006  0.4322  1.0000
  C   C60       1.0  0.4023400000000002  0.22206  0.69111  1.0000
  C   C61       1.0  0.20385000000000003  0.43637000000000004  0.7506  1.0000
  C   C62       1.0  0.10969999999999991  0.47216000000000014  0.78542  1.0000
  C   C63       1.0  0.06825999999999993  0.53351  0.76928  1.0000
  C   C64       1.0  0.12198999999999993  0.55918  0.7179  1.0000
  C   C65       1.0  0.21694000000000005  0.52385  0.6791  1.0000
  C   C66       1.0  0.26908  0.5489800000000001  0.62404  1.0000
  C   C67       1.0  0.35932  0.51321  0.58598  1.0000
  C   C68       1.0  0.40087000000000006  0.45110000000000006  0.60152  1.0000
  C   C69       1.0  0.3524100000000001  0.4255200000000001  0.65498  1.0000
  C   C70       1.0  0.25942000000000004  0.4607400000000001  0.6955  1.0000
  C   C71       1.0  0.23978999999999995  0.37287  0.77436  1.0000
  C   C72       1.0  0.07642999999999994  0.62515  0.70491  1.0000
  C   C73       1.0  0.4112900000000001  0.52217  0.74392  1.0000
  C   C74       1.0  0.38824999999999993  0.4810200000000001  0.79114  1.0000
  C   C75       1.0  0.4474600000000001  0.41919000000000006  0.78745  1.0000
  C   C76       1.0  0.52934  0.39647000000000004  0.73573  1.0000
  C   C77       1.0  0.55802  0.4377300000000001  0.68632  1.0000
  C   C78       1.0  0.64329  0.41872  0.63324  1.0000
  C   C79       1.0  0.6681099999999999  0.45997  0.58705  1.0000
  C   C80       1.0  0.60734  0.5221000000000001  0.59068  1.0000
  C   C81       1.0  0.52381  0.54242  0.64125  1.0000
  C   C82       1.0  0.4975500000000001  0.50199  0.69079  1.0000
  C   C83       1.0  0.33997  0.58603  0.7522500000000001  1.0000
  C   C84       1.0  0.581  0.32914  0.73451  1.0000
  C   C85       1.0  0.17290000000000008  0.0015300000000000001  0.71204  1.0000
  C   C86       1.0  0.2152499999999998  0.9778700000000001  0.7589900000000002  1.0000
  C   C87       1.0  0.27360999999999996  0.9160000000000001  0.75951  1.0000
  C   C88       1.0  0.28623999999999994  0.87528  0.71452  1.0000
  C   C89       1.0  0.2460699999999999  0.8972500000000002  0.66445  1.0000
  C   C90       1.0  0.2627900000000001  0.85763  0.61555  1.0000
  C   C91       1.0  0.22847000000000003  0.88024  0.56576  1.0000
  C   C92       1.0  0.17518999999999993  0.9434700000000003  0.56296  1.0000
  C   C93       1.0  0.15678999999999998  0.98332  0.60978  1.0000
  C   C94       1.0  0.1908699999999999  0.9619900000000001  0.66194  1.0000
  C   C95       1.0  0.1092900000000001  0.06796  0.71921  1.0000
  C   C96       1.0  0.3436000000000001  0.80931  0.72179  1.0000
  C   C97       1.0  0.20581  0.74982  0.9366300000000001  1.0000
  C   C98       1.0  0.14641  0.71505  0.97256  1.0000
  C   C99       1.0  0.08802  0.73161  0.03371  1.0000
  C   C100      1.0  0.08972999999999995  0.7832500000000001  0.05929  1.0000
  C   C101      1.0  0.14616999999999997  0.82191  0.02377  1.0000
  C   C102      1.0  0.14300999999999994  0.8771500000000001  0.04864  1.0000
  C   C103      1.0  0.19509999999999994  0.9152400000000003  0.01275  1.0000
  C   C104      1.0  0.2523699999999999  0.8996000000000001  0.9506899999999999  1.0000
  C   C105      1.0  0.2579100000000001  0.8458500000000001  0.9254  1.0000
  C   C106      1.0  0.20559999999999995  0.80525  0.96078  1.0000
  C   C107      1.0  0.26608000000000004  0.72591  0.8732  1.0000
  C   C108      1.0  0.03100999999999998  0.79637  0.1253  1.0000
  C   C109      1.0  0.67632  0.47793000000000013  0.25603  1.0000
  C   C110      1.0  0.6593  0.5192700000000001  0.20895000000000002  1.0000
  C   C111      1.0  0.65343  0.58101  0.21286  1.0000
  C   C112      1.0  0.6609200000000002  0.60356  0.26471  1.0000
  C   C113      1.0  0.6813699999999999  0.56207  0.31402  1.0000
  C   C114      1.0  0.6947100000000005  0.58081  0.36723  1.0000
  C   C115      1.0  0.7142500000000004  0.53937  0.41338  1.0000
  C   C116      1.0  0.7187399999999999  0.47734  0.40956000000000004  1.0000
  C   C117      1.0  0.70606  0.4572800000000001  0.35883  1.0000
  C   C118      1.0  0.6893500000000006  0.49788  0.3093  1.0000
  C   C119      1.0  0.67749  0.41403000000000006  0.24748000000000003  1.0000
  C   C120      1.0  0.6438400000000003  0.6709500000000002  0.26612  1.0000
  C   C121      1.0  0.88638  0.9989900000000002  0.28889  1.0000
  C   C122      1.0  0.95132  0.02266  0.2415  1.0000
  C   C123      1.0  0.9480300000000002  0.08459000000000001  0.24073000000000003  1.0000
  C   C124      1.0  0.8751199999999999  0.12523000000000004  0.28577  1.0000
  C   C125      1.0  0.8071200000000001  0.10335000000000001  0.33602  1.0000
  C   C126      1.0  0.7350200000000002  0.14317  0.38460999999999995  1.0000
  C   C127      1.0  0.67356  0.12064  0.43444  1.0000
  C   C128      1.0  0.6811600000000002  0.05732000000000001  0.43761  1.0000
  C   C129      1.0  0.74977  0.01728  0.39108000000000004  1.0000
  C   C130      1.0  0.8147000000000002  0.03853  0.3389  1.0000
  C   C131      1.0  0.8969500000000004  0.93245  0.28201  1.0000
  C   C132      1.0  0.87372  0.19113000000000002  0.27836  1.0000
  C   C133      1.0  0.88996  0.25092  0.06361  1.0000
  C   C134      1.0  0.83182  0.28555  0.02756  1.0000
  C   C135      1.0  0.8516  0.26901  0.96637  1.0000
  C   C136      1.0  0.9309700000000001  0.21754000000000004  0.9410599999999999  1.0000
  C   C137      1.0  0.9904900000000001  0.17901  0.97663  1.0000
  C   C138      1.0  0.06774000000000008  0.12393000000000001  0.9517499999999999  1.0000
  C   C139      1.0  0.12193999999999998  0.08596  0.98774  1.0000
  C   C140      1.0  0.10093999999999997  0.10155000000000002  0.04989999999999999  1.0000
  C   C141      1.0  0.027070000000000007  0.15513  0.0752  1.0000
  C   C142      1.0  0.9697200000000004  0.19566  0.03967  1.0000
  C   C143      1.0  0.8618900000000003  0.2747800000000001  0.12713  1.0000
  C   C144      1.0  0.9510900000000001  0.20418  0.87526  1.0000
  C   C145      1.0  0.90476  0.02211  0.7558599999999999  1.0000
  C   C146      1.0  0.9298900000000003  0.98081  0.70864  1.0000
  C   C147      1.0  0.9857400000000001  0.9191  0.71268  1.0000
  C   C148      1.0  0.015429999999999935  0.89653  0.76464  1.0000
  C   C149      1.0  0.9941099999999997  0.9380600000000002  0.8139500000000001  1.0000
  C   C150      1.0  0.026039999999999862  0.91939  0.8672200000000001  1.0000
  C   C151      1.0  0.003989999999999873  0.9608500000000002  0.9133600000000001  1.0000
  C   C152      1.0  0.9464  0.02285  0.90946  1.0000
  C   C153      1.0  0.9137299999999999  0.04284000000000001  0.8586900000000001  1.0000
  C   C154      1.0  0.9376599999999999  0.00222  0.80919  1.0000
  C   C155      1.0  0.8413500000000005  0.08584  0.7473499999999998  1.0000
  C   C156      1.0  0.06571999999999995  0.82911  0.76604  1.0000
  C   C157      1.0  0.6352200000000002  0.50143  0.78803  1.0000
  C   C158      1.0  0.72433  0.47782000000000013  0.74102  1.0000
  C   C159      1.0  0.7832700000000001  0.41594  0.7403900000000001  1.0000
  C   C160      1.0  0.75102  0.37513000000000013  0.78531  1.0000
  C   C161      1.0  0.6608500000000002  0.39699000000000007  0.83535  1.0000
  C   C162      1.0  0.6286399999999999  0.35715  0.884  1.0000
  C   C163      1.0  0.5447300000000005  0.37956  0.93386  1.0000
  C   C164      1.0  0.4888800000000004  0.44284  0.9369500000000001  1.0000
  C   C165      1.0  0.51732  0.48290000000000005  0.89033  1.0000
  C   C166      1.0  0.60327  0.46175  0.83805  1.0000
  C   C167      1.0  0.5788500000000003  0.56795  0.78098  1.0000
  C   C168      1.0  0.8156000000000005  0.30917  0.77822  1.0000
  C   C169      1.0  0.8909800000000004  0.24937000000000004  0.56355  1.0000
  C   C170      1.0  0.86793  0.21466  0.52733  1.0000
  C   C171      1.0  0.87111  0.23139000000000007  0.4661600000000001  1.0000
  C   C172      1.0  0.8984500000000002  0.2831  0.44095  1.0000
  C   C173      1.0  0.9192499999999999  0.3216300000000001  0.4766500000000001  1.0000
  C   C174      1.0  0.9413800000000003  0.37681  0.45194  1.0000
  C   C175      1.0  0.95751  0.4147000000000001  0.48809  1.0000
  C   C176      1.0  0.9521399999999998  0.39889  0.55022  1.0000
  C   C177      1.0  0.9319600000000002  0.3452  0.57535  1.0000
  C   C178      1.0  0.91513  0.3048  0.53971  1.0000
  C   C179      1.0  0.8866500000000005  0.22539  0.62708  1.0000
  C   C180      1.0  0.9052899999999999  0.29635  0.37506  1.0000
  C   C181      1.0  0.6826099999999999  0.9779400000000001  0.24453  1.0000
  C   C182      1.0  0.61886  0.01907  0.29183  1.0000
  C   C183      1.0  0.6165600000000002  0.08088000000000001  0.28794  1.0000
  C   C184      1.0  0.67533  0.10362  0.23601000000000003  1.0000
  C   C185      1.0  0.74514  0.06233  0.18665  1.0000
  C   C186      1.0  0.8113000000000002  0.08129000000000002  0.13341  1.0000
  C   C187      1.0  0.87717  0.03996  0.08729  1.0000
  C   C188      1.0  0.87841  0.97782  0.09115  1.0000
  C   C189      1.0  0.81527  0.9576000000000002  0.14185  1.0000
  C   C190      1.0  0.7487500000000001  0.99808  0.19133  1.0000
  C   C191      1.0  0.6749  0.9141  0.25272  1.0000
  C   C192      1.0  0.65918  0.17102000000000006  0.23455000000000004  1.0000
  C   C193      1.0  0.9248300000000004  0.49891000000000013  0.21233  1.0000
  C   C194      1.0  0.94251  0.52272  0.25959  1.0000
  C   C195      1.0  0.9385499999999999  0.5846800000000001  0.26014  1.0000
  C   C196      1.0  0.9108500000000002  0.62526  0.21495000000000003  1.0000
  C   C197      1.0  0.8929400000000001  0.6032600000000001  0.1648  1.0000
  C   C198      1.0  0.8701200000000001  0.64292  0.11588000000000001  1.0000
  C   C199      1.0  0.85862  0.62031  0.06604  1.0000
  C   C200      1.0  0.8684600000000001  0.55707  0.06332  1.0000
  C   C201      1.0  0.8898200000000004  0.51719  0.11018  1.0000
  C   C202      1.0  0.90288  0.5384500000000001  0.16226  1.0000
  C   C203      1.0  0.9289700000000001  0.4322500000000001  0.21919000000000002  1.0000
  C   C204      1.0  0.9024100000000005  0.69117  0.22208  1.0000
  C   C205      1.0  0.7035900000000002  0.7509100000000001  0.43701  1.0000
  C   C206      1.0  0.60936  0.7855400000000001  0.47292  1.0000
  C   C207      1.0  0.5680800000000004  0.76922  0.53424  1.0000
  C   C208      1.0  0.62197  0.71781  0.5598  1.0000
  C   C209      1.0  0.7169  0.6791600000000001  0.52434  1.0000
  C   C210      1.0  0.76914  0.6240100000000001  0.5493  1.0000
  C   C211      1.0  0.8591800000000004  0.5859200000000001  0.51336  1.0000
  C   C212      1.0  0.9004099999999999  0.60155  0.45121  1.0000
  C   C213      1.0  0.8519100000000002  0.6551300000000001  0.42582000000000003  1.0000
  C   C214      1.0  0.75918  0.6957200000000001  0.46125  1.0000
  C   C215      1.0  0.7393499999999998  0.7746300000000002  0.3734  1.0000
  C   C216      1.0  0.57668  0.70456  0.6257  1.0000
  C   C217      1.0  0.9104400000000001  0.74371  0.52283  1.0000
  C   C218      1.0  0.8874399999999998  0.7908500000000003  0.48162000000000005  1.0000
  C   C219      1.0  0.94682  0.78724  0.41979  1.0000
  C   C220      1.0  0.02888000000000004  0.73558  0.39701  1.0000
  C   C221      1.0  0.05745000000000007  0.6862  0.43838000000000005  1.0000
  C   C222      1.0  0.14277999999999993  0.6331300000000001  0.41946  1.0000
  C   C223      1.0  0.16759999999999994  0.58696  0.46076000000000006  1.0000
  C   C224      1.0  0.10679999999999996  0.5906  0.52288  1.0000
  C   C225      1.0  0.02318000000000004  0.64113  0.54312  1.0000
  C   C226      1.0  0.9968600000000002  0.69064  0.50265  1.0000
  C   C227      1.0  0.8393799999999998  0.7521400000000001  0.58682  1.0000
  C   C228      1.0  0.08079999999999998  0.73444  0.32959  1.0000
  C   C229      1.0  0.67256  0.71203  0.00246  1.0000
  C   C230      1.0  0.7148599999999999  0.7589900000000003  0.9788900000000001  1.0000
  C   C231      1.0  0.7727600000000003  0.75974  0.91696  1.0000
  C   C232      1.0  0.78527  0.7148  0.87624  1.0000
  C   C233      1.0  0.7454600000000002  0.66461  0.8981800000000001  1.0000
  C   C234      1.0  0.7623200000000001  0.61577  0.85849  1.0000
  C   C235      1.0  0.7279600000000002  0.566  0.88097  1.0000
  C   C236      1.0  0.6744700000000001  0.56318  0.94418  1.0000
  C   C237      1.0  0.6562  0.60986  0.98415  1.0000
  C   C238      1.0  0.6903999999999999  0.6619900000000001  0.96293  1.0000
  C   C239      1.0  0.60867  0.71925  0.06878  1.0000
  C   C240      1.0  0.84305  0.7220400000000002  0.81036  1.0000
  C   C241      1.0  0.70547  0.93641  0.75045  1.0000
  C   C242      1.0  0.64577  0.9721200000000001  0.71572  1.0000
  C   C243      1.0  0.5874  0.03327  0.73219  1.0000
  C   C244      1.0  0.5893800000000002  0.05899  0.7836700000000001  1.0000
  C   C245      1.0  0.6459500000000002  0.02369  0.82236  1.0000
  C   C246      1.0  0.6429000000000002  0.0486  0.8775600000000001  1.0000
  C   C247      1.0  0.6952400000000002  0.01277  0.9155800000000001  1.0000
  C   C248      1.0  0.7528100000000001  0.9507800000000001  0.89987  1.0000
  C   C249      1.0  0.7581499999999999  0.9254300000000001  0.84621  1.0000
  C   C250      1.0  0.70547  0.96072  0.8057299999999998  1.0000
  C   C251      1.0  0.7660100000000003  0.87299  0.72678  1.0000
  C   C252      1.0  0.53073  0.12505  0.7961999999999999  1.0000
  C   C253      1.0  0.17575000000000005  0.25595  0.47792  1.0000
  C   C254      1.0  0.15900999999999998  0.20879000000000003  0.51917  1.0000
  C   C255      1.0  0.1532100000000001  0.21258000000000002  0.58093  1.0000
  C   C256      1.0  0.1607399999999999  0.26434  0.60358  1.0000
  C   C257      1.0  0.18117  0.31371  0.56216  1.0000
  C   C258      1.0  0.19457999999999995  0.36685000000000006  0.58097  1.0000
  C   C259      1.0  0.21408000000000005  0.41305  0.53959  1.0000
  C   C260      1.0  0.21849999999999994  0.40934  0.47754  1.0000
  C   C261      1.0  0.2057199999999999  0.35868000000000005  0.45742000000000005  1.0000
  C   C262      1.0  0.1889399999999999  0.30913  0.49795  1.0000
  C   C263      1.0  0.17668  0.24736000000000002  0.41405  1.0000
  C   C264      1.0  0.1437499999999999  0.26559000000000005  0.671  1.0000
  C   C265      1.0  0.38655000000000006  0.28841000000000006  0.99891  1.0000
  C   C266      1.0  0.45193999999999995  0.24106000000000002  0.02234  1.0000
  C   C267      1.0  0.44897000000000004  0.24002000000000007  0.08426  1.0000
  C   C268      1.0  0.37594  0.28478  0.12515  1.0000
  C   C269      1.0  0.30775000000000013  0.33511  0.10353  1.0000
  C   C270      1.0  0.23599000000000003  0.38359  0.14364  1.0000
  C   C271      1.0  0.17427999999999996  0.43356000000000006  0.12144  1.0000
  C   C272      1.0  0.18124  0.43691  0.05818999999999999  1.0000
  C   C273      1.0  0.24956  0.39049  0.01789  1.0000
  C   C274      1.0  0.31486000000000003  0.33822  0.03875  1.0000
  C   C275      1.0  0.3969100000000002  0.28177  0.93229  1.0000
  C   C276      1.0  0.37476  0.2772200000000001  0.19103000000000003  1.0000
  C   C277      1.0  0.39020999999999995  0.06315  0.25049  1.0000
  C   C278      1.0  0.3316600000000001  0.027330000000000004  0.2851  1.0000
  C   C279      1.0  0.35115  0.96612  0.26873  1.0000
  C   C280      1.0  0.43050000000000005  0.94051  0.21734  1.0000
  C   C281      1.0  0.49046  0.9758300000000001  0.1788  1.0000
  C   C282      1.0  0.56784  0.9507100000000002  0.12383  1.0000
  C   C283      1.0  0.62246  0.98647  0.08585  1.0000
  C   C284      1.0  0.60184  0.04861  0.10132000000000001  1.0000
  C   C285      1.0  0.5278800000000002  0.07412  0.15479  1.0000
  C   C286      1.0  0.47006000000000003  0.03888  0.19533  1.0000
  C   C287      1.0  0.36265000000000003  0.1266  0.27448  1.0000
  C   C288      1.0  0.45075999999999994  0.87455  0.20449  1.0000
  O   O1        1.0  0.3501899999999999  0.7688300000000002  0.13433  1.0000
  O   O2        1.0  0.27663000000000004  0.71988  0.09458000000000001  1.0000
  O   O3        1.0  0.5777000000000004  0.72031  0.79487  1.0000
  O   O4        1.0  0.5960200000000002  0.8110000000000002  0.8025200000000001  1.0000
  O   O5        1.0  0.9959100000000001  0.82109  0.59744  1.0000
  O   O6        1.0  0.11405999999999993  0.73163  0.59693  1.0000
  O   O7        1.0  0.2774299999999999  0.7795600000000003  0.26555  1.0000
  O   O8        1.0  0.4082799999999999  0.7684200000000002  0.29853  1.0000
  O   O9        1.0  0.3264400000000001  0.6508  0.19445000000000004  1.0000
  O   O10       1.0  0.44139000000000006  0.65483  0.23669  1.0000
  O   O11       1.0  0.32794  0.35766000000000003  0.30862  1.0000
  O   O12       1.0  0.4915199999999999  0.3339  0.29251  1.0000
  O   O13       1.0  0.25379999999999997  0.23133  0.86615  1.0000
  O   O14       1.0  0.09117999999999997  0.27963  0.90546  1.0000
  O   O15       1.0  0.09163  0.27993000000000007  0.20559  1.0000
  O   O16       1.0  0.20867  0.18946  0.19792999999999997  1.0000
  O   O17       1.0  0.41373  0.17934000000000003  0.40356  1.0000
  O   O18       1.0  0.44477  0.26801  0.40345000000000003  1.0000
  O   O19       1.0  0.32168000000000024  0.22046  0.73504  1.0000
  O   O20       1.0  0.47409999999999997  0.23181000000000002  0.70285  1.0000
  O   O21       1.0  0.17131999999999997  0.34874  0.80578  1.0000
  O   O22       1.0  0.33248  0.3452  0.7655700000000001  1.0000
  O   O23       1.0  0.9952199999999999  0.64197  0.69228  1.0000
  O   O24       1.0  0.1185900000000001  0.66603  0.70839  1.0000
  O   O25       1.0  0.37063999999999986  0.63401  0.73036  1.0000
  O   O26       1.0  0.24798999999999996  0.5946000000000001  0.7800000000000001  1.0000
  O   O27       1.0  0.5470200000000004  0.29453  0.78027  1.0000
  O   O28       1.0  0.65889  0.30255  0.69113  1.0000
  O   O29       1.0  0.06590999999999995  0.09678  0.67948  1.0000
  O   O30       1.0  0.09616000000000006  0.09632000000000002  0.76846  1.0000
  O   O31       1.0  0.30637000000000003  0.76548  0.72053  1.0000
  O   O32       1.0  0.4272300000000001  0.7974500000000001  0.7314  1.0000
  O   O33       1.0  0.22977999999999998  0.69404  0.84895  1.0000
  O   O34       1.0  0.3497100000000002  0.7350800000000001  0.84554  1.0000
  O   O35       1.0  0.9372500000000001  0.80835  0.14228  1.0000
  O   O36       1.0  0.07679999999999997  0.79367  0.166  1.0000
  O   O37       1.0  0.73541  0.36608  0.26868  1.0000
  O   O38       1.0  0.6210499999999999  0.4053900000000001  0.22036  1.0000
  O   O39       1.0  0.62231  0.70546  0.21994000000000002  1.0000
  O   O40       1.0  0.65025  0.69769  0.31  1.0000
  O   O41       1.0  0.8453399999999998  0.9028700000000002  0.3227  1.0000
  O   O42       1.0  0.9593899999999999  0.9049000000000001  0.23187  1.0000
  O   O43       1.0  0.7913500000000003  0.23488  0.2798  1.0000
  O   O44       1.0  0.9551699999999999  0.20297  0.26849  1.0000
  O   O45       1.0  0.7690100000000001  0.30578000000000005  0.15106  1.0000
  O   O46       1.0  0.92678  0.26622  0.15494  1.0000
  O   O47       1.0  0.8863  0.19154000000000004  0.85885  1.0000
  O   O48       1.0  0.03416000000000002  0.20737  0.83416  1.0000
  O   O49       1.0  0.8502100000000004  0.13398  0.769  1.0000
  O   O50       1.0  0.7768  0.09433  0.71988  1.0000
  O   O51       1.0  0.07764000000000007  0.79449  0.72024  1.0000
  O   O52       1.0  0.09992999999999991  0.8024900000000001  0.8096100000000002  1.0000
  O   O53       1.0  0.49584999999999996  0.59675  0.82075  1.0000
  O   O54       1.0  0.6149899999999999  0.5964300000000001  0.73183  1.0000
  O   O55       1.0  0.7773600000000002  0.26519  0.77965  1.0000
  O   O56       1.0  0.90883  0.29739000000000004  0.76869  1.0000
  O   O57       1.0  0.8252800000000001  0.19399000000000002  0.6507  1.0000
  O   O58       1.0  0.9420800000000001  0.23430000000000004  0.65536  1.0000
  O   O59       1.0  0.8281400000000004  0.30865  0.3584  1.0000
  O   O60       1.0  0.99165  0.29317  0.33412  1.0000
  O   O61       1.0  0.75383  0.8660900000000001  0.23135  1.0000
  O   O62       1.0  0.5912800000000001  0.9055300000000001  0.27974  1.0000
  O   O63       1.0  0.59099  0.20556000000000002  0.2804  1.0000
  O   O64       1.0  0.70975  0.19778  0.19088  1.0000
  O   O65       1.0  0.91408  0.40356  0.17949  1.0000
  O   O66       1.0  0.9456999999999999  0.40357  0.26799  1.0000
  O   O67       1.0  0.8216100000000001  0.73499  0.22056  1.0000
  O   O68       1.0  0.9741699999999999  0.7029900000000001  0.23181  1.0000
  O   O69       1.0  0.67069  0.8059300000000001  0.34932  1.0000
  O   O70       1.0  0.8320200000000001  0.76577  0.34551  1.0000
  O   O71       1.0  0.49552000000000007  0.6918700000000001  0.64248  1.0000
  O   O72       1.0  0.6189899999999999  0.70799  0.66651  1.0000
  O   O73       1.0  0.87058  0.73004  0.63455  1.0000
  O   O74       1.0  0.74731  0.7801  0.59579  1.0000
  O   O75       1.0  0.04687999999999997  0.7802100000000001  0.29493  1.0000
  O   O76       1.0  0.15881999999999993  0.69114  0.30293  1.0000
  O   O77       1.0  0.5653800000000002  0.6794400000000002  0.09742  1.0000
  O   O78       1.0  0.5952500000000001  0.7685300000000002  0.09712000000000001  1.0000
  O   O79       1.0  0.8063400000000001  0.72104  0.76613  1.0000
  O   O80       1.0  0.9267700000000001  0.7313300000000001  0.799  1.0000
  O   O81       1.0  0.7306200000000003  0.8487000000000001  0.69436  1.0000
  O   O82       1.0  0.8491000000000001  0.84531  0.7367  1.0000
  O   O83       1.0  0.4369399999999999  0.14198000000000002  0.80855  1.0000
  O   O84       1.0  0.5767099999999995  0.16587  0.7922200000000001  1.0000
  O   O85       1.0  0.23412000000000002  0.26876  0.36605  1.0000
  O   O86       1.0  0.1205700000000001  0.21993  0.40547  1.0000
  O   O87       1.0  0.12220000000000003  0.21946  0.70551  1.0000
  O   O88       1.0  0.15032999999999994  0.30938  0.69775  1.0000
  O   O89       1.0  0.34503999999999996  0.32253000000000004  0.90293  1.0000
  O   O90       1.0  0.45954000000000006  0.23178  0.90444  1.0000
  O   O91       1.0  0.29296  0.27751  0.23485  1.0000
  O   O92       1.0  0.45591000000000004  0.26835  0.20287  1.0000
  O   O93       1.0  0.26993  0.15061000000000002  0.3058  1.0000
  O   O94       1.0  0.42758000000000007  0.15436  0.26581  1.0000
  O   O95       1.0  0.38639  0.8576  0.19196  1.0000
  O   O96       1.0  0.53372  0.8338000000000002  0.20825  1.0000
