data_image0
_chemical_formula_structural       Si16Ag8H256C224N32
_chemical_formula_sum              "Si16 Ag8 H256 C224 N32"
_cell_length_a       18.24365
_cell_length_b       17.8149
_cell_length_c       20.520179999999996
_cell_angle_alpha    90.00045
_cell_angle_beta     90.00273
_cell_angle_gamma    90.00315

_symmetry_space_group_name_H-M    'P 1'
_symmetry_Int_Tables_number       1

loop_
  _symmetry_equiv_pos_as_xyz
  'x,y,z'

loop_
  _atom_site_type_symbol
  _atom_site_label
  _atom_site_symmetry_multiplicity
  _atom_site_fract_x
  _atom_site_fract_y
  _atom_site_fract_z
  _atom_site_occupancy
  Si  Si1       1.0  0.5434599999999998  0.83001  0.63106  1.0000
  Si  Si2       1.0  0.03214  0.67455  0.93384  1.0000
  Si  Si3       1.0  0.9566099999999998  0.16999  0.13106  1.0000
  Si  Si4       1.0  0.4678  0.32542  0.43388  1.0000
  Si  Si5       1.0  0.45655  0.32997  0.86893  1.0000
  Si  Si6       1.0  0.9678599999999999  0.17455  0.56615  1.0000
  Si  Si7       1.0  0.04338999999999999  0.67003  0.36893  1.0000
  Si  Si8       1.0  0.53222  0.82544  0.06613  1.0000
  Si  Si9       1.0  0.37733999999999995  0.011680000000000001  0.8667700000000002  1.0000
  Si  Si10      1.0  0.04309  0.51246  0.65053  1.0000
  Si  Si11      1.0  0.12263999999999999  0.9883  0.36676  1.0000
  Si  Si12      1.0  0.45697999999999994  0.48751  0.15057  1.0000
  Si  Si13      1.0  0.6226599999999998  0.51168  0.63322  1.0000
  Si  Si14      1.0  0.9568899999999999  0.01243  0.8494700000000001  1.0000
  Si  Si15      1.0  0.8773499999999999  0.4883  0.13321  1.0000
  Si  Si16      1.0  0.54302  0.98755  0.34942  1.0000
  Ag  Ag1       1.0  0.1629  0.85537  0.65165  1.0000
  Ag  Ag2       1.0  0.3371499999999999  0.14455  0.15171  1.0000
  Ag  Ag3       1.0  0.8370799999999999  0.35536  0.84831  1.0000
  Ag  Ag4       1.0  0.6628299999999998  0.64463  0.34835  1.0000
  Ag  Ag5       1.0  0.33537  0.61665  0.84884  1.0000
  Ag  Ag6       1.0  0.16462999999999994  0.38333000000000006  0.34879  1.0000
  Ag  Ag7       1.0  0.6645999999999999  0.11667  0.65119  1.0000
  Ag  Ag8       1.0  0.8353099999999998  0.88331  0.1512  1.0000
  H   H1        1.0  0.30057999999999996  0.96591  0.63102  1.0000
  H   H2        1.0  0.43571  0.9615499999999999  0.62715  1.0000
  H   H3        1.0  0.4196299999999999  0.71903  0.63999  1.0000
  H   H4        1.0  0.28563  0.7337  0.64384  1.0000
  H   H5        1.0  0.50474  0.70736  0.41179999999999994  1.0000
  H   H6        1.0  0.46283  0.7535100000000001  0.51884  1.0000
  H   H7        1.0  0.68496  0.828  0.55481  1.0000
  H   H8        1.0  0.71805  0.77764  0.44694  1.0000
  H   H9        1.0  0.53667  0.73345  0.72231  1.0000
  H   H10       1.0  0.62242  0.73257  0.68302  1.0000
  H   H11       1.0  0.5638499999999999  0.85285  0.77749  1.0000
  H   H12       1.0  0.647  0.80311  0.7848  1.0000
  H   H13       1.0  0.69754  0.86867  0.68822  1.0000
  H   H14       1.0  0.66403  0.93798  0.74165  1.0000
  H   H15       1.0  0.6229899999999998  0.9459799999999999  0.61526  1.0000
  H   H16       1.0  0.5557  0.9593500000000001  0.67527  1.0000
  H   H17       1.0  0.03558999999999999  0.75276  0.69863  1.0000
  H   H18       1.0  0.98303  0.68828  0.79482  1.0000
  H   H19       1.0  0.17078  0.76571  0.90475  1.0000
  H   H20       1.0  0.21554  0.82645  0.8041099999999999  1.0000
  H   H21       1.0  0.8100999999999998  0.53041  0.85848  1.0000
  H   H22       1.0  0.8732499999999999  0.6446  0.8967700000000001  1.0000
  H   H23       1.0  0.07382999999999998  0.51433  0.90382  1.0000
  H   H24       1.0  0.0018800000000000002  0.40519  0.8669000000000001  1.0000
  H   H25       1.0  0.96361  0.79354  0.9660599999999999  1.0000
  H   H26       1.0  0.9204899999999999  0.71162  0.9952700000000001  1.0000
  H   H27       1.0  0.9813099999999999  0.75396  0.0934  1.0000
  H   H28       1.0  0.057629999999999994  0.78779  0.04928  1.0000
  H   H29       1.0  0.0187  0.62264  0.0715  1.0000
  H   H30       1.0  0.09500999999999998  0.66955  0.105  1.0000
  H   H31       1.0  0.12036999999999999  0.59063  0.9962000000000001  1.0000
  H   H32       1.0  0.15103  0.68455  0.9946999999999999  1.0000
  H   H33       1.0  0.19945999999999994  0.03404  0.13102  1.0000
  H   H34       1.0  0.06432  0.03845  0.12715  1.0000
  H   H35       1.0  0.08046  0.28097  0.14002  1.0000
  H   H36       1.0  0.21447  0.26627  0.14387  1.0000
  H   H37       1.0  0.99521  0.29271  0.91181  1.0000
  H   H38       1.0  0.03718  0.24652  0.01883  1.0000
  H   H39       1.0  0.8150699999999999  0.17202  0.05484  1.0000
  H   H40       1.0  0.7819299999999999  0.22242000000000003  0.9470099999999999  1.0000
  H   H41       1.0  0.96336  0.2665  0.22237000000000004  1.0000
  H   H42       1.0  0.87765  0.26743  0.18301  1.0000
  H   H43       1.0  0.93608  0.14709  0.2775  1.0000
  H   H44       1.0  0.85296  0.19687  0.28476  1.0000
  H   H45       1.0  0.8024599999999997  0.13132  0.18813  1.0000
  H   H46       1.0  0.8359499999999999  0.062000000000000006  0.24156000000000002  1.0000
  H   H47       1.0  0.87711  0.054  0.11522999999999999  1.0000
  H   H48       1.0  0.94434  0.04067  0.17529  1.0000
  H   H49       1.0  0.4643699999999999  0.24727  0.19869  1.0000
  H   H50       1.0  0.51688  0.31175  0.29488  1.0000
  H   H51       1.0  0.32917999999999986  0.23421  0.4047799999999999  1.0000
  H   H52       1.0  0.28442  0.17347  0.30411  1.0000
  H   H53       1.0  0.6897899999999999  0.46960999999999997  0.3585  1.0000
  H   H54       1.0  0.62667  0.35541  0.39677999999999997  1.0000
  H   H55       1.0  0.42606  0.4856500000000001  0.40387  1.0000
  H   H56       1.0  0.49798999999999993  0.5948  0.36696  1.0000
  H   H57       1.0  0.53637  0.20645  0.46607000000000004  1.0000
  H   H58       1.0  0.5794799999999999  0.28838  0.49526000000000003  1.0000
  H   H59       1.0  0.5187399999999999  0.24600999999999998  0.59342  1.0000
  H   H60       1.0  0.44238  0.21219  0.54932  1.0000
  H   H61       1.0  0.48132  0.37734  0.57153  1.0000
  H   H62       1.0  0.40504  0.3304  0.60506  1.0000
  H   H63       1.0  0.3795599999999999  0.40931  0.49628  1.0000
  H   H64       1.0  0.34893999999999986  0.31537  0.49479999999999996  1.0000
  H   H65       1.0  0.69943  0.46587000000000006  0.869  1.0000
  H   H66       1.0  0.56429  0.46149000000000007  0.87285  1.0000
  H   H67       1.0  0.58038  0.21897  0.86  1.0000
  H   H68       1.0  0.71438  0.23365999999999998  0.85618  1.0000
  H   H69       1.0  0.49524  0.20737  0.08822000000000002  1.0000
  H   H70       1.0  0.53716  0.25347  0.9811600000000001  1.0000
  H   H71       1.0  0.31504  0.32797  0.94518  1.0000
  H   H72       1.0  0.28195  0.27765  0.05305  1.0000
  H   H73       1.0  0.46332999999999996  0.23344  0.77766  1.0000
  H   H74       1.0  0.37759  0.23252  0.81697  1.0000
  H   H75       1.0  0.4361299999999999  0.35284  0.72251  1.0000
  H   H76       1.0  0.35298  0.30309  0.7152  1.0000
  H   H77       1.0  0.30247  0.36865  0.8118  1.0000
  H   H78       1.0  0.33598  0.43796  0.75837  1.0000
  H   H79       1.0  0.37705  0.44595  0.88474  1.0000
  H   H80       1.0  0.44432999999999995  0.45932000000000006  0.82473  1.0000
  H   H81       1.0  0.9644299999999999  0.25273  0.80136  1.0000
  H   H82       1.0  0.01697  0.18825000000000003  0.70517  1.0000
  H   H83       1.0  0.8292299999999998  0.26569  0.59525  1.0000
  H   H84       1.0  0.7844699999999999  0.32643  0.6959  1.0000
  H   H85       1.0  0.18989999999999996  0.03043  0.6415  1.0000
  H   H86       1.0  0.12673999999999996  0.14462  0.60322  1.0000
  H   H87       1.0  0.9261599999999999  0.01431  0.5962  1.0000
  H   H88       1.0  0.9981199999999999  0.9051900000000002  0.63312  1.0000
  H   H89       1.0  0.03639  0.29354  0.53395  1.0000
  H   H90       1.0  0.07950999999999998  0.21163  0.50475  1.0000
  H   H91       1.0  0.01869  0.25398  0.40661  1.0000
  H   H92       1.0  0.9423599999999999  0.28778  0.45074  1.0000
  H   H93       1.0  0.98129  0.12264  0.42849  1.0000
  H   H94       1.0  0.9049999999999998  0.16956  0.3950000000000001  1.0000
  H   H95       1.0  0.8796199999999998  0.09062  0.5038  1.0000
  H   H96       1.0  0.84896  0.18454  0.50528  1.0000
  H   H97       1.0  0.8005399999999998  0.53408  0.36898  1.0000
  H   H98       1.0  0.9356799999999998  0.5385  0.37285  1.0000
  H   H99       1.0  0.9195399999999999  0.78102  0.35997  1.0000
  H   H100      1.0  0.78554  0.7663  0.35612  1.0000
  H   H101      1.0  0.004809999999999999  0.79272  0.5882  1.0000
  H   H102      1.0  0.9628299999999999  0.74657  0.48117  1.0000
  H   H103      1.0  0.18494  0.67205  0.44516  1.0000
  H   H104      1.0  0.21806999999999996  0.72242  0.55301  1.0000
  H   H105      1.0  0.03666  0.76653  0.27762  1.0000
  H   H106      1.0  0.12236999999999998  0.76747  0.31698  1.0000
  H   H107      1.0  0.06393  0.64712  0.22250000000000003  1.0000
  H   H108      1.0  0.14707  0.69688  0.21524  1.0000
  H   H109      1.0  0.19753  0.63134  0.31189  1.0000
  H   H110      1.0  0.16403999999999996  0.56203  0.25845  1.0000
  H   H111      1.0  0.12287  0.55403  0.38478  1.0000
  H   H112      1.0  0.05563  0.54071  0.3247  1.0000
  H   H113      1.0  0.5356399999999999  0.74728  0.30132  1.0000
  H   H114      1.0  0.48314  0.81178  0.20513  1.0000
  H   H115      1.0  0.6708299999999999  0.73423  0.09523  1.0000
  H   H116      1.0  0.71557  0.67348  0.19589  1.0000
  H   H117      1.0  0.31022999999999995  0.96961  0.14149  1.0000
  H   H118      1.0  0.37337  0.85541  0.10323  1.0000
  H   H119      1.0  0.57396  0.9856899999999998  0.09615  1.0000
  H   H120      1.0  0.5020199999999999  0.09483  0.13307  1.0000
  H   H121      1.0  0.46362999999999993  0.70647  0.03395  1.0000
  H   H122      1.0  0.4205299999999999  0.78841  0.00478  1.0000
  H   H123      1.0  0.48124999999999996  0.74602  0.90661  1.0000
  H   H124      1.0  0.55761  0.71221  0.9506999999999999  1.0000
  H   H125      1.0  0.5187  0.87736  0.92847  1.0000
  H   H126      1.0  0.5949599999999999  0.8304  0.89495  1.0000
  H   H127      1.0  0.62047  0.90933  0.0037300000000000002  1.0000
  H   H128      1.0  0.6510699999999999  0.81538  0.00519  1.0000
  H   H129      1.0  0.2975  0.75627  0.9440499999999998  1.0000
  H   H130      1.0  0.31373999999999996  0.89392  0.9553300000000001  1.0000
  H   H131      1.0  0.4207499999999999  0.89152  0.76671  1.0000
  H   H132      1.0  0.4009899999999999  0.7538  0.76457  1.0000
  H   H133      1.0  0.48499999999999993  0.13636  0.66714  1.0000
  H   H134      1.0  0.38248  0.08689  0.73285  1.0000
  H   H135      1.0  0.5429999999999999  0.01225  0.8744  1.0000
  H   H136      1.0  0.63922  0.061360000000000005  0.80087  1.0000
  H   H137      1.0  0.27943  0.09021  0.80749  1.0000
  H   H138      1.0  0.24288  0.01429  0.8518  1.0000
  H   H139      1.0  0.30367  0.16157  0.90871  1.0000
  H   H140      1.0  0.21694  0.12123  0.92386  1.0000
  H   H141      1.0  0.27633  0.015350000000000003  0.9832200000000001  1.0000
  H   H142      1.0  0.30778  0.10023  0.01788  1.0000
  H   H143      1.0  0.41293999999999986  0.00336  0.98799  1.0000
  H   H144      1.0  0.4231  0.09448  0.95501  1.0000
  H   H145      1.0  0.21808  0.48013  0.8390000000000001  1.0000
  H   H146      1.0  0.11604  0.43923  0.76769  1.0000
  H   H147      1.0  0.14488  0.64566  0.65898  1.0000
  H   H148      1.0  0.24387999999999999  0.6784800000000001  0.7360900000000001  1.0000
  H   H149      1.0  0.02225  0.40361  0.42697  1.0000
  H   H150      1.0  0.97351  0.45165  0.53095  1.0000
  H   H151      1.0  0.19668  0.50253  0.58737  1.0000
  H   H152      1.0  0.23648999999999995  0.45185000000000003  0.48041  1.0000
  H   H153      1.0  0.9941399999999999  0.64605  0.65189  1.0000
  H   H154      1.0  0.95004  0.59017  0.593  1.0000
  H   H155      1.0  0.93126  0.57746  0.74207  1.0000
  H   H156      1.0  0.8608099999999997  0.59481  0.68513  1.0000
  H   H157      1.0  0.87698  0.467  0.63852  1.0000
  H   H158      1.0  0.8661  0.45708  0.72363  1.0000
  H   H159      1.0  0.9796199999999999  0.38582  0.66525  1.0000
  H   H160      1.0  0.99434  0.43207  0.73988  1.0000
  H   H161      1.0  0.20244  0.24371  0.44406  1.0000
  H   H162      1.0  0.18622  0.10606  0.45532  1.0000
  H   H163      1.0  0.07920999999999999  0.10844  0.26671  1.0000
  H   H164      1.0  0.09894999999999997  0.24617  0.26457  1.0000
  H   H165      1.0  0.014989999999999998  0.86366  0.16711  1.0000
  H   H166      1.0  0.11749999999999998  0.9131000000000001  0.23283  1.0000
  H   H167      1.0  0.95699  0.9877  0.37442  1.0000
  H   H168      1.0  0.86076  0.9386200000000001  0.30087  1.0000
  H   H169      1.0  0.22054  0.90976  0.3075  1.0000
  H   H170      1.0  0.2571  0.9856799999999999  0.35181  1.0000
  H   H171      1.0  0.19629  0.83841  0.40872  1.0000
  H   H172      1.0  0.28302  0.87873  0.42387  1.0000
  H   H173      1.0  0.22366  0.9846300000000001  0.48322  1.0000
  H   H174      1.0  0.1922  0.8997700000000001  0.51789  1.0000
  H   H175      1.0  0.08705999999999998  0.99664  0.48799  1.0000
  H   H176      1.0  0.07685999999999998  0.90552  0.4550100000000001  1.0000
  H   H177      1.0  0.28197  0.51986  0.339  1.0000
  H   H178      1.0  0.3840299999999999  0.56075  0.26773  1.0000
  H   H179      1.0  0.35517999999999994  0.35434  0.159  1.0000
  H   H180      1.0  0.25618  0.32152  0.23608  1.0000
  H   H181      1.0  0.47787  0.59634  0.92702  1.0000
  H   H182      1.0  0.5265699999999999  0.5483100000000001  0.031  1.0000
  H   H183      1.0  0.30339  0.49746  0.08738  1.0000
  H   H184      1.0  0.2635899999999999  0.54814  0.98042  1.0000
  H   H185      1.0  0.50593  0.35392  0.15193  1.0000
  H   H186      1.0  0.55002  0.40982  0.09304  1.0000
  H   H187      1.0  0.5687999999999999  0.42252  0.24212000000000003  1.0000
  H   H188      1.0  0.6392599999999998  0.40515000000000007  0.18519  1.0000
  H   H189      1.0  0.62309  0.53296  0.13857  1.0000
  H   H190      1.0  0.63397  0.54289  0.22368  1.0000
  H   H191      1.0  0.52044  0.61413  0.16524  1.0000
  H   H192      1.0  0.50574  0.56794  0.23990000000000003  1.0000
  H   H193      1.0  0.7025299999999998  0.25629  0.55593  1.0000
  H   H194      1.0  0.6862799999999999  0.39394  0.54467  1.0000
  H   H195      1.0  0.57926  0.39155  0.73327  1.0000
  H   H196      1.0  0.59903  0.25383  0.73544  1.0000
  H   H197      1.0  0.51498  0.63637  0.83283  1.0000
  H   H198      1.0  0.61751  0.58694  0.76712  1.0000
  H   H199      1.0  0.45697999999999994  0.51223  0.62558  1.0000
  H   H200      1.0  0.36077  0.56133  0.69912  1.0000
  H   H201      1.0  0.7205399999999998  0.59028  0.69248  1.0000
  H   H202      1.0  0.75711  0.51435  0.64821  1.0000
  H   H203      1.0  0.6963199999999998  0.66161  0.59126  1.0000
  H   H204      1.0  0.7830399999999998  0.62127  0.57612  1.0000
  H   H205      1.0  0.72366  0.51538  0.51677  1.0000
  H   H206      1.0  0.69222  0.60024  0.4820900000000001  1.0000
  H   H207      1.0  0.58706  0.50338  0.51198  1.0000
  H   H208      1.0  0.5768999999999997  0.5945000000000001  0.54497  1.0000
  H   H209      1.0  0.7819099999999998  0.9801600000000001  0.66097  1.0000
  H   H210      1.0  0.88393  0.9392199999999999  0.73228  1.0000
  H   H211      1.0  0.85513  0.14561  0.84104  1.0000
  H   H212      1.0  0.75614  0.17847  0.76394  1.0000
  H   H213      1.0  0.9777499999999999  0.9036299999999999  0.07304  1.0000
  H   H214      1.0  0.02647  0.9516600000000001  0.9690500000000001  1.0000
  H   H215      1.0  0.80329  0.00245  0.91262  1.0000
  H   H216      1.0  0.76349  0.9517800000000001  0.01959  1.0000
  H   H217      1.0  0.00583  0.14602  0.8481099999999999  1.0000
  H   H218      1.0  0.04994  0.09014  0.907  1.0000
  H   H219      1.0  0.06872  0.07744000000000001  0.75793  1.0000
  H   H220      1.0  0.13916999999999996  0.0948  0.81488  1.0000
  H   H221      1.0  0.12299  0.96699  0.86148  1.0000
  H   H222      1.0  0.13388  0.9570799999999999  0.77638  1.0000
  H   H223      1.0  0.020349999999999993  0.8858  0.8347400000000001  1.0000
  H   H224      1.0  0.00565  0.93206  0.76011  1.0000
  H   H225      1.0  0.7975299999999999  0.7436900000000001  0.05592  1.0000
  H   H226      1.0  0.8137799999999997  0.60604  0.04466  1.0000
  H   H227      1.0  0.9207799999999998  0.60843  0.23326  1.0000
  H   H228      1.0  0.9010299999999999  0.74615  0.23543  1.0000
  H   H229      1.0  0.9849899999999999  0.36366  0.33288  1.0000
  H   H230      1.0  0.88249  0.41308  0.26715  1.0000
  H   H231      1.0  0.043009999999999986  0.4877000000000001  0.12558  1.0000
  H   H232      1.0  0.13923  0.43864  0.19913  1.0000
  H   H233      1.0  0.77945  0.40974  0.19247  1.0000
  H   H234      1.0  0.7428899999999999  0.48566000000000004  0.14818  1.0000
  H   H235      1.0  0.80366  0.33838  0.09124  1.0000
  H   H236      1.0  0.71695  0.37873  0.0761  1.0000
  H   H237      1.0  0.7763399999999998  0.48462  0.01676  1.0000
  H   H238      1.0  0.80777  0.39976  0.98208  1.0000
  H   H239      1.0  0.9129299999999999  0.49660999999999994  0.01198  1.0000
  H   H240      1.0  0.92311  0.40549  0.04497  1.0000
  H   H241      1.0  0.71804  0.01986  0.16098  1.0000
  H   H242      1.0  0.616  0.060790000000000004  0.23225  1.0000
  H   H243      1.0  0.64478  0.85439  0.34101  1.0000
  H   H244      1.0  0.74378  0.82153  0.26393  1.0000
  H   H245      1.0  0.52212  0.09628  0.57302  1.0000
  H   H246      1.0  0.47341  0.04827  0.46902000000000005  1.0000
  H   H247      1.0  0.6966099999999997  0.9975699999999998  0.4126000000000001  1.0000
  H   H248      1.0  0.7364  0.04823  0.51957  1.0000
  H   H249      1.0  0.49408  0.8539500000000001  0.34806  1.0000
  H   H250      1.0  0.44999  0.9098300000000001  0.40695  1.0000
  H   H251      1.0  0.4311899999999999  0.92254  0.25788  1.0000
  H   H252      1.0  0.3607399999999999  0.9051599999999999  0.31481  1.0000
  H   H253      1.0  0.3769  0.03297  0.36144  1.0000
  H   H254      1.0  0.36601999999999996  0.0429  0.27633  1.0000
  H   H255      1.0  0.47955  0.11416000000000001  0.33475  1.0000
  H   H256      1.0  0.4942599999999999  0.06796  0.26009  1.0000
  C   C1        1.0  0.32906  0.91227  0.63242  1.0000
  C   C2        1.0  0.40489999999999987  0.90923  0.63  1.0000
  C   C3        1.0  0.44182999999999995  0.8395200000000002  0.63246  1.0000
  C   C4        1.0  0.39619  0.77525  0.63671  1.0000
  C   C5        1.0  0.32062  0.78292  0.63905  1.0000
  C   C6        1.0  0.54354  0.73357  0.44516  1.0000
  C   C7        1.0  0.5203499999999999  0.75931  0.50564  1.0000
  C   C8        1.0  0.57036  0.79354  0.54881  1.0000
  C   C9        1.0  0.64294  0.80085  0.52534  1.0000
  C   C10       1.0  0.66177  0.77322  0.46433  1.0000
  C   C11       1.0  0.57862  0.7698  0.70068  1.0000
  C   C12       1.0  0.60923  0.8284200000000002  0.74923  1.0000
  C   C13       1.0  0.6470799999999999  0.89128  0.71006  1.0000
  C   C14       1.0  0.5944699999999999  0.91797  0.65551  1.0000
  C   C15       1.0  0.06336999999999998  0.75508  0.74558  1.0000
  C   C16       1.0  0.03417  0.7193200000000001  0.79974  1.0000
  C   C17       1.0  0.07107999999999998  0.72215  0.86005  1.0000
  C   C18       1.0  0.13813999999999999  0.76149  0.86051  1.0000
  C   C19       1.0  0.16386  0.79579  0.80405  1.0000
  C   C20       1.0  0.8684699999999999  0.52896  0.86952  1.0000
  C   C21       1.0  0.9044099999999999  0.59288  0.89086  1.0000
  C   C22       1.0  0.9803599999999999  0.5906700000000001  0.90554  1.0000
  C   C23       1.0  0.015239999999999998  0.52079  0.8952400000000001  1.0000
  C   C24       1.0  0.97544  0.45930000000000004  0.87408  1.0000
  C   C25       1.0  0.97413  0.73796  0.98704  1.0000
  C   C26       1.0  0.017569999999999992  0.7417700000000002  0.05196  1.0000
  C   C27       1.0  0.059129999999999995  0.66718  0.06199  1.0000
  C   C28       1.0  0.10177  0.64917  0.9985700000000001  1.0000
  C   C29       1.0  0.171  0.0877  0.13243  1.0000
  C   C30       1.0  0.09516999999999998  0.09076000000000001  0.13  1.0000
  C   C31       1.0  0.05824  0.16048  0.13247  1.0000
  C   C32       1.0  0.10389999999999999  0.22474  0.13672  1.0000
  C   C33       1.0  0.17945999999999995  0.21706000000000003  0.13908  1.0000
  C   C34       1.0  0.9564299999999999  0.26648  0.94517  1.0000
  C   C35       1.0  0.9796499999999999  0.24072000000000002  0.00564  1.0000
  C   C36       1.0  0.92967  0.20648  0.04882000000000001  1.0000
  C   C37       1.0  0.85708  0.19918  0.02537  1.0000
  C   C38       1.0  0.83821  0.22682999999999998  0.96437  1.0000
  C   C39       1.0  0.9214299999999999  0.23017999999999997  0.2007  1.0000
  C   C40       1.0  0.8907399999999999  0.17156  0.24921  1.0000
  C   C41       1.0  0.85291  0.10872  0.20999  1.0000
  C   C42       1.0  0.9055799999999999  0.08204  0.15548  1.0000
  C   C43       1.0  0.43659  0.2449  0.24563  1.0000
  C   C44       1.0  0.46577999999999997  0.28064  0.29979  1.0000
  C   C45       1.0  0.4288799999999999  0.27779  0.3601  1.0000
  C   C46       1.0  0.36183  0.23842  0.36055  1.0000
  C   C47       1.0  0.33611  0.20414000000000002  0.30408  1.0000
  C   C48       1.0  0.63141  0.47104  0.36954  1.0000
  C   C49       1.0  0.59549  0.40711  0.39087  1.0000
  C   C50       1.0  0.5195399999999999  0.40931  0.40557  1.0000
  C   C51       1.0  0.48464  0.47919  0.39528  1.0000
  C   C52       1.0  0.52444  0.54068  0.37413  1.0000
  C   C53       1.0  0.52585  0.26202  0.48705  1.0000
  C   C54       1.0  0.48245  0.25821  0.55199  1.0000
  C   C55       1.0  0.44089999999999996  0.3328  0.56203  1.0000
  C   C56       1.0  0.3981999999999999  0.35078  0.4986300000000001  1.0000
  C   C57       1.0  0.67095  0.41222  0.86759  1.0000
  C   C58       1.0  0.5951099999999999  0.40918  0.8700099999999998  1.0000
  C   C59       1.0  0.55817  0.33946  0.86753  1.0000
  C   C60       1.0  0.60382  0.2752  0.8632900000000001  1.0000
  C   C61       1.0  0.67938  0.28287  0.86096  1.0000
  C   C62       1.0  0.45644  0.23355000000000004  0.05484  1.0000
  C   C63       1.0  0.47963999999999996  0.25927  0.9943500000000001  1.0000
  C   C64       1.0  0.42963  0.29348  0.95117  1.0000
  C   C65       1.0  0.35705  0.30081  0.9746400000000001  1.0000
  C   C66       1.0  0.33822  0.2732  0.03566  1.0000
  C   C67       1.0  0.42137999999999987  0.26977  0.7993  1.0000
  C   C68       1.0  0.39076  0.32839  0.75077  1.0000
  C   C69       1.0  0.35292  0.39125  0.7899499999999999  1.0000
  C   C70       1.0  0.40554999999999997  0.41793  0.84449  1.0000
  C   C71       1.0  0.93665  0.25505  0.75442  1.0000
  C   C72       1.0  0.9658399999999999  0.21929  0.70026  1.0000
  C   C73       1.0  0.92892  0.22213  0.63994  1.0000
  C   C74       1.0  0.86186  0.26147  0.63949  1.0000
  C   C75       1.0  0.83616  0.29577  0.69595  1.0000
  C   C76       1.0  0.13153  0.028979999999999995  0.63047  1.0000
  C   C77       1.0  0.09558  0.09289  0.60913  1.0000
  C   C78       1.0  0.019639999999999998  0.09067  0.59445  1.0000
  C   C79       1.0  0.98475  0.02079  0.60476  1.0000
  C   C80       1.0  0.02456  0.9593100000000001  0.62592  1.0000
  C   C81       1.0  0.025859999999999998  0.23797  0.51297  1.0000
  C   C82       1.0  0.98243  0.24177000000000004  0.44804  1.0000
  C   C83       1.0  0.94088  0.16717  0.43801  1.0000
  C   C84       1.0  0.8982199999999999  0.14916  0.50142  1.0000
  C   C85       1.0  0.829  0.58774  0.36757  1.0000
  C   C86       1.0  0.90484  0.5908100000000001  0.37  1.0000
  C   C87       1.0  0.9417599999999999  0.66053  0.36753  1.0000
  C   C88       1.0  0.8960999999999999  0.72478  0.36327  1.0000
  C   C89       1.0  0.82054  0.71709  0.36092  1.0000
  C   C90       1.0  0.04358999999999999  0.76651  0.55483  1.0000
  C   C91       1.0  0.020359999999999993  0.74077  0.49435999999999997  1.0000
  C   C92       1.0  0.07033999999999997  0.70653  0.45117  1.0000
  C   C93       1.0  0.14293  0.69921  0.47462  1.0000
  C   C94       1.0  0.16179999999999994  0.72685  0.53563  1.0000
  C   C95       1.0  0.07858999999999998  0.73021  0.2993  1.0000
  C   C96       1.0  0.10927  0.67158  0.25079  1.0000
  C   C97       1.0  0.14709  0.60874  0.29002  1.0000
  C   C98       1.0  0.0944  0.58207  0.34452  1.0000
  C   C99       1.0  0.56342  0.74492  0.25438  1.0000
  C   C100      1.0  0.53423  0.78067  0.20021  1.0000
  C   C101      1.0  0.57114  0.77782  0.13991  1.0000
  C   C102      1.0  0.63818  0.73844  0.13946  1.0000
  C   C103      1.0  0.66389  0.70415  0.19593  1.0000
  C   C104      1.0  0.3686  0.97105  0.13046  1.0000
  C   C105      1.0  0.40454  0.9071300000000001  0.10913  1.0000
  C   C106      1.0  0.48047999999999996  0.90933  0.09444  1.0000
  C   C107      1.0  0.5153799999999997  0.9792200000000001  0.10473  1.0000
  C   C108      1.0  0.47557999999999995  0.0407  0.12588  1.0000
  C   C109      1.0  0.47415999999999997  0.76204  0.012970000000000002  1.0000
  C   C110      1.0  0.51754  0.75823  0.9480200000000001  1.0000
  C   C111      1.0  0.55911  0.83281  0.93797  1.0000
  C   C112      1.0  0.60182  0.8508  0.00137  1.0000
  C   C113      1.0  0.3238399999999999  0.78875  0.9056099999999999  1.0000
  C   C114      1.0  0.33305  0.86581  0.91132  1.0000
  C   C115      1.0  0.36806  0.9067200000000001  0.8610799999999998  1.0000
  C   C116      1.0  0.39266  0.86447  0.8072799999999999  1.0000
  C   C117      1.0  0.38161  0.78717  0.8054800000000001  1.0000
  C   C118      1.0  0.49582  0.10686  0.71275  1.0000
  C   C119      1.0  0.43836999999999987  0.07929000000000001  0.75028  1.0000
  C   C120      1.0  0.45204999999999995  0.04441  0.8108500000000001  1.0000
  C   C121      1.0  0.5270299999999998  0.03842  0.82856  1.0000
  C   C122      1.0  0.58141  0.06633  0.7878799999999999  1.0000
  C   C123      1.0  0.28489  0.05853  0.85315  1.0000
  C   C124      1.0  0.27486  0.10779  0.91484  1.0000
  C   C125      1.0  0.30901  0.06607  0.97318  1.0000
  C   C126      1.0  0.3883199999999999  0.04398  0.95429  1.0000
  C   C127      1.0  0.20017999999999994  0.51501  0.79847  1.0000
  C   C128      1.0  0.14336  0.49238999999999994  0.75799  1.0000
  C   C129      1.0  0.12089999999999998  0.53786  0.70542  1.0000
  C   C130      1.0  0.15940999999999994  0.60609  0.69741  1.0000
  C   C131      1.0  0.21520999999999998  0.62516  0.74029  1.0000
  C   C132      1.0  0.05924  0.42639  0.46356  1.0000
  C   C133      1.0  0.03236  0.45369000000000004  0.52207  1.0000
  C   C134      1.0  0.08069999999999997  0.48265  0.56977  1.0000
  C   C135      1.0  0.15576  0.48184  0.55317  1.0000
  C   C136      1.0  0.17864  0.45343  0.49351  1.0000
  C   C137      1.0  0.97223  0.5897  0.64285  1.0000
  C   C138      1.0  0.91294  0.56494  0.69219  1.0000
  C   C139      1.0  0.90282  0.47936  0.68574  1.0000
  C   C140      1.0  0.97902  0.44113  0.68868  1.0000
  C   C141      1.0  0.17612  0.21123  0.40561  1.0000
  C   C142      1.0  0.16692  0.13416  0.41131  1.0000
  C   C143      1.0  0.13191  0.09325  0.36107  1.0000
  C   C144      1.0  0.10731999999999997  0.1355  0.30727  1.0000
  C   C145      1.0  0.11834999999999998  0.2128  0.30548  1.0000
  C   C146      1.0  0.00416  0.89315  0.21272000000000002  1.0000
  C   C147      1.0  0.06161  0.9207099999999999  0.25026  1.0000
  C   C148      1.0  0.04792  0.9555799999999999  0.31084  1.0000
  C   C149      1.0  0.97295  0.9615499999999999  0.32856  1.0000
  C   C150      1.0  0.91857  0.93365  0.28786  1.0000
  C   C151      1.0  0.21507999999999994  0.9414400000000002  0.35316  1.0000
  C   C152      1.0  0.22511  0.89218  0.41485  1.0000
  C   C153      1.0  0.19096999999999995  0.9339200000000001  0.47319  1.0000
  C   C154      1.0  0.11165999999999998  0.95601  0.45429  1.0000
  C   C155      1.0  0.29988  0.48497  0.29849  1.0000
  C   C156      1.0  0.35671  0.50758  0.25803  1.0000
  C   C157      1.0  0.37918  0.46212  0.20547  1.0000
  C   C158      1.0  0.3406699999999999  0.39389  0.19742999999999997  1.0000
  C   C159      1.0  0.28486  0.37483  0.2403  1.0000
  C   C160      1.0  0.44085  0.5735700000000001  0.9636000000000001  1.0000
  C   C161      1.0  0.46772  0.54628  0.02211  1.0000
  C   C162      1.0  0.41937  0.51733  0.06981  1.0000
  C   C163      1.0  0.34431  0.51815  0.05319  1.0000
  C   C164      1.0  0.3214499999999999  0.54655  0.99353  1.0000
  C   C165      1.0  0.5278399999999999  0.41027  0.14289  1.0000
  C   C166      1.0  0.5871399999999999  0.43503  0.19224  1.0000
  C   C167      1.0  0.59726  0.5206100000000001  0.18579  1.0000
  C   C168      1.0  0.52105  0.55884  0.18871  1.0000
  C   C169      1.0  0.67618  0.28876  0.59438  1.0000
  C   C170      1.0  0.6669599999999998  0.36583  0.58867  1.0000
  C   C171      1.0  0.63194  0.40672  0.6389  1.0000
  C   C172      1.0  0.6073599999999998  0.36448  0.6927  1.0000
  C   C173      1.0  0.6184  0.28719  0.69451  1.0000
  C   C174      1.0  0.50417  0.60685  0.78724  1.0000
  C   C175      1.0  0.5616199999999998  0.57929  0.7497  1.0000
  C   C176      1.0  0.54794  0.54437  0.68914  1.0000
  C   C177      1.0  0.47295999999999994  0.5384  0.67143  1.0000
  C   C178      1.0  0.41858  0.5663  0.71212  1.0000
  C   C179      1.0  0.71509  0.55858  0.64684  1.0000
  C   C180      1.0  0.72513  0.60783  0.58514  1.0000
  C   C181      1.0  0.69098  0.56609  0.5268  1.0000
  C   C182      1.0  0.6116799999999999  0.544  0.54569  1.0000
  C   C183      1.0  0.79981  0.01501  0.70151  1.0000
  C   C184      1.0  0.85661  0.99238  0.74199  1.0000
  C   C185      1.0  0.87908  0.03782  0.79458  1.0000
  C   C186      1.0  0.84059  0.10606  0.80261  1.0000
  C   C187      1.0  0.7847899999999999  0.12514  0.75972  1.0000
  C   C188      1.0  0.9407399999999999  0.92639  0.03644  1.0000
  C   C189      1.0  0.9676199999999999  0.95368  0.9779299999999999  1.0000
  C   C190      1.0  0.91928  0.9826099999999999  0.9302200000000002  1.0000
  C   C191      1.0  0.8442099999999998  0.98177  0.94682  1.0000
  C   C192      1.0  0.82135  0.95338  0.00648  1.0000
  C   C193      1.0  0.02775  0.08967  0.85716  1.0000
  C   C194      1.0  0.08703999999999998  0.06492  0.80782  1.0000
  C   C195      1.0  0.09715999999999997  0.97935  0.81426  1.0000
  C   C196      1.0  0.02096  0.94111  0.81131  1.0000
  C   C197      1.0  0.8238599999999999  0.71121  0.09437  1.0000
  C   C198      1.0  0.8330599999999998  0.63415  0.08867  1.0000
  C   C199      1.0  0.86808  0.59325  0.13891  1.0000
  C   C200      1.0  0.89266  0.6355  0.19271  1.0000
  C   C201      1.0  0.88163  0.71279  0.19451  1.0000
  C   C202      1.0  0.99582  0.39316  0.28727  1.0000
  C   C203      1.0  0.9383799999999999  0.42072  0.24972000000000003  1.0000
  C   C204      1.0  0.95206  0.4556  0.18915  1.0000
  C   C205      1.0  0.027039999999999995  0.46156  0.17144  1.0000
  C   C206      1.0  0.08141  0.43367  0.21213000000000004  1.0000
  C   C207      1.0  0.7849099999999998  0.44142  0.14682  1.0000
  C   C208      1.0  0.77486  0.39217  0.08512  1.0000
  C   C209      1.0  0.8090099999999998  0.43391  0.02679  1.0000
  C   C210      1.0  0.88833  0.45599  0.04569  1.0000
  C   C211      1.0  0.7001299999999998  0.9849900000000001  0.2015  1.0000
  C   C212      1.0  0.64331  0.007619999999999999  0.24196  1.0000
  C   C213      1.0  0.62083  0.96217  0.29453  1.0000
  C   C214      1.0  0.6593199999999998  0.89394  0.30257  1.0000
  C   C215      1.0  0.7151299999999998  0.87486  0.2597  1.0000
  C   C216      1.0  0.55914  0.07357  0.53642  1.0000
  C   C217      1.0  0.53227  0.04628  0.4779  1.0000
  C   C218      1.0  0.58063  0.01738  0.43019  1.0000
  C   C219      1.0  0.6556899999999999  0.01824  0.44680000000000003  1.0000
  C   C220      1.0  0.67855  0.04663  0.50647  1.0000
  C   C221      1.0  0.47217  0.9103  0.3571  1.0000
  C   C222      1.0  0.4128699999999999  0.9350500000000002  0.30776  1.0000
  C   C223      1.0  0.4027399999999999  0.02062  0.31422  1.0000
  C   C224      1.0  0.47894  0.05887  0.31128  1.0000
  N   N1        1.0  0.2855899999999999  0.85019  0.63721  1.0000
  N   N2        1.0  0.6137499999999999  0.73903  0.4235  1.0000
  N   N3        1.0  0.12743  0.79353  0.74674  1.0000
  N   N4        1.0  0.9021099999999997  0.46148  0.8613600000000001  1.0000
  N   N5        1.0  0.21447999999999995  0.14978  0.13724  1.0000
  N   N6        1.0  0.88622  0.26102  0.92353  1.0000
  N   N7        1.0  0.37253999999999987  0.20644  0.24678  1.0000
  N   N8        1.0  0.59776  0.53852  0.36141  1.0000
  N   N9        1.0  0.71441  0.35014  0.8628  1.0000
  N   N10       1.0  0.38623  0.23900000000000002  0.07649  1.0000
  N   N11       1.0  0.8725899999999998  0.2935  0.75326  1.0000
  N   N12       1.0  0.09787999999999998  0.9615  0.63863  1.0000
  N   N13       1.0  0.78552  0.64981  0.36276  1.0000
  N   N14       1.0  0.1138  0.76105  0.57647  1.0000
  N   N15       1.0  0.6274599999999999  0.70645  0.25323  1.0000
  N   N16       1.0  0.4022599999999999  0.03852  0.1386  1.0000
  N   N17       1.0  0.3471  0.74871  0.8535  1.0000
  N   N18       1.0  0.56743  0.10113  0.73031  1.0000
  N   N19       1.0  0.23654999999999998  0.58087  0.79059  1.0000
  N   N20       1.0  0.13154  0.42522  0.4482  1.0000
  N   N21       1.0  0.15285  0.25127  0.3535  1.0000
  N   N22       1.0  0.93255  0.8988700000000001  0.23028  1.0000
  N   N23       1.0  0.26351  0.41911  0.2906  1.0000
  N   N24       1.0  0.3685599999999999  0.57476  0.94822  1.0000
  N   N25       1.0  0.65293  0.24873  0.6465  1.0000
  N   N26       1.0  0.4325499999999999  0.60109  0.76969  1.0000
  N   N27       1.0  0.7634399999999999  0.08087  0.70941  1.0000
  N   N28       1.0  0.8684399999999998  0.9251799999999999  0.051800000000000006  1.0000
  N   N29       1.0  0.8471199999999999  0.75125  0.14649  1.0000
  N   N30       1.0  0.06744  0.39890000000000003  0.26972  1.0000
  N   N31       1.0  0.7364899999999999  0.9191300000000001  0.20940000000000003  1.0000
  N   N32       1.0  0.6314399999999998  0.0748  0.55178  1.0000
