data_image0
_chemical_formula_structural       Zn8H144C180N72
_chemical_formula_sum              "Zn8 H144 C180 N72"
_cell_length_a       20.53745
_cell_length_b       21.34843
_cell_length_c       22.31176
_cell_angle_alpha    110.49331
_cell_angle_beta     89.97667999999999
_cell_angle_gamma    89.98255

_symmetry_space_group_name_H-M    'P 1'
_symmetry_Int_Tables_number       1

loop_
  _symmetry_equiv_pos_as_xyz
  'x,y,z'

loop_
  _atom_site_type_symbol
  _atom_site_label
  _atom_site_symmetry_multiplicity
  _atom_site_fract_x
  _atom_site_fract_y
  _atom_site_fract_z
  _atom_site_occupancy
  Zn  Zn1       1.0  0.33895  0.8619600000000001  0.0559  1.0000
  Zn  Zn2       1.0  0.13721  0.39648000000000005  0.26063  1.0000
  Zn  Zn3       1.0  0.83868  0.13773000000000002  0.44398  1.0000
  Zn  Zn4       1.0  0.6375200000000001  0.6036499999999999  0.23942999999999998  1.0000
  Zn  Zn5       1.0  0.6626500000000001  0.13779000000000002  0.94357  1.0000
  Zn  Zn6       1.0  0.8627400000000001  0.60344  0.73923  1.0000
  Zn  Zn7       1.0  0.16281  0.86255  0.55626  1.0000
  Zn  Zn8       1.0  0.36272  0.39597  0.76031  1.0000
  H   H1        1.0  0.55328  0.6931  0.05635999999999999  1.0000
  H   H2        1.0  0.75248  0.66031  0.9836  1.0000
  H   H3        1.0  0.60766  0.74579  0.8934300000000001  1.0000
  H   H4        1.0  0.49319  0.8070500000000002  0.06737  1.0000
  H   H5        1.0  0.37558  0.76551  0.9031999999999999  1.0000
  H   H6        1.0  0.49215  0.69517  0.86903  1.0000
  H   H7        1.0  0.58346  0.635  0.11322  1.0000
  H   H8        1.0  0.77289  0.62544  0.18324  1.0000
  H   H9        1.0  0.78238  0.66876  0.08109  1.0000
  H   H10       1.0  0.78107  0.60394  0.86773  1.0000
  H   H11       1.0  0.8048  0.74769  0.77881  1.0000
  H   H12       1.0  0.70496  0.78921  0.86843  1.0000
  H   H13       1.0  0.4424100000000001  0.99148  0.90959  1.0000
  H   H14       1.0  0.42970000000000014  0.011209999999999973  0.72177  1.0000
  H   H15       1.0  0.26974  0.9254600000000001  0.79191  1.0000
  H   H16       1.0  0.41189  0.9018700000000001  0.9453299999999999  1.0000
  H   H17       1.0  0.21217000000000003  0.89877  0.9890399999999999  1.0000
  H   H18       1.0  0.22527000000000003  0.9456300000000001  0.88814  1.0000
  H   H19       1.0  0.51919  0.06894999999999993  0.9316399999999999  1.0000
  H   H20       1.0  0.64689  0.08520000000000001  0.7898100000000001  1.0000
  H   H21       1.0  0.5320900000000001  0.027589999999999986  0.73118  1.0000
  H   H22       1.0  0.27535000000000004  0.86208  0.66869  1.0000
  H   H23       1.0  0.24440000000000006  0.009569999999999988  0.58626  1.0000
  H   H24       1.0  0.32456000000000007  0.06188999999999999  0.69354  1.0000
  H   H25       1.0  0.19684000000000001  0.6468199999999998  0.16664  1.0000
  H   H26       1.0  0.32931  0.57245  0.27809  1.0000
  H   H27       1.0  0.4027  0.69615  0.17545  1.0000
  H   H28       1.0  0.36545  0.78039  0.14828  1.0000
  H   H29       1.0  0.21803  0.7503100000000001  0.00951  1.0000
  H   H30       1.0  0.20201  0.65758  0.06914  1.0000
  H   H31       1.0  0.25842  0.48681  0.25076  1.0000
  H   H32       1.0  0.05632000000000001  0.52668  0.26116  1.0000
  H   H33       1.0  0.12041  0.62829  0.23506  1.0000
  H   H34       1.0  0.49399000000000004  0.62555  0.17406  1.0000
  H   H35       1.0  0.5471  0.62215  0.35581  1.0000
  H   H36       1.0  0.41252  0.6334499999999998  0.35079  1.0000
  H   H37       1.0  0.05299  0.30759  0.44398999999999994  1.0000
  H   H38       1.0  0.25237  0.33961  0.51642  1.0000
  H   H39       1.0  0.10722000000000001  0.25414  0.60633  1.0000
  H   H40       1.0  0.9929300000000001  0.19319  0.43261999999999995  1.0000
  H   H41       1.0  0.87555  0.23503  0.59718  1.0000
  H   H42       1.0  0.99228  0.30499  0.63087  1.0000
  H   H43       1.0  0.0835  0.36490000000000006  0.3871200000000001  1.0000
  H   H44       1.0  0.27247  0.37426  0.31619  1.0000
  H   H45       1.0  0.2827700000000001  0.33154  0.41861  1.0000
  H   H46       1.0  0.28109  0.39608  0.63248  1.0000
  H   H47       1.0  0.30530000000000007  0.25135  0.72017  1.0000
  H   H48       1.0  0.20481  0.21085000000000004  0.6313  1.0000
  H   H49       1.0  0.94233  0.008470000000000031  0.59016  1.0000
  H   H50       1.0  0.9299100000000001  0.98865  0.77788  1.0000
  H   H51       1.0  0.76994  0.07509000000000005  0.70811  1.0000
  H   H52       1.0  0.91121  0.09838000000000004  0.55505  1.0000
  H   H53       1.0  0.71149  0.10099  0.51116  1.0000
  H   H54       1.0  0.72466  0.05425  0.61202  1.0000
  H   H55       1.0  0.01901  0.93079  0.56859  1.0000
  H   H56       1.0  0.14682  0.91434  0.71013  1.0000
  H   H57       1.0  0.03246  0.97279  0.7690900000000002  1.0000
  H   H58       1.0  0.7752600000000001  0.13803  0.8315499999999999  1.0000
  H   H59       1.0  0.74421  0.99026  0.9136  1.0000
  H   H60       1.0  0.8246100000000001  0.9381300000000001  0.80653  1.0000
  H   H61       1.0  0.69687  0.35323  0.33316  1.0000
  H   H62       1.0  0.82967  0.42832999999999993  0.22244000000000003  1.0000
  H   H63       1.0  0.9029  0.30363  0.32412  1.0000
  H   H64       1.0  0.8652000000000001  0.21955  0.35124  1.0000
  H   H65       1.0  0.71805  0.24929  0.4903  1.0000
  H   H66       1.0  0.7018300000000001  0.34266  0.43143  1.0000
  H   H67       1.0  0.75817  0.51328  0.24945999999999996  1.0000
  H   H68       1.0  0.55625  0.47296  0.23855  1.0000
  H   H69       1.0  0.62044  0.37153  0.26488  1.0000
  H   H70       1.0  0.99419  0.37462  0.32576  1.0000
  H   H71       1.0  0.04703  0.3771300000000001  0.14354  1.0000
  H   H72       1.0  0.91236  0.3662  0.14904  1.0000
  H   H73       1.0  0.44716  0.30732  0.94379  1.0000
  H   H74       1.0  0.24776000000000004  0.33967  0.01622  1.0000
  H   H75       1.0  0.393  0.25424  0.10635999999999998  1.0000
  H   H76       1.0  0.50633  0.1927899999999999  0.9325899999999999  1.0000
  H   H77       1.0  0.62445  0.23458  0.09648  1.0000
  H   H78       1.0  0.50776  0.30494  0.13055  1.0000
  H   H79       1.0  0.41684000000000004  0.36422  0.88682  1.0000
  H   H80       1.0  0.2279  0.37399  0.81581  1.0000
  H   H81       1.0  0.21752  0.33126  0.91824  1.0000
  H   H82       1.0  0.21940000000000004  0.39649  0.13308  1.0000
  H   H83       1.0  0.19495  0.2519  0.22085  1.0000
  H   H84       1.0  0.29523000000000005  0.21087  0.13178  1.0000
  H   H85       1.0  0.55744  0.009509999999999996  0.0909  1.0000
  H   H86       1.0  0.57027  0.9891100000000002  0.27823  1.0000
  H   H87       1.0  0.73067  0.07430999999999999  0.20804999999999998  1.0000
  H   H88       1.0  0.58882  0.09781  0.05483  1.0000
  H   H89       1.0  0.7883500000000001  0.10034999999999998  0.01076  1.0000
  H   H90       1.0  0.7754900000000001  0.054249999999999986  0.11206999999999999  1.0000
  H   H91       1.0  0.48188  0.9309800000000001  0.06892  1.0000
  H   H92       1.0  0.35377  0.91461  0.21049  1.0000
  H   H93       1.0  0.46833  0.97213  0.26922  1.0000
  H   H94       1.0  0.72488  0.1384  0.33196  1.0000
  H   H95       1.0  0.7565100000000001  0.99032  0.41364000000000006  1.0000
  H   H96       1.0  0.67579  0.9384900000000002  0.30677  1.0000
  H   H97       1.0  0.8033300000000001  0.35316  0.83284  1.0000
  H   H98       1.0  0.66988  0.42813  0.72234  1.0000
  H   H99       1.0  0.59751  0.30319  0.82414  1.0000
  H   H100      1.0  0.63484  0.22043  0.85167  1.0000
  H   H101      1.0  0.7822  0.24953999999999996  0.9904999999999999  1.0000
  H   H102      1.0  0.79833  0.34281000000000006  0.9315000000000001  1.0000
  H   H103      1.0  0.7416  0.51383  0.74964  1.0000
  H   H104      1.0  0.9435600000000001  0.47366  0.73898  1.0000
  H   H105      1.0  0.87947  0.37162  0.7643  1.0000
  H   H106      1.0  0.50611  0.37459999999999993  0.82581  1.0000
  H   H107      1.0  0.45294  0.37722  0.64374  1.0000
  H   H108      1.0  0.58765  0.36644  0.64909  1.0000
  H   H109      1.0  0.9471900000000001  0.69229  0.55601  1.0000
  H   H110      1.0  0.7477600000000001  0.6602600000000001  0.48361  1.0000
  H   H111      1.0  0.8929300000000001  0.74598  0.39375  1.0000
  H   H112      1.0  0.00694  0.80702  0.56759  1.0000
  H   H113      1.0  0.12444000000000001  0.7654300000000002  0.40318999999999994  1.0000
  H   H114      1.0  0.007779999999999998  0.69502  0.36951  1.0000
  H   H115      1.0  0.91712  0.63554  0.61267  1.0000
  H   H116      1.0  0.72856  0.62588  0.68433  1.0000
  H   H117      1.0  0.71766  0.66849  0.58178  1.0000
  H   H118      1.0  0.71938  0.60386  0.36757  1.0000
  H   H119      1.0  0.69488  0.7484  0.27965  1.0000
  H   H120      1.0  0.79535  0.7892  0.36847  1.0000
  H   H121      1.0  0.057550000000000004  0.9905200000000001  0.40923  1.0000
  H   H122      1.0  0.07034  0.010660000000000006  0.22172  1.0000
  H   H123      1.0  0.231  0.9258900000000001  0.29226  1.0000
  H   H124      1.0  0.0887  0.9018700000000001  0.44501999999999997  1.0000
  H   H125      1.0  0.28844  0.89898  0.48906  1.0000
  H   H126      1.0  0.27543  0.9457699999999999  0.38816  1.0000
  H   H127      1.0  0.9815400000000001  0.06964999999999999  0.43141  1.0000
  H   H128      1.0  0.8538200000000001  0.08521  0.28934  1.0000
  H   H129      1.0  0.9684700000000002  0.027340000000000003  0.23092  1.0000
  H   H130      1.0  0.22482  0.86142  0.16791  1.0000
  H   H131      1.0  0.25587  0.009409999999999995  0.0861  1.0000
  H   H132      1.0  0.1758  0.06147000000000001  0.19347  1.0000
  H   H133      1.0  0.30313  0.64654  0.66675  1.0000
  H   H134      1.0  0.17006  0.57296  0.77857  1.0000
  H   H135      1.0  0.09743000000000002  0.6970500000000002  0.67608  1.0000
  H   H136      1.0  0.1345  0.78013  0.64862  1.0000
  H   H137      1.0  0.28165  0.75013  0.50947  1.0000
  H   H138      1.0  0.29806  0.65728  0.56914  1.0000
  H   H139      1.0  0.24146000000000006  0.4870300000000001  0.75099  1.0000
  H   H140      1.0  0.44361000000000006  0.52595  0.76059  1.0000
  H   H141      1.0  0.37987  0.62858  0.73606  1.0000
  H   H142      1.0  0.006100000000000001  0.6257600000000001  0.67406  1.0000
  H   H143      1.0  0.9525000000000001  0.6223199999999999  0.8558199999999999  1.0000
  H   H144      1.0  0.08723  0.6321399999999999  0.8504199999999998  1.0000
  C   C1        1.0  0.57618  0.72124  0.97506  1.0000
  C   C2        1.0  0.59109  0.69746  0.02415  1.0000
  C   C3        1.0  0.65762  0.67818  0.029300000000000003  1.0000
  C   C4        1.0  0.70292  0.67769  0.98205  1.0000
  C   C5        1.0  0.68529  0.70005  0.93271  1.0000
  C   C6        1.0  0.62132  0.72546  0.9298299999999999  1.0000
  C   C7        1.0  0.4751  0.78579  0.01897  1.0000
  C   C8        1.0  0.41725000000000007  0.76382  0.93235  1.0000
  C   C9        1.0  0.47447  0.72897  0.9144900000000001  1.0000
  C   C10       1.0  0.63512  0.64175  0.1211  1.0000
  C   C11       1.0  0.73463  0.63347  0.15338  1.0000
  C   C12       1.0  0.74016  0.65441  0.10201  1.0000
  C   C13       1.0  0.77666  0.64953  0.85736  1.0000
  C   C14       1.0  0.7857300000000002  0.72478  0.81141  1.0000
  C   C15       1.0  0.73555  0.7452899999999999  0.85447  1.0000
  C   C16       1.0  0.35515  0.95455  0.85586  1.0000
  C   C17       1.0  0.41632000000000013  0.9844800000000001  0.86525  1.0000
  C   C18       1.0  0.44436000000000003  0.0061300000000000235  0.81829  1.0000
  C   C19       1.0  0.4092700000000001  0.9971100000000002  0.76008  1.0000
  C   C20       1.0  0.34744  0.96916  0.75366  1.0000
  C   C21       1.0  0.31813  0.94701  0.7993900000000002  1.0000
  C   C22       1.0  0.35999  0.90993  0.94567  1.0000
  C   C23       1.0  0.25551  0.90648  0.96483  1.0000
  C   C24       1.0  0.26122  0.92908  0.91453  1.0000
  C   C25       1.0  0.53913  0.06372999999999995  0.8854900000000001  1.0000
  C   C26       1.0  0.603  0.07353000000000001  0.81064  1.0000
  C   C27       1.0  0.54624  0.04476000000000011  0.7808100000000001  1.0000
  C   C28       1.0  0.27638  0.90889  0.6601  1.0000
  C   C29       1.0  0.26262  0.98669  0.61925  1.0000
  C   C30       1.0  0.30275  0.013179999999999994  0.67131  1.0000
  C   C31       1.0  0.29771  0.67368  0.16548  1.0000
  C   C32       1.0  0.24555  0.64321  0.18412  1.0000
  C   C33       1.0  0.25632  0.60608  0.2246  1.0000
  C   C34       1.0  0.32037000000000004  0.60142  0.24757  1.0000
  C   C35       1.0  0.3709200000000001  0.6351  0.23045  1.0000
  C   C36       1.0  0.36221  0.67155  0.18914  1.0000
  C   C37       1.0  0.32472  0.75907  0.11739999999999999  1.0000
  C   C38       1.0  0.24625  0.74322  0.04752  1.0000
  C   C39       1.0  0.23680000000000004  0.6976  0.07755  1.0000
  C   C40       1.0  0.21265000000000003  0.51239  0.25344  1.0000
  C   C41       1.0  0.10783  0.53343  0.25528  1.0000
  C   C42       1.0  0.13875  0.58349  0.24094  1.0000
  C   C43       1.0  0.49190000000000006  0.6273100000000001  0.22295000000000004  1.0000
  C   C44       1.0  0.51616  0.62381  0.31715  1.0000
  C   C45       1.0  0.44964  0.62892  0.31525  1.0000
  C   C46       1.0  0.07601  0.27881  0.52482  1.0000
  C   C47       1.0  0.09095  0.30268  0.47578  1.0000
  C   C48       1.0  0.15759  0.32187  0.47076000000000007  1.0000
  C   C49       1.0  0.20277  0.32236  0.51803  1.0000
  C   C50       1.0  0.18509  0.3000600000000001  0.56741  1.0000
  C   C51       1.0  0.12105  0.27463  0.5701  1.0000
  C   C52       1.0  0.97478  0.21438  0.48105  1.0000
  C   C53       1.0  0.91713  0.23648  0.56783  1.0000
  C   C54       1.0  0.97437  0.27122999999999997  0.58547  1.0000
  C   C55       1.0  0.13513  0.35814  0.37903  1.0000
  C   C56       1.0  0.23443000000000003  0.36645  0.34638  1.0000
  C   C57       1.0  0.24028  0.34557  0.3978  1.0000
  C   C58       1.0  0.27673  0.35032  0.64252  1.0000
  C   C59       1.0  0.28602  0.27468  0.688  1.0000
  C   C60       1.0  0.23555  0.2546  0.64532  1.0000
  C   C61       1.0  0.855  0.04533  0.64402  1.0000
  C   C62       1.0  0.9162900000000002  0.01552  0.63452  1.0000
  C   C63       1.0  0.9445  0.9941900000000001  0.6817  1.0000
  C   C64       1.0  0.90939  0.0031299999999999926  0.73984  1.0000
  C   C65       1.0  0.8475  0.03099999999999996  0.74639  1.0000
  C   C66       1.0  0.8181800000000001  0.053099999999999974  0.70061  1.0000
  C   C67       1.0  0.8593200000000001  0.09008000000000004  0.55439  1.0000
  C   C68       1.0  0.75484  0.09335  0.5353  1.0000
  C   C69       1.0  0.76066  0.07056000000000003  0.58554  1.0000
  C   C70       1.0  0.03925  0.9363200000000002  0.61465  1.0000
  C   C71       1.0  0.10302  0.9262800000000001  0.68939  1.0000
  C   C72       1.0  0.04642  0.9555199999999999  0.71938  1.0000
  C   C73       1.0  0.77643  0.09119000000000006  0.8400400000000001  1.0000
  C   C74       1.0  0.76262  0.013279999999999967  0.8807899999999999  1.0000
  C   C75       1.0  0.80287  0.98689  0.82876  1.0000
  C   C76       1.0  0.79778  0.3266  0.33466  1.0000
  C   C77       1.0  0.74567  0.35704  0.3159  1.0000
  C   C78       1.0  0.75634  0.39397000000000004  0.27528  1.0000
  C   C79       1.0  0.8205  0.39896  0.25258  1.0000
  C   C80       1.0  0.87095  0.36506  0.26958  1.0000
  C   C81       1.0  0.86233  0.32843  0.31074  1.0000
  C   C82       1.0  0.8246000000000001  0.24101  0.38239  1.0000
  C   C83       1.0  0.74619  0.25667999999999996  0.45233999999999996  1.0000
  C   C84       1.0  0.73675  0.3026  0.42266  1.0000
  C   C85       1.0  0.7125000000000001  0.48749  0.24640000000000004  1.0000
  C   C86       1.0  0.60774  0.46637  0.24450999999999998  1.0000
  C   C87       1.0  0.6387000000000002  0.41624000000000005  0.25881  1.0000
  C   C88       1.0  0.9919600000000001  0.37261  0.27679  1.0000
  C   C89       1.0  0.01612  0.37571  0.18237  1.0000
  C   C90       1.0  0.94964  0.3706  0.18442  1.0000
  C   C91       1.0  0.4239  0.27882  0.02479  1.0000
  C   C92       1.0  0.40919  0.30273  0.97573  1.0000
  C   C93       1.0  0.34252  0.32199  0.97074  1.0000
  C   C94       1.0  0.29737  0.32246  0.01801  1.0000
  C   C95       1.0  0.31492  0.30015  0.06745  1.0000
  C   C96       1.0  0.37895  0.27461  0.07009  1.0000
  C   C97       1.0  0.5248100000000001  0.21390000000000003  0.98088  1.0000
  C   C98       1.0  0.5828  0.23608000000000004  0.06734  1.0000
  C   C99       1.0  0.52558  0.27111  0.08521  1.0000
  C   C100      1.0  0.36515  0.35811000000000004  0.8789700000000001  1.0000
  C   C101      1.0  0.26586000000000004  0.36632  0.84613  1.0000
  C   C102      1.0  0.25994  0.34553  0.89761  1.0000
  C   C103      1.0  0.22348000000000004  0.35053  0.14283  1.0000
  C   C104      1.0  0.21423  0.27504  0.18849  1.0000
  C   C105      1.0  0.26457  0.25474  0.14564  1.0000
  C   C106      1.0  0.64525  0.04545000000000001  0.14431  1.0000
  C   C107      1.0  0.58377  0.0161  0.13504  1.0000
  C   C108      1.0  0.55588  0.99449  0.1821  1.0000
  C   C109      1.0  0.59094  0.0034800000000000135  0.24024000000000004  1.0000
  C   C110      1.0  0.65282  0.03134000000000001  0.24682  1.0000
  C   C111      1.0  0.68222  0.05293000000000001  0.20077000000000003  1.0000
  C   C112      1.0  0.64073  0.08992000000000003  0.0544  1.0000
  C   C113      1.0  0.74508  0.09307  0.03514  1.0000
  C   C114      1.0  0.73946  0.07064  0.08564  1.0000
  C   C115      1.0  0.46149  0.93639  0.11490000000000002  1.0000
  C   C116      1.0  0.3976100000000001  0.9262  0.18961  1.0000
  C   C117      1.0  0.45426  0.95525  0.21959  1.0000
  C   C118      1.0  0.7239700000000001  0.0915  0.34037  1.0000
  C   C119      1.0  0.73795  0.013389999999999992  0.38092  1.0000
  C   C120      1.0  0.69764  0.98713  0.32894  1.0000
  C   C121      1.0  0.70252  0.32653  0.83453  1.0000
  C   C122      1.0  0.75451  0.35697  0.81561  1.0000
  C   C123      1.0  0.7435700000000001  0.39419  0.77528  1.0000
  C   C124      1.0  0.67932  0.399  0.75263  1.0000
  C   C125      1.0  0.6291  0.36478  0.7695  1.0000
  C   C126      1.0  0.63786  0.32821  0.8106999999999999  1.0000
  C   C127      1.0  0.67555  0.24146999999999996  0.8827099999999999  1.0000
  C   C128      1.0  0.754  0.25697  0.9526  1.0000
  C   C129      1.0  0.7634600000000001  0.30278  0.92282  1.0000
  C   C130      1.0  0.7871900000000001  0.48784  0.74641  1.0000
  C   C131      1.0  0.8921  0.46683  0.74469  1.0000
  C   C132      1.0  0.86111  0.41651  0.75874  1.0000
  C   C133      1.0  0.50817  0.37254  0.77684  1.0000
  C   C134      1.0  0.48392  0.37573  0.68247  1.0000
  C   C135      1.0  0.55043  0.37056  0.68443  1.0000
  C   C136      1.0  0.92407  0.72123  0.47526000000000007  1.0000
  C   C137      1.0  0.90926  0.69714  0.52415  1.0000
  C   C138      1.0  0.8426  0.67787  0.52908  1.0000
  C   C139      1.0  0.7974  0.67749  0.48190999999999995  1.0000
  C   C140      1.0  0.8150700000000001  0.69998  0.4326400000000001  1.0000
  C   C141      1.0  0.8790900000000001  0.7255199999999999  0.43001999999999996  1.0000
  C   C142      1.0  0.02509  0.78599  0.51915  1.0000
  C   C143      1.0  0.08291  0.76384  0.43248  1.0000
  C   C144      1.0  0.025680000000000005  0.7288900000000001  0.41477  1.0000
  C   C145      1.0  0.86548  0.64188  0.62077  1.0000
  C   C146      1.0  0.7663  0.6336000000000003  0.65381  1.0000
  C   C147      1.0  0.7602000000000001  0.65433  0.60236  1.0000
  C   C148      1.0  0.72364  0.64957  0.35739  1.0000
  C   C149      1.0  0.71424  0.7251  0.31183  1.0000
  C   C150      1.0  0.7647000000000002  0.7453600000000001  0.35453  1.0000
  C   C151      1.0  0.14537  0.95449  0.35587  1.0000
  C   C152      1.0  0.08389  0.98394  0.36509  1.0000
  C   C153      1.0  0.05591  0.005609999999999992  0.31816  1.0000
  C   C154      1.0  0.09098  0.99649  0.25989  1.0000
  C   C155      1.0  0.15295  0.96873  0.25349  1.0000
  C   C156      1.0  0.18246  0.94718  0.29947  1.0000
  C   C157      1.0  0.14064  0.90983  0.44557  1.0000
  C   C158      1.0  0.24516  0.9065000000000001  0.46474  1.0000
  C   C159      1.0  0.23944000000000001  0.9291700000000002  0.41441  1.0000
  C   C160      1.0  0.96132  0.06392999999999997  0.38532  1.0000
  C   C161      1.0  0.89759  0.07367  0.31037  1.0000
  C   C162      1.0  0.9543  0.04461000000000002  0.28058  1.0000
  C   C163      1.0  0.22385000000000002  0.9083799999999999  0.15961  1.0000
  C   C164      1.0  0.23767  0.9863899999999999  0.11897  1.0000
  C   C165      1.0  0.19754  0.012789999999999996  0.17118  1.0000
  C   C166      1.0  0.20231000000000002  0.67369  0.6657  1.0000
  C   C167      1.0  0.25439  0.64309  0.68434  1.0000
  C   C168      1.0  0.24362  0.60624  0.72502  1.0000
  C   C169      1.0  0.1794  0.60151  0.74774  1.0000
  C   C170      1.0  0.12892  0.63517  0.73047  1.0000
  C   C171      1.0  0.13769  0.6718  0.68936  1.0000
  C   C172      1.0  0.1753  0.75897  0.61766  1.0000
  C   C173      1.0  0.25365  0.74302  0.54766  1.0000
  C   C174      1.0  0.2632  0.69744  0.57759  1.0000
  C   C175      1.0  0.28729  0.5124  0.75353  1.0000
  C   C176      1.0  0.39211000000000007  0.53302  0.75508  1.0000
  C   C177      1.0  0.36133  0.58357  0.74132  1.0000
  C   C178      1.0  0.008  0.62741  0.72294  1.0000
  C   C179      1.0  0.9836200000000002  0.6237  0.81713  1.0000
  C   C180      1.0  0.05012  0.62852  0.8150999999999999  1.0000
  N   N1        1.0  0.41826  0.79959  0.9973699999999999  1.0000
  N   N2        1.0  0.51094  0.7429000000000001  0.97012  1.0000
  N   N3        1.0  0.66997  0.62517  0.1652  1.0000
  N   N4        1.0  0.6765400000000001  0.65922  0.08062  1.0000
  N   N5        1.0  0.81136  0.66573  0.81328  1.0000
  N   N6        1.0  0.73061  0.6979800000000002  0.8847000000000002  1.0000
  N   N7        1.0  0.31667  0.8947199999999998  0.98393  1.0000
  N   N8        1.0  0.32787000000000005  0.93256  0.90307  1.0000
  N   N9        1.0  0.5985500000000001  0.08558999999999999  0.87518  1.0000
  N   N10       1.0  0.5055  0.03694000000000001  0.82836  1.0000
  N   N11       1.0  0.24666000000000002  0.92164  0.61242  1.0000
  N   N12       1.0  0.31118000000000007  0.9632000000000001  0.69711  1.0000
  N   N13       1.0  0.30073  0.7811100000000001  0.07215  1.0000
  N   N14       1.0  0.28666  0.70825  0.12277  1.0000
  N   N15       1.0  0.1532  0.48943  0.26313  1.0000
  N   N16       1.0  0.20579  0.56985  0.23889000000000002  1.0000
  N   N17       1.0  0.5423  0.6225200000000001  0.2596  1.0000
  N   N18       1.0  0.43432000000000004  0.63082  0.25494  1.0000
  N   N19       1.0  0.91799  0.20062999999999998  0.50279  1.0000
  N   N20       1.0  0.01074  0.25722  0.52978  1.0000
  N   N21       1.0  0.16972  0.37470000000000003  0.33477  1.0000
  N   N22       1.0  0.17669  0.34067  0.41934999999999995  1.0000
  N   N23       1.0  0.31168  0.33373  0.6862  1.0000
  N   N24       1.0  0.23042  0.30211  0.61536  1.0000
  N   N25       1.0  0.81599  0.10533999999999999  0.51624  1.0000
  N   N26       1.0  0.82739  0.06710000000000005  0.5968  1.0000
  N   N27       1.0  0.09855  0.9141  0.62484  1.0000
  N   N28       1.0  0.00572  0.96346  0.67183  1.0000
  N   N29       1.0  0.74665  0.07835999999999996  0.8876499999999999  1.0000
  N   N30       1.0  0.8113300000000001  0.03690000000000005  0.8029900000000001  1.0000
  N   N31       1.0  0.80059  0.21871000000000002  0.42745  1.0000
  N   N32       1.0  0.78657  0.29202  0.3773  1.0000
  N   N33       1.0  0.65306  0.5104699999999999  0.23677999999999996  1.0000
  N   N34       1.0  0.7057  0.42998  0.26087  1.0000
  N   N35       1.0  0.04229000000000001  0.37733  0.24  1.0000
  N   N36       1.0  0.93437  0.36919  0.24493  1.0000
  N   N37       1.0  0.58166  0.20005  0.00234  1.0000
  N   N38       1.0  0.48908000000000007  0.2569  0.02965  1.0000
  N   N39       1.0  0.33061  0.37459  0.83465  1.0000
  N   N40       1.0  0.32349  0.34078  0.91931  1.0000
  N   N41       1.0  0.18861  0.33413  0.18667  1.0000
  N   N42       1.0  0.26966  0.30215  0.11548999999999998  1.0000
  N   N43       1.0  0.68396  0.105  0.01602  1.0000
  N   N44       1.0  0.6727400000000001  0.06736  0.0971  1.0000
  N   N45       1.0  0.40209  0.91428  0.12507  1.0000
  N   N46       1.0  0.49493000000000004  0.96332  0.17211  1.0000
  N   N47       1.0  0.75386  0.07848999999999999  0.38782999999999995  1.0000
  N   N48       1.0  0.68911  0.03719999999999998  0.30331  1.0000
  N   N49       1.0  0.6995600000000001  0.21910999999999997  0.92778  1.0000
  N   N50       1.0  0.7137400000000002  0.29219999999999996  0.8773999999999998  1.0000
  N   N51       1.0  0.8467  0.51081  0.73691  1.0000
  N   N52       1.0  0.7940600000000001  0.43021  0.76073  1.0000
  N   N53       1.0  0.45782  0.3773  0.74014  1.0000
  N   N54       1.0  0.5657000000000001  0.36894  0.74484  1.0000
  N   N55       1.0  0.08187  0.79978  0.49751000000000006  1.0000
  N   N56       1.0  0.98924  0.74312  0.47041  1.0000
  N   N57       1.0  0.8310700000000001  0.62542  0.66517  1.0000
  N   N58       1.0  0.8236600000000001  0.65914  0.58052  1.0000
  N   N59       1.0  0.68864  0.66601  0.31364  1.0000
  N   N60       1.0  0.76982  0.69791  0.38461  1.0000
  N   N61       1.0  0.18401000000000003  0.8946200000000001  0.48378999999999994  1.0000
  N   N62       1.0  0.17273  0.93255  0.40302  1.0000
  N   N63       1.0  0.90193  0.08587999999999997  0.37495  1.0000
  N   N64       1.0  0.9948900000000003  0.03671  0.32817  1.0000
  N   N65       1.0  0.25358  0.9212600000000001  0.11200000000000002  1.0000
  N   N66       1.0  0.1892  0.96275  0.19688999999999998  1.0000
  N   N67       1.0  0.19927000000000003  0.7810800000000001  0.57241  1.0000
  N   N68       1.0  0.21345000000000003  0.7081800000000001  0.62297  1.0000
  N   N69       1.0  0.34667  0.48906  0.76281  1.0000
  N   N70       1.0  0.2942000000000001  0.57017  0.7395  1.0000
  N   N71       1.0  0.95759  0.62264  0.75961  1.0000
  N   N72       1.0  0.0655  0.63071  0.75491  1.0000
