data_image0
_chemical_formula_structural       Gd12H176C320O64
_chemical_formula_sum              "Gd12 H176 C320 O64"
_cell_length_a       15.88091
_cell_length_b       30.12095
_cell_length_c       32.26397999999999
_cell_angle_alpha    89.99442
_cell_angle_beta     90.00947000000001
_cell_angle_gamma    105.54456

_space_group_name_H-M_alt    "P 1"
_space_group_IT_number       1

loop_
  _space_group_symop_operation_xyz
  'x, y, z'

loop_
  _atom_site_type_symbol
  _atom_site_label
  _atom_site_symmetry_multiplicity
  _atom_site_fract_x
  _atom_site_fract_y
  _atom_site_fract_z
  _atom_site_occupancy
  Gd  Gd1       1.0  0.9232800000000001  0.26647  0.72675  1.0000
  Gd  Gd2       1.0  0.57671  0.73509  0.72559  1.0000
  Gd  Gd3       1.0  0.3403099999999999  0.26525  0.77368  1.0000
  Gd  Gd4       1.0  0.15960999999999995  0.73532  0.77398  1.0000
  Gd  Gd5       1.0  0.07711000000000001  0.7352  0.2734199999999999  1.0000
  Gd  Gd6       1.0  0.4224  0.26469  0.27389999999999987  1.0000
  Gd  Gd7       1.0  0.65983  0.73547  0.22635  1.0000
  Gd  Gd8       1.0  0.8401999999999997  0.26452  0.22616  1.0000
  Gd  Gd9       1.0  0.10204  0.20589  0.7496399999999998  1.0000
  Gd  Gd10      1.0  0.39767999999999987  0.79382  0.74982  1.0000
  Gd  Gd11      1.0  0.8983699999999999  0.7952599999999999  0.24970999999999996  1.0000
  Gd  Gd12      1.0  0.6016699999999998  0.20485  0.24942000000000003  1.0000
  H   H1        1.0  0.20624999999999988  0.46616999999999986  0.56933  1.0000
  H   H2        1.0  0.24447999999999992  0.34555  0.5101  1.0000
  H   H3        1.0  0.2862899999999999  0.47233999999999987  0.4416599999999999  1.0000
  H   H4        1.0  0.09859999999999997  0.40984999999999994  0.59977  1.0000
  H   H5        1.0  0.05851999999999996  0.36572  0.6652  1.0000
  H   H6        1.0  0.25047  0.29191  0.64037  1.0000
  H   H7        1.0  0.2928999999999999  0.33698  0.57547  1.0000
  H   H8        1.0  0.19934  0.31573  0.4513599999999999  1.0000
  H   H9        1.0  0.23320000000000002  0.27437  0.38947  1.0000
  H   H10       1.0  0.40271  0.4004999999999999  0.34339999999999987  1.0000
  H   H11       1.0  0.37438  0.44187  0.40648  1.0000
  H   H12       1.0  0.23313  0.03665999999999999  0.58467  1.0000
  H   H13       1.0  0.3581399999999999  0.15881  0.51535  1.0000
  H   H14       1.0  0.31299  0.02551  0.4585499999999999  1.0000
  H   H15       1.0  0.41991  0.17766  0.5779599999999998  1.0000
  H   H16       1.0  0.42024999999999996  0.22587999999999997  0.6401999999999998  1.0000
  H   H17       1.0  0.16756999999999997  0.13872999999999996  0.6748599999999998  1.0000
  H   H18       1.0  0.16707999999999995  0.09115  0.61259  1.0000
  H   H19       1.0  0.4471299999999999  0.06541  0.4294199999999999  1.0000
  H   H20       1.0  0.50645  0.10111  0.3621699999999999  1.0000
  H   H21       1.0  0.37669  0.20791  0.3805599999999999  1.0000
  H   H22       1.0  0.31705999999999995  0.17229999999999995  0.44759  1.0000
  H   H23       1.0  0.29297  0.53442  0.5692299999999998  1.0000
  H   H24       1.0  0.2555599999999998  0.6548  0.5090999999999998  1.0000
  H   H25       1.0  0.21476999999999993  0.52763  0.44131  1.0000
  H   H26       1.0  0.4009199999999999  0.59042  0.59937  1.0000
  H   H27       1.0  0.44096  0.63425  0.6649599999999998  1.0000
  H   H28       1.0  0.24897  0.70804  0.6404599999999998  1.0000
  H   H29       1.0  0.2067599999999999  0.6634199999999999  0.57533  1.0000
  H   H30       1.0  0.2999899999999999  0.6840699999999998  0.44928  1.0000
  H   H31       1.0  0.26547  0.72412  0.3867699999999999  1.0000
  H   H32       1.0  0.09409999999999996  0.5973199999999999  0.34315  1.0000
  H   H33       1.0  0.12359  0.55729  0.40675  1.0000
  H   H34       1.0  0.26606999999999986  0.96322  0.5848  1.0000
  H   H35       1.0  0.14154999999999987  0.8409499999999998  0.51554  1.0000
  H   H36       1.0  0.1869299999999999  0.9741299999999998  0.4585  1.0000
  H   H37       1.0  0.0801199999999999  0.8219099999999999  0.57797  1.0000
  H   H38       1.0  0.08059999999999998  0.7736  0.6401999999999998  1.0000
  H   H39       1.0  0.33237  0.86132  0.6749999999999998  1.0000
  H   H40       1.0  0.33249999999999996  0.9091  0.61277  1.0000
  H   H41       1.0  0.052530000000000035  0.93416  0.4296199999999999  1.0000
  H   H42       1.0  0.9934599999999998  0.89871  0.36224  1.0000
  H   H43       1.0  0.12406999999999993  0.7922099999999999  0.3802199999999999  1.0000
  H   H44       1.0  0.18375  0.82767  0.44731  1.0000
  H   H45       1.0  0.25917  0.4659299999999999  0.93013  1.0000
  H   H46       1.0  0.10146  0.34488  0.99009  1.0000
  H   H47       1.0  0.18727999999999997  0.47208  0.05805  1.0000
  H   H48       1.0  0.31086  0.40967  0.8996  1.0000
  H   H49       1.0  0.30641  0.36499  0.8345  1.0000
  H   H50       1.0  0.0399  0.29082  0.8597899999999998  1.0000
  H   H51       1.0  0.04305  0.33626  0.92443  1.0000
  H   H52       1.0  0.11746999999999996  0.3156999999999999  0.04981  1.0000
  H   H53       1.0  0.04131  0.2746  0.11166  1.0000
  H   H54       1.0  0.99587  0.40043  0.1561  1.0000
  H   H55       1.0  0.06617  0.44139  0.09291  1.0000
  H   H56       1.0  0.8029199999999997  0.03658  0.91583  1.0000
  H   H57       1.0  0.8003  0.15862  0.9849299999999998  1.0000
  H   H58       1.0  0.71293  0.02537  0.04213999999999998  1.0000
  H   H59       1.0  0.7574399999999998  0.17736  0.9224399999999998  1.0000
  H   H60       1.0  0.8048999999999995  0.22546  0.8599999999999998  1.0000
  H   H61       1.0  0.9692499999999997  0.13868  0.82481  1.0000
  H   H62       1.0  0.92249  0.09112  0.8872199999999998  1.0000
  H   H63       1.0  0.6182  0.06439  0.07075999999999998  1.0000
  H   H64       1.0  0.59356  0.09966  0.13803  1.0000
  H   H65       1.0  0.83011  0.20779  0.12013999999999997  1.0000
  H   H66       1.0  0.8553899999999998  0.17249  0.05323  1.0000
  H   H67       1.0  0.24118999999999993  0.53424  0.9303599999999997  1.0000
  H   H68       1.0  0.39849  0.65516  0.9906599999999998  1.0000
  H   H69       1.0  0.31445  0.52748  0.05803999999999999  1.0000
  H   H70       1.0  0.1891  0.59045  0.9001  1.0000
  H   H71       1.0  0.19344999999999996  0.63474  0.83478  1.0000
  H   H72       1.0  0.46  0.70903  0.8598499999999998  1.0000
  H   H73       1.0  0.45693  0.66408  0.92472  1.0000
  H   H74       1.0  0.38237  0.6839  0.05026  1.0000
  H   H75       1.0  0.4581  0.72491  0.11229999999999998  1.0000
  H   H76       1.0  0.50397  0.5991499999999998  0.15661999999999995  1.0000
  H   H77       1.0  0.43432  0.55832  0.09325  1.0000
  H   H78       1.0  0.69757  0.96306  0.9158099999999998  1.0000
  H   H79       1.0  0.69969  0.841  0.9849999999999998  1.0000
  H   H80       1.0  0.78748  0.9742699999999999  0.04213999999999998  1.0000
  H   H81       1.0  0.74438  0.82293  0.92194  1.0000
  H   H82       1.0  0.6976899999999998  0.7750999999999999  0.85922  1.0000
  H   H83       1.0  0.5307799999999998  0.8608  0.8248499999999998  1.0000
  H   H84       1.0  0.57706  0.90824  0.8873599999999998  1.0000
  H   H85       1.0  0.88265  0.93509  0.07085  1.0000
  H   H86       1.0  0.90728  0.89966  0.13798999999999995  1.0000
  H   H87       1.0  0.66949  0.79224  0.12055999999999997  1.0000
  H   H88       1.0  0.6440899999999998  0.8276499999999999  0.053659999999999985  1.0000
  H   H89       1.0  0.79407  0.53439  0.4299599999999999  1.0000
  H   H90       1.0  0.75554  0.65466  0.48976999999999987  1.0000
  H   H91       1.0  0.71457  0.52759  0.55773  1.0000
  H   H92       1.0  0.9019200000000002  0.59115  0.39965  1.0000
  H   H93       1.0  0.94228  0.63572  0.33452  1.0000
  H   H94       1.0  0.74917  0.70876  0.35943999999999987  1.0000
  H   H95       1.0  0.70645  0.6632  0.4240599999999999  1.0000
  H   H96       1.0  0.8007299999999998  0.68427  0.5487499999999997  1.0000
  H   H97       1.0  0.7661299999999999  0.7253699999999998  0.61061  1.0000
  H   H98       1.0  0.59643  0.59909  0.65617  1.0000
  H   H99       1.0  0.62576  0.55788  0.59323  1.0000
  H   H100      1.0  0.76676  0.9634899999999997  0.41579  1.0000
  H   H101      1.0  0.64178  0.84117  0.48491  1.0000
  H   H102      1.0  0.6876  0.97433  0.5420699999999998  1.0000
  H   H103      1.0  0.58029  0.82229  0.4221199999999999  1.0000
  H   H104      1.0  0.5803799999999998  0.77419  0.35979  1.0000
  H   H105      1.0  0.83256  0.8617  0.32517  1.0000
  H   H106      1.0  0.83298  0.90931  0.3874799999999999  1.0000
  H   H107      1.0  0.55336  0.93472  0.57088  1.0000
  H   H108      1.0  0.49309  0.89902  0.63798  1.0000
  H   H109      1.0  0.6217399999999998  0.7917199999999999  0.6198499999999998  1.0000
  H   H110      1.0  0.6826399999999998  0.82744  0.55306  1.0000
  H   H111      1.0  0.7079699999999998  0.46568999999999994  0.4298899999999999  1.0000
  H   H112      1.0  0.7438899999999996  0.3452  0.4904199999999999  1.0000
  H   H113      1.0  0.78572  0.47261  0.55791  1.0000
  H   H114      1.0  0.5992  0.40956  0.39989999999999987  1.0000
  H   H115      1.0  0.5579199999999997  0.36509  0.33474  1.0000
  H   H116      1.0  0.7491099999999998  0.29082  0.35942  1.0000
  H   H117      1.0  0.7928099999999997  0.33615  0.42407  1.0000
  H   H118      1.0  0.69905  0.3161899999999999  0.55028  1.0000
  H   H119      1.0  0.73344  0.27598  0.6128299999999998  1.0000
  H   H120      1.0  0.9050599999999999  0.4026999999999999  0.65649  1.0000
  H   H121      1.0  0.8760699999999998  0.44277999999999995  0.59286  1.0000
  H   H122      1.0  0.73387  0.03631  0.41557  1.0000
  H   H123      1.0  0.85804  0.15906  0.48424  1.0000
  H   H124      1.0  0.81311  0.02626  0.54196  1.0000
  H   H125      1.0  0.9200399999999997  0.17730999999999997  0.42166  1.0000
  H   H126      1.0  0.91962  0.22566  0.35945  1.0000
  H   H127      1.0  0.66695  0.13841999999999993  0.32507  1.0000
  H   H128      1.0  0.66692  0.09069  0.38726  1.0000
  H   H129      1.0  0.94648  0.06617  0.57092  1.0000
  H   H130      1.0  0.005160000000000005  0.10215  0.63824  1.0000
  H   H131      1.0  0.87408  0.20823  0.6195799999999998  1.0000
  H   H132      1.0  0.8150599999999998  0.17255  0.55228  1.0000
  H   H133      1.0  0.74213  0.53424  0.07056  1.0000
  H   H134      1.0  0.8986199999999995  0.6553499999999998  0.01024  1.0000
  H   H135      1.0  0.8133799999999999  0.52792  0.9425699999999998  1.0000
  H   H136      1.0  0.6894399999999998  0.59078  0.10039  1.0000
  H   H137      1.0  0.69349  0.63552  0.16547  1.0000
  H   H138      1.0  0.9603099999999999  0.70945  0.14058  1.0000
  H   H139      1.0  0.9575399999999995  0.66387  0.07603  1.0000
  H   H140      1.0  0.8821199999999998  0.68437  0.9506799999999997  1.0000
  H   H141      1.0  0.9582199999999995  0.72558  0.8887999999999998  1.0000
  H   H142      1.0  0.004129999999999928  0.5998799999999999  0.8443599999999998  1.0000
  H   H143      1.0  0.9338299999999996  0.55878  0.90753  1.0000
  H   H144      1.0  0.1966399999999999  0.9634999999999998  0.08352  1.0000
  H   H145      1.0  0.19959000000000005  0.84143  0.01453  1.0000
  H   H146      1.0  0.28773  0.9747  0.95739  1.0000
  H   H147      1.0  0.2430999999999999  0.82315  0.07716  1.0000
  H   H148      1.0  0.19678999999999994  0.77541  0.13994999999999994  1.0000
  H   H149      1.0  0.030739999999999986  0.86138  0.17478  1.0000
  H   H150      1.0  0.07649999999999986  0.9087599999999998  0.11218  1.0000
  H   H151      1.0  0.38252  0.93558  0.92875  1.0000
  H   H152      1.0  0.40829999999999994  0.8999799999999999  0.8619099999999997  1.0000
  H   H153      1.0  0.17102  0.79216  0.8793699999999998  1.0000
  H   H154      1.0  0.14506000000000002  0.8277  0.94601  1.0000
  H   H155      1.0  0.7599799999999999  0.46567  0.07037  1.0000
  H   H156      1.0  0.6018199999999998  0.34508999999999995  0.00985  1.0000
  H   H157      1.0  0.6867199999999998  0.47287  0.94275  1.0000
  H   H158      1.0  0.8113599999999997  0.40932  0.1006  1.0000
  H   H159      1.0  0.80659  0.3647599999999999  0.16576  1.0000
  H   H160      1.0  0.54007  0.2906499999999999  0.14030999999999993  1.0000
  H   H161      1.0  0.54344  0.33601  0.07561  1.0000
  H   H162      1.0  0.6183099999999998  0.31671  0.9496599999999997  1.0000
  H   H163      1.0  0.54143  0.27627  0.88753  1.0000
  H   H164      1.0  0.4943699999999998  0.40244  0.8450399999999998  1.0000
  H   H165      1.0  0.5656699999999999  0.44265999999999994  0.90839  1.0000
  H   H166      1.0  0.3029099999999999  0.03686  0.08372  1.0000
  H   H167      1.0  0.3003899999999999  0.15903  0.01482  1.0000
  H   H168      1.0  0.21294999999999994  0.0259  0.95741  1.0000
  H   H169      1.0  0.25608  0.17714  0.07749999999999997  1.0000
  H   H170      1.0  0.30375  0.22538  0.13998  1.0000
  H   H171      1.0  0.4693499999999998  0.13912  0.17481  1.0000
  H   H172      1.0  0.42275999999999997  0.09149  0.11241999999999998  1.0000
  H   H173      1.0  0.11759000000000001  0.06523  0.92895  1.0000
  H   H174      1.0  0.09269  0.10077  0.86187  1.0000
  H   H175      1.0  0.33058  0.20808  0.87932  1.0000
  H   H176      1.0  0.3561199999999999  0.17252  0.94607  1.0000
  C   C1        1.0  0.24812999999999993  0.47525  0.50553  1.0000
  C   C2        1.0  0.22398999999999994  0.44957  0.5419999999999998  1.0000
  C   C3        1.0  0.22295999999999994  0.40292  0.54416  1.0000
  C   C4        1.0  0.24485  0.38166  0.50861  1.0000
  C   C5        1.0  0.26627  0.4059  0.4712099999999999  1.0000
  C   C6        1.0  0.2685399999999999  0.45290999999999987  0.47024  1.0000
  C   C7        1.0  0.19899999999999998  0.37673999999999996  0.58304  1.0000
  C   C8        1.0  0.13334999999999997  0.38484  0.60904  1.0000
  C   C9        1.0  0.11027000000000003  0.36003  0.6455199999999998  1.0000
  C   C10       1.0  0.15227  0.32625  0.65697  1.0000
  C   C11       1.0  0.21827  0.31807  0.63133  1.0000
  C   C12       1.0  0.24107999999999993  0.34303  0.59491  1.0000
  C   C13       1.0  0.12348  0.29763  0.69395  1.0000
  C   C14       1.0  0.285  0.38182  0.43377  1.0000
  C   C15       1.0  0.24545  0.33433  0.4283  1.0000
  C   C16       1.0  0.26325  0.31105  0.39355  1.0000
  C   C17       1.0  0.3202299999999999  0.33491  0.36282  1.0000
  C   C18       1.0  0.3587999999999999  0.38239  0.36748  1.0000
  C   C19       1.0  0.34195  0.4053899999999999  0.4026299999999999  1.0000
  C   C20       1.0  0.34227  0.31011  0.32654  1.0000
  C   C21       1.0  0.26803  0.02528  0.52162  1.0000
  C   C22       1.0  0.26291  0.05279  0.55613  1.0000
  C   C23       1.0  0.29634  0.10113  0.5545  1.0000
  C   C24       1.0  0.3336899999999999  0.1215  0.5172299999999997  1.0000
  C   C25       1.0  0.34006  0.09469  0.48248  1.0000
  C   C26       1.0  0.3080199999999999  0.04663  0.48528  1.0000
  C   C27       1.0  0.2939499999999999  0.1303  0.59088  1.0000
  C   C28       1.0  0.36416000000000004  0.1695  0.59885  1.0000
  C   C29       1.0  0.36502  0.19648999999999994  0.63367  1.0000
  C   C30       1.0  0.2949699999999999  0.18544  0.66227  1.0000
  C   C31       1.0  0.22331999999999994  0.14699  0.65399  1.0000
  C   C32       1.0  0.22323999999999988  0.12014  0.61902  1.0000
  C   C33       1.0  0.30066  0.21249  0.69979  1.0000
  C   C34       1.0  0.3778699999999999  0.11637  0.4432299999999999  1.0000
  C   C35       1.0  0.4311599999999999  0.09637  0.41852  1.0000
  C   C36       1.0  0.46474  0.11629999999999997  0.38105  1.0000
  C   C37       1.0  0.44556  0.15674999999999994  0.3671  1.0000
  C   C38       1.0  0.3924499999999999  0.17696999999999993  0.39163  1.0000
  C   C39       1.0  0.3595199999999999  0.15707  0.42917  1.0000
  C   C40       1.0  0.4808099999999999  0.17834999999999998  0.3274299999999999  1.0000
  C   C41       1.0  0.25208  0.52501  0.5053499999999997  1.0000
  C   C42       1.0  0.2757699999999999  0.55091  0.54171  1.0000
  C   C43       1.0  0.27693999999999985  0.5976  0.54361  1.0000
  C   C44       1.0  0.25519999999999987  0.61867  0.50786  1.0000
  C   C45       1.0  0.23378999999999991  0.5941299999999998  0.4705699999999999  1.0000
  C   C46       1.0  0.2319899999999999  0.54716  0.46986  1.0000
  C   C47       1.0  0.30085  0.62374  0.58257  1.0000
  C   C48       1.0  0.3663799999999999  0.6155099999999998  0.60861  1.0000
  C   C49       1.0  0.3893999999999999  0.6401  0.64522  1.0000
  C   C50       1.0  0.34737  0.67378  0.65683  1.0000
  C   C51       1.0  0.28142  0.68206  0.63121  1.0000
  C   C52       1.0  0.25874  0.65735  0.59464  1.0000
  C   C53       1.0  0.3759499999999999  0.70224  0.69399  1.0000
  C   C54       1.0  0.21418000000000004  0.61764  0.43289  1.0000
  C   C55       1.0  0.25357999999999997  0.6649999999999998  0.42659  1.0000
  C   C56       1.0  0.23533999999999997  0.68755  0.39146999999999993  1.0000
  C   C57       1.0  0.1777699999999999  0.6631599999999997  0.36117  1.0000
  C   C58       1.0  0.13876999999999995  0.6158799999999998  0.3667699999999999  1.0000
  C   C59       1.0  0.15629999999999988  0.59361  0.4022599999999999  1.0000
  C   C60       1.0  0.15568  0.68766  0.32471  1.0000
  C   C61       1.0  0.23140999999999987  0.9745099999999998  0.5216599999999998  1.0000
  C   C62       1.0  0.23644  0.94706  0.55623  1.0000
  C   C63       1.0  0.20309999999999986  0.8987399999999998  0.55463  1.0000
  C   C64       1.0  0.16597  0.87826  0.51737  1.0000
  C   C65       1.0  0.1598199999999999  0.9049899999999999  0.4825399999999999  1.0000
  C   C66       1.0  0.19171999999999997  0.95306  0.4852999999999999  1.0000
  C   C67       1.0  0.20581999999999984  0.8695399999999998  0.59097  1.0000
  C   C68       1.0  0.13596  0.83015  0.59883  1.0000
  C   C69       1.0  0.13545  0.80317  0.63363  1.0000
  C   C70       1.0  0.20540999999999995  0.81447  0.6622299999999998  1.0000
  C   C71       1.0  0.27677999999999997  0.85301  0.65402  1.0000
  C   C72       1.0  0.2766299999999999  0.87989  0.61907  1.0000
  C   C73       1.0  0.1994999999999999  0.7875699999999999  0.69993  1.0000
  C   C74       1.0  0.12208000000000001  0.8833  0.44328  1.0000
  C   C75       1.0  0.0686099999999999  0.9032699999999998  0.41864  1.0000
  C   C76       1.0  0.035219999999999994  0.8835  0.38109  1.0000
  C   C77       1.0  0.05478999999999992  0.84321  0.36704  1.0000
  C   C78       1.0  0.10811000000000001  0.82303  0.39145  1.0000
  C   C79       1.0  0.1408999999999999  0.8427899999999998  0.42905  1.0000
  C   C80       1.0  0.01959999999999997  0.82166  0.32742  1.0000
  C   C81       1.0  0.22756999999999994  0.475  0.99406  1.0000
  C   C82       1.0  0.2254199999999999  0.44924999999999987  0.95762  1.0000
  C   C83       1.0  0.17989  0.40242  0.95568  1.0000
  C   C84       1.0  0.13714  0.38111  0.9914299999999998  1.0000
  C   C85       1.0  0.14011999999999997  0.4055  0.02878  1.0000
  C   C86       1.0  0.1852  0.4526  0.02951  1.0000
  C   C87       1.0  0.17722999999999994  0.3761799999999999  0.9167799999999998  1.0000
  C   C88       1.0  0.25091  0.38432  0.89061  1.0000
  C   C89       1.0  0.24893999999999997  0.35928  0.8542499999999997  1.0000
  C   C90       1.0  0.17274  0.32528  0.8429999999999997  1.0000
  C   C91       1.0  0.09857999999999999  0.31712  0.8687299999999998  1.0000
  C   C92       1.0  0.10106  0.34225  0.90505  1.0000
  C   C93       1.0  0.17186999999999994  0.2963899999999999  0.80612  1.0000
  C   C94       1.0  0.09695  0.38161  0.06639  1.0000
  C   C95       1.0  0.08933999999999997  0.3343  0.07247  1.0000
  C   C96       1.0  0.04775000000000001  0.31117  0.10725999999999997  1.0000
  C   C97       1.0  0.013860000000000016  0.335  0.13761  1.0000
  C   C98       1.0  0.02243000000000001  0.38231  0.13240999999999994  1.0000
  C   C99       1.0  0.06265999999999998  0.40511  0.09715  1.0000
  C   C100      1.0  0.96688  0.31022  0.17398  1.0000
  C   C101      1.0  0.75722  0.02517  0.97896  1.0000
  C   C102      1.0  0.7894599999999999  0.05271999999999999  0.94435  1.0000
  C   C103      1.0  0.80423  0.10102  0.9458299999999997  1.0000
  C   C104      1.0  0.78755  0.12133  0.98312  1.0000
  C   C105      1.0  0.75482  0.0945  0.01799  1.0000
  C   C106      1.0  0.73886  0.04646  0.01531  1.0000
  C   C107      1.0  0.83551  0.13018  0.90931  1.0000
  C   C108      1.0  0.80467  0.16925  0.90138  1.0000
  C   C109      1.0  0.8305699999999996  0.19615  0.86642  1.0000
  C   C110      1.0  0.8891999999999998  0.18523  0.83766  1.0000
  C   C111      1.0  0.92207  0.14686  0.84584  1.0000
  C   C112      1.0  0.89552  0.12005  0.88092  1.0000
  C   C113      1.0  0.9104299999999997  0.21236  0.80006  1.0000
  C   C114      1.0  0.7384699999999997  0.11605  0.05721  1.0000
  C   C115      1.0  0.66486  0.09557  0.08176  1.0000
  C   C116      1.0  0.65058  0.11522999999999997  0.11919  1.0000
  C   C117      1.0  0.70987  0.15592999999999999  0.13322  1.0000
  C   C118      1.0  0.78359  0.17666  0.10893  1.0000
  C   C119      1.0  0.7973  0.15696  0.07144  1.0000
  C   C120      1.0  0.69514  0.17719  0.17275  1.0000
  C   C121      1.0  0.27347  0.52489  0.9941499999999999  1.0000
  C   C122      1.0  0.27514  0.55082  0.9578599999999998  1.0000
  C   C123      1.0  0.32038999999999995  0.5976899999999999  0.95603  1.0000
  C   C124      1.0  0.3631999999999999  0.61886  0.99183  1.0000
  C   C125      1.0  0.3606  0.59429  0.029049999999999992  1.0000
  C   C126      1.0  0.3161  0.54712  0.02961  1.0000
  C   C127      1.0  0.32277  0.62397  0.91716  1.0000
  C   C128      1.0  0.24903999999999998  0.61574  0.89099  1.0000
  C   C129      1.0  0.25097999999999987  0.64061  0.85451  1.0000
  C   C130      1.0  0.32716999999999996  0.6745399999999999  0.8430799999999998  1.0000
  C   C131      1.0  0.4012999999999999  0.6828  0.8688699999999998  1.0000
  C   C132      1.0  0.3988799999999999  0.65788  0.90532  1.0000
  C   C133      1.0  0.32797  0.7034  0.8061599999999998  1.0000
  C   C134      1.0  0.4033599999999999  0.6180799999999997  0.06678  1.0000
  C   C135      1.0  0.4106199999999999  0.66533  0.07290999999999997  1.0000
  C   C136      1.0  0.452  0.68841  0.10775  1.0000
  C   C137      1.0  0.48597  0.66461  0.1381  1.0000
  C   C138      1.0  0.47766  0.61733  0.13288  1.0000
  C   C139      1.0  0.43768  0.59458  0.09754  1.0000
  C   C140      1.0  0.5331199999999998  0.68963  0.17430999999999994  1.0000
  C   C141      1.0  0.7432099999999998  0.97445  0.97896  1.0000
  C   C142      1.0  0.7109199999999999  0.9469099999999999  0.94435  1.0000
  C   C143      1.0  0.6961099999999998  0.8986199999999998  0.94586  1.0000
  C   C144      1.0  0.71261  0.87828  0.98318  1.0000
  C   C145      1.0  0.74545  0.90513  0.01805  1.0000
  C   C146      1.0  0.76153  0.95316  0.01532  1.0000
  C   C147      1.0  0.6650199999999995  0.8695399999999998  0.90923  1.0000
  C   C148      1.0  0.6967099999999998  0.83083  0.90099  1.0000
  C   C149      1.0  0.67136  0.80415  0.86583  1.0000
  C   C150      1.0  0.61238  0.81501  0.83722  1.0000
  C   C151      1.0  0.5783799999999998  0.85286  0.8457899999999998  1.0000
  C   C152      1.0  0.6045399999999997  0.8795  0.8810099999999997  1.0000
  C   C153      1.0  0.59182  0.78855  0.79918  1.0000
  C   C154      1.0  0.7618199999999998  0.88365  0.05733999999999999  1.0000
  C   C155      1.0  0.8357099999999997  0.90398  0.0818  1.0000
  C   C156      1.0  0.8500099999999998  0.88427  0.11921999999999998  1.0000
  C   C157      1.0  0.79041  0.84368  0.13327999999999995  1.0000
  C   C158      1.0  0.71623  0.82321  0.10919  1.0000
  C   C159      1.0  0.7025299999999998  0.84296  0.07172  1.0000
  C   C160      1.0  0.8050899999999998  0.82227  0.17272  1.0000
  C   C161      1.0  0.7524899999999998  0.52496  0.4937699999999999  1.0000
  C   C162      1.0  0.7764199999999998  0.55085  0.4573899999999999  1.0000
  C   C163      1.0  0.7773099999999997  0.59752  0.4554199999999999  1.0000
  C   C164      1.0  0.7553999999999997  0.61856  0.49112  1.0000
  C   C165      1.0  0.73418  0.5941299999999998  0.52846  1.0000
  C   C166      1.0  0.73214  0.54713  0.5292  1.0000
  C   C167      1.0  0.80115  0.62391  0.41657  1.0000
  C   C168      1.0  0.8670999999999998  0.61618  0.39053  1.0000
  C   C169      1.0  0.8902899999999998  0.64126  0.35416  1.0000
  C   C170      1.0  0.8479799999999998  0.67496  0.34284  1.0000
  C   C171      1.0  0.78166  0.68271  0.36847  1.0000
  C   C172      1.0  0.75873  0.65749  0.4047499999999999  1.0000
  C   C173      1.0  0.87639  0.704  0.3059699999999999  1.0000
  C   C174      1.0  0.71527  0.618  0.56606  1.0000
  C   C175      1.0  0.75454  0.6655099999999999  0.5716799999999997  1.0000
  C   C176      1.0  0.73629  0.68869  0.60638  1.0000
  C   C177      1.0  0.6791099999999998  0.66478  0.637  1.0000
  C   C178      1.0  0.6406699999999997  0.61728  0.63223  1.0000
  C   C179      1.0  0.65809  0.59435  0.59712  1.0000
  C   C180      1.0  0.65739  0.68967  0.67327  1.0000
  C   C181      1.0  0.73216  0.97465  0.47888999999999987  1.0000
  C   C182      1.0  0.73707  0.94723  0.4443  1.0000
  C   C183      1.0  0.7036999999999998  0.89889  0.4458299999999999  1.0000
  C   C184      1.0  0.6663999999999999  0.8784699999999999  0.48311  1.0000
  C   C185      1.0  0.66028  0.9052  0.5179699999999998  1.0000
  C   C186      1.0  0.6925199999999997  0.9532599999999999  0.51529  1.0000
  C   C187      1.0  0.70622  0.86981  0.40937  1.0000
  C   C188      1.0  0.63615  0.83054  0.40128  1.0000
  C   C189      1.0  0.63547  0.80365  0.36639  1.0000
  C   C190      1.0  0.70552  0.81487  0.33778  1.0000
  C   C191      1.0  0.77694  0.8534099999999998  0.3461299999999999  1.0000
  C   C192      1.0  0.7769099999999998  0.8802  0.38116  1.0000
  C   C193      1.0  0.69978  0.78787  0.30019  1.0000
  C   C194      1.0  0.6221599999999998  0.8835  0.55717  1.0000
  C   C195      1.0  0.5688799999999998  0.9036399999999998  0.58176  1.0000
  C   C196      1.0  0.53478  0.88376  0.61915  1.0000
  C   C197      1.0  0.55342  0.84319  0.6330999999999998  1.0000
  C   C198      1.0  0.60645  0.82278  0.6087399999999997  1.0000
  C   C199      1.0  0.6400099999999997  0.8427  0.57131  1.0000
  C   C200      1.0  0.51742  0.82168  0.67259  1.0000
  C   C201      1.0  0.74859  0.47517  0.4938299999999999  1.0000
  C   C202      1.0  0.72492  0.4492  0.45747  1.0000
  C   C203      1.0  0.72333  0.40243  0.45568  1.0000
  C   C204      1.0  0.7446299999999998  0.38139  0.49156  1.0000
  C   C205      1.0  0.7661399999999997  0.4059999999999999  0.5288299999999998  1.0000
  C   C206      1.0  0.76842  0.45302  0.52939  1.0000
  C   C207      1.0  0.69904  0.3760599999999999  0.41681  1.0000
  C   C208      1.0  0.6333999999999996  0.3842499999999999  0.3908  1.0000
  C   C209      1.0  0.60969  0.35933  0.3544  1.0000
  C   C210      1.0  0.6510999999999998  0.32531  0.34295  1.0000
  C   C211      1.0  0.7171699999999998  0.31708  0.3685099999999999  1.0000
  C   C212      1.0  0.74063  0.34217  0.40486  1.0000
  C   C213      1.0  0.6216099999999998  0.2966399999999999  0.30596  1.0000
  C   C214      1.0  0.7853499999999998  0.3825  0.5666299999999997  1.0000
  C   C215      1.0  0.7455899999999996  0.33517  0.5729799999999998  1.0000
  C   C216      1.0  0.76357  0.31256  0.60813  1.0000
  C   C217      1.0  0.821  0.33687  0.63852  1.0000
  C   C218      1.0  0.8602599999999998  0.38416  0.63291  1.0000
  C   C219      1.0  0.8431499999999998  0.40647  0.59735  1.0000
  C   C220      1.0  0.8424799999999999  0.31243  0.6751999999999998  1.0000
  C   C221      1.0  0.76859  0.02542  0.47874  1.0000
  C   C222      1.0  0.7634199999999998  0.0527  0.4440499999999999  1.0000
  C   C223      1.0  0.7965899999999998  0.10103  0.44541999999999987  1.0000
  C   C224      1.0  0.8337  0.12173  0.48259  1.0000
  C   C225      1.0  0.83985  0.09515999999999997  0.51754  1.0000
  C   C226      1.0  0.8081699999999998  0.04708  0.51501  1.0000
  C   C227      1.0  0.79396  0.13001  0.40889  1.0000
  C   C228      1.0  0.8640999999999998  0.16921  0.4008599999999999  1.0000
  C   C229      1.0  0.8645199999999998  0.19624999999999998  0.3661  1.0000
  C   C230      1.0  0.7942399999999998  0.18515999999999996  0.33766  1.0000
  C   C231      1.0  0.72275  0.14668  0.34593  1.0000
  C   C232      1.0  0.7229999999999998  0.11976  0.38085999999999987  1.0000
  C   C233      1.0  0.8001299999999999  0.21229  0.30009999999999987  1.0000
  C   C234      1.0  0.8770499999999998  0.117  0.55679  1.0000
  C   C235      1.0  0.93029  0.09712  0.58168  1.0000
  C   C236      1.0  0.9634899999999997  0.11716999999999997  0.61914  1.0000
  C   C237      1.0  0.9436499999999998  0.15755  0.6327599999999998  1.0000
  C   C238      1.0  0.8901199999999998  0.17745  0.60829  1.0000
  C   C239      1.0  0.85774  0.1575  0.5707199999999998  1.0000
  C   C240      1.0  0.97917  0.17964  0.6720599999999998  1.0000
  C   C241      1.0  0.77361  0.5251  0.00663  1.0000
  C   C242      1.0  0.77567  0.55091  0.043009999999999986  1.0000
  C   C243      1.0  0.82082  0.59778  0.044779999999999986  1.0000
  C   C244      1.0  0.8632199999999999  0.61908  0.00897  1.0000
  C   C245      1.0  0.8601699999999998  0.5946199999999998  0.97168  1.0000
  C   C246      1.0  0.8155699999999997  0.54747  0.9710799999999998  1.0000
  C   C247      1.0  0.82325  0.62413  0.08355  1.0000
  C   C248      1.0  0.74931  0.61609  0.10951999999999998  1.0000
  C   C249      1.0  0.7510899999999998  0.64116  0.14583  1.0000
  C   C250      1.0  0.8273399999999997  0.67506  0.15716  1.0000
  C   C251      1.0  0.9016799999999998  0.68317  0.13158  1.0000
  C   C252      1.0  0.8994199999999999  0.65799  0.09533  1.0000
  C   C253      1.0  0.82803  0.70393  0.19401  1.0000
  C   C254      1.0  0.9029499999999999  0.61853  0.9340299999999998  1.0000
  C   C255      1.0  0.9102999999999998  0.66582  0.92799  1.0000
  C   C256      1.0  0.9518499999999998  0.68902  0.8932199999999998  1.0000
  C   C257      1.0  0.9859599999999997  0.66524  0.86294  1.0000
  C   C258      1.0  0.97746  0.61792  0.86806  1.0000
  C   C259      1.0  0.93724  0.59505  0.90328  1.0000
  C   C260      1.0  0.03330999999999996  0.6899  0.82665  1.0000
  C   C261      1.0  0.2429499999999999  0.9748599999999997  0.02048  1.0000
  C   C262      1.0  0.21029000000000003  0.94735  0.05504  1.0000
  C   C263      1.0  0.19547  0.89906  0.053569999999999986  1.0000
  C   C264      1.0  0.21230999999999994  0.8787199999999998  0.0163  1.0000
  C   C265      1.0  0.24545999999999996  0.90553  0.9814599999999998  1.0000
  C   C266      1.0  0.26156  0.95357  0.98416  1.0000
  C   C267      1.0  0.16427999999999998  0.87  0.09014999999999997  1.0000
  C   C268      1.0  0.19575  0.83116  0.09824  1.0000
  C   C269      1.0  0.17050999999999994  0.80447  0.13337  1.0000
  C   C270      1.0  0.11175  0.81537  0.16211  1.0000
  C   C271      1.0  0.07801999999999999  0.85336  0.15369999999999995  1.0000
  C   C272      1.0  0.10406999999999998  0.88004  0.1185  1.0000
  C   C273      1.0  0.09127999999999999  0.78856  0.19989  1.0000
  C   C274      1.0  0.2622  0.88398  0.94227  1.0000
  C   C275      1.0  0.3360299999999999  0.90433  0.91781  1.0000
  C   C276      1.0  0.35087  0.88448  0.8805399999999998  1.0000
  C   C277      1.0  0.29166  0.84371  0.8665399999999998  1.0000
  C   C278      1.0  0.2175  0.82326  0.8906299999999998  1.0000
  C   C279      1.0  0.20342000000000005  0.84311  0.9279699999999997  1.0000
  C   C280      1.0  0.30627999999999994  0.8218999999999999  0.82726  1.0000
  C   C281      1.0  0.7277799999999998  0.47524  0.006609999999999999  1.0000
  C   C282      1.0  0.72596  0.4492  0.04285  1.0000
  C   C283      1.0  0.68033  0.40238  0.04457999999999999  1.0000
  C   C284      1.0  0.63745  0.38134  0.00876  1.0000
  C   C285      1.0  0.6402199999999998  0.4060599999999999  0.9716299999999998  1.0000
  C   C286      1.0  0.6850399999999998  0.4531599999999999  0.97113  1.0000
  C   C287      1.0  0.67765  0.3759399999999999  0.08335999999999998  1.0000
  C   C288      1.0  0.75131  0.38404  0.10957999999999997  1.0000
  C   C289      1.0  0.7491799999999997  0.35901999999999995  0.14595  1.0000
  C   C290      1.0  0.67288  0.32506  0.15717999999999996  1.0000
  C   C291      1.0  0.5988  0.31691999999999987  0.13138  1.0000
  C   C292      1.0  0.6014199999999997  0.34202  0.09504  1.0000
  C   C293      1.0  0.672  0.29614  0.19397999999999996  1.0000
  C   C294      1.0  0.59692  0.38259  0.93393  1.0000
  C   C295      1.0  0.58963  0.33543999999999996  0.92733  1.0000
  C   C296      1.0  0.5476299999999997  0.31273  0.8924699999999998  1.0000
  C   C297      1.0  0.51287  0.33686  0.8627  1.0000
  C   C298      1.0  0.5213199999999997  0.38406999999999997  0.8683799999999998  1.0000
  C   C299      1.0  0.56213  0.40645  0.9036699999999998  1.0000
  C   C300      1.0  0.4649999999999999  0.31231  0.8265  1.0000
  C   C301      1.0  0.25716  0.02558  0.02057  1.0000
  C   C302      1.0  0.28947  0.05305  0.05522  1.0000
  C   C303      1.0  0.3042  0.10133  0.05377999999999999  1.0000
  C   C304      1.0  0.2876299999999999  0.12174999999999997  0.01651  1.0000
  C   C305      1.0  0.25482  0.09498  0.98161  1.0000
  C   C306      1.0  0.23884999999999995  0.04696  0.9842599999999998  1.0000
  C   C307      1.0  0.3352099999999998  0.1304  0.09042  1.0000
  C   C308      1.0  0.3037799999999999  0.16925  0.09848  1.0000
  C   C309      1.0  0.3297499999999999  0.1962  0.13344999999999996  1.0000
  C   C310      1.0  0.38877  0.1854  0.1621  1.0000
  C   C311      1.0  0.42194  0.14718  0.15381999999999996  1.0000
  C   C312      1.0  0.3954899999999999  0.12034  0.11872  1.0000
  C   C313      1.0  0.41005  0.2124  0.19984  1.0000
  C   C314      1.0  0.23844999999999994  0.11654  0.9423699999999998  1.0000
  C   C315      1.0  0.16450999999999996  0.09628999999999997  0.9179399999999998  1.0000
  C   C316      1.0  0.15009  0.11609  0.88057  1.0000
  C   C317      1.0  0.20963999999999988  0.15668  0.86652  1.0000
  C   C318      1.0  0.28388999999999986  0.17705  0.89059  1.0000
  C   C319      1.0  0.29771  0.15722  0.928  1.0000
  C   C320      1.0  0.19494999999999996  0.17834  0.82715  1.0000
  O   O1        1.0  0.15774999999999995  0.26486  0.70214  1.0000
  O   O2        1.0  0.06176000000000003  0.30561  0.7166799999999999  1.0000
  O   O3        1.0  0.31623  0.26562  0.32483  1.0000
  O   O4        1.0  0.39153  0.33277  0.29767  1.0000
  O   O5        1.0  0.24168  0.20097999999999994  0.7293899999999998  1.0000
  O   O6        1.0  0.36687  0.24789  0.70643  1.0000
  O   O7        1.0  0.46271  0.21612  0.31702  1.0000
  O   O8        1.0  0.52903  0.16052  0.30448  1.0000
  O   O9        1.0  0.3412999999999999  0.73486  0.70221  1.0000
  O   O10       1.0  0.43804  0.69448  0.7166  1.0000
  O   O11       1.0  0.18376999999999993  0.73215  0.3228  1.0000
  O   O12       1.0  0.10485000000000004  0.6654  0.29613  1.0000
  O   O13       1.0  0.2581399999999998  0.7992799999999998  0.72961  1.0000
  O   O14       1.0  0.13327999999999995  0.75227  0.70655  1.0000
  O   O15       1.0  0.03799  0.78399  0.31688  1.0000
  O   O16       1.0  0.97103  0.83947  0.30465  1.0000
  O   O17       1.0  0.10404  0.26374  0.798  1.0000
  O   O18       1.0  0.24147999999999994  0.30383  0.78328  1.0000
  O   O19       1.0  0.9464499999999998  0.26565  0.1751  1.0000
  O   O20       1.0  0.94217  0.33271  0.20348  1.0000
  O   O21       1.0  0.9577799999999997  0.20112  0.77044  1.0000
  O   O22       1.0  0.87937  0.24756  0.79362  1.0000
  O   O23       1.0  0.74991  0.21556  0.18316  1.0000
  O   O24       1.0  0.62902  0.15857  0.19558  1.0000
  O   O25       1.0  0.39608  0.7359  0.7979599999999998  1.0000
  O   O26       1.0  0.25814999999999994  0.6962999999999999  0.78348  1.0000
  O   O27       1.0  0.5535599999999998  0.73422  0.17514  1.0000
  O   O28       1.0  0.55806  0.6673399999999999  0.20390999999999995  1.0000
  O   O29       1.0  0.5425  0.79924  0.7701899999999998  1.0000
  O   O30       1.0  0.6251799999999995  0.7544399999999998  0.79171  1.0000
  O   O31       1.0  0.75017  0.78397  0.18314  1.0000
  O   O32       1.0  0.8713  0.84087  0.19553  1.0000
  O   O33       1.0  0.84171  0.73665  0.29794  1.0000
  O   O34       1.0  0.93833  0.69645  0.2832  1.0000
  O   O35       1.0  0.6832599999999998  0.73421  0.67491  1.0000
  O   O36       1.0  0.60869  0.6671  0.7023599999999998  1.0000
  O   O37       1.0  0.75829  0.79943  0.2704  1.0000
  O   O38       1.0  0.6335899999999998  0.75239  0.2936499999999999  1.0000
  O   O39       1.0  0.53383  0.78344  0.68303  1.0000
  O   O40       1.0  0.4699199999999999  0.83991  0.69552  1.0000
  O   O41       1.0  0.6546699999999998  0.2634  0.29786  1.0000
  O   O42       1.0  0.5601299999999998  0.30508  0.28337  1.0000
  O   O43       1.0  0.8160999999999998  0.26793  0.67707  1.0000
  O   O44       1.0  0.8915399999999999  0.33502  0.70418  1.0000
  O   O45       1.0  0.74164  0.20073999999999997  0.27037  1.0000
  O   O46       1.0  0.8663999999999997  0.24764  0.29361  1.0000
  O   O47       1.0  0.95862  0.21654  0.6831  1.0000
  O   O48       1.0  0.030279999999999987  0.16273999999999997  0.69401  1.0000
  O   O49       1.0  0.8958699999999996  0.73659  0.20206  1.0000
  O   O50       1.0  0.7582699999999996  0.6963899999999997  0.21673  1.0000
  O   O51       1.0  0.05328000000000003  0.73444  0.82493  1.0000
  O   O52       1.0  0.05876999999999993  0.6670899999999998  0.7976899999999998  1.0000
  O   O53       1.0  0.04268999999999985  0.7991599999999998  0.22937999999999995  1.0000
  O   O54       1.0  0.12412  0.7541  0.20665  1.0000
  O   O55       1.0  0.25036  0.78387  0.8168699999999998  1.0000
  O   O56       1.0  0.37304  0.83965  0.8045899999999998  1.0000
  O   O57       1.0  0.6041399999999998  0.26343  0.20204  1.0000
  O   O58       1.0  0.7417699999999999  0.30353  0.21673  1.0000
  O   O59       1.0  0.44674  0.26779  0.8247899999999998  1.0000
  O   O60       1.0  0.43767  0.33475  0.79784  1.0000
  O   O61       1.0  0.45678999999999986  0.20076999999999995  0.22956  1.0000
  O   O62       1.0  0.37948  0.24765  0.20642  1.0000
  O   O63       1.0  0.25051  0.21645  0.8167999999999997  1.0000
  O   O64       1.0  0.12849  0.16033  0.80441  1.0000
