data_image0
_chemical_formula_structural       Cu24H120C168N24O120
_chemical_formula_sum              "Cu24 H120 C168 N24 O120"
_cell_length_a       24.44654
_cell_length_b       24.44707
_cell_length_c       24.44708
_cell_angle_alpha    59.978069999999995
_cell_angle_beta     59.98257999999999
_cell_angle_gamma    59.98257999999999

_symmetry_space_group_name_H-M    'P 1'
_symmetry_Int_Tables_number       1

loop_
  _symmetry_equiv_pos_as_xyz
  'x,y,z'

loop_
  _atom_site_type_symbol
  _atom_site_label
  _atom_site_symmetry_multiplicity
  _atom_site_fract_x
  _atom_site_fract_y
  _atom_site_fract_z
  _atom_site_occupancy
  Cu  Cu1       1.0  0.9584299999999998  0.54156  0.54154  1.0000
  Cu  Cu2       1.0  0.02955999999999994  0.4703800000000001  0.47046  1.0000
  Cu  Cu3       1.0  0.54159  0.95846  0.95842  1.0000
  Cu  Cu4       1.0  0.47045  0.029550000000000003  0.029599999999999998  1.0000
  Cu  Cu5       1.0  0.5415699999999999  0.5415500000000001  0.95841  1.0000
  Cu  Cu6       1.0  0.47039  0.4704400000000001  0.02957  1.0000
  Cu  Cu7       1.0  0.95847  0.95841  0.54159  1.0000
  Cu  Cu8       1.0  0.029549999999999986  0.029610000000000004  0.47043  1.0000
  Cu  Cu9       1.0  0.54155  0.95841  0.54157  1.0000
  Cu  Cu10      1.0  0.47046000000000004  0.029580000000000006  0.47036999999999995  1.0000
  Cu  Cu11      1.0  0.9584200000000002  0.54159  0.9584499999999999  1.0000
  Cu  Cu12      1.0  0.029589999999999988  0.4704400000000001  0.02957  1.0000
  Cu  Cu13      1.0  0.71449  0.71463  0.28541  1.0000
  Cu  Cu14      1.0  0.78524  0.78537  0.21468999999999996  1.0000
  Cu  Cu15      1.0  0.28542999999999996  0.28546999999999995  0.71461  1.0000
  Cu  Cu16      1.0  0.21466000000000007  0.21470999999999996  0.78533  1.0000
  Cu  Cu17      1.0  0.71462  0.28543  0.7144599999999999  1.0000
  Cu  Cu18      1.0  0.78535  0.21469999999999995  0.78522  1.0000
  Cu  Cu19      1.0  0.28548999999999997  0.7145800000000001  0.28544  1.0000
  Cu  Cu20      1.0  0.21473000000000006  0.7852999999999999  0.21467  1.0000
  Cu  Cu21      1.0  0.28541999999999995  0.7144899999999998  0.71463  1.0000
  Cu  Cu22      1.0  0.21471000000000007  0.78523  0.7853399999999999  1.0000
  Cu  Cu23      1.0  0.7145999999999999  0.28543  0.28546  1.0000
  Cu  Cu24      1.0  0.78531  0.21467  0.21472  1.0000
  H   H1        1.0  0.68964  0.49762  0.6515699999999999  1.0000
  H   H2        1.0  0.12090000000000005  0.6278900000000001  0.4230199999999999  1.0000
  H   H3        1.0  0.16489999999999994  0.58157  0.36926  1.0000
  H   H4        1.0  0.04134000000000007  0.7474799999999999  0.36627  1.0000
  H   H5        1.0  0.08332999999999996  0.6506  0.3079  1.0000
  H   H6        1.0  0.0021800000000001683  0.8483799999999999  0.33918999999999994  1.0000
  H   H7        1.0  0.7523999999999998  0.65493  0.45838  1.0000
  H   H8        1.0  0.8721200000000001  0.67161  0.37914  1.0000
  H   H9        1.0  0.91849  0.61556  0.33513  1.0000
  H   H10       1.0  0.8496000000000002  0.54154  0.41672  1.0000
  H   H11       1.0  0.1612800000000001  0.65149  0.49761999999999995  1.0000
  H   H12       1.0  0.82814  0.42323000000000005  0.62765  1.0000
  H   H13       1.0  0.8843200000000001  0.36933  0.5814699999999999  1.0000
  H   H14       1.0  0.8448000000000002  0.36615000000000003  0.7476699999999998  1.0000
  H   H15       1.0  0.95801  0.30802  0.65056  1.0000
  H   H16       1.0  0.8102000000000003  0.33931  0.8483  1.0000
  H   H17       1.0  0.13449999999999998  0.45837000000000006  0.65481  1.0000
  H   H18       1.0  0.07707999999999997  0.37920000000000004  0.6715099999999999  1.0000
  H   H19       1.0  0.13085999999999995  0.33515000000000006  0.61552  1.0000
  H   H20       1.0  0.19222  0.41670999999999997  0.54148  1.0000
  H   H21       1.0  0.6515200000000001  0.16126000000000004  0.6896199999999999  1.0000
  H   H22       1.0  0.42313999999999996  0.82829  0.12073  1.0000
  H   H23       1.0  0.36939000000000005  0.88425  0.16483  1.0000
  H   H24       1.0  0.3660499999999999  0.845  0.04135  1.0000
  H   H25       1.0  0.3079200000000001  0.95823  0.08333  1.0000
  H   H26       1.0  0.3392299999999999  0.8102  0.00221  1.0000
  H   H27       1.0  0.45844999999999997  0.13402000000000003  0.75255  1.0000
  H   H28       1.0  0.37904999999999994  0.07711  0.87226  1.0000
  H   H29       1.0  0.33514000000000005  0.13090000000000004  0.9185299999999998  1.0000
  H   H30       1.0  0.41672000000000003  0.1922000000000001  0.8494899999999999  1.0000
  H   H31       1.0  0.49762000000000006  0.68959  0.16132  1.0000
  H   H32       1.0  0.6279099999999999  0.12080999999999999  0.82822  1.0000
  H   H33       1.0  0.58157  0.1649  0.88421  1.0000
  H   H34       1.0  0.74763  0.04148000000000001  0.84495  1.0000
  H   H35       1.0  0.6505199999999999  0.08333000000000004  0.95819  1.0000
  H   H36       1.0  0.84827  0.0021799999999999806  0.81014  1.0000
  H   H37       1.0  0.65509  0.75233  0.1341  1.0000
  H   H38       1.0  0.67161  0.87248  0.07691  1.0000
  H   H39       1.0  0.61538  0.91858  0.13087  1.0000
  H   H40       1.0  0.5417000000000001  0.84951  0.19205999999999995  1.0000
  H   H41       1.0  0.4975999999999998  0.6515900000000001  0.6896  1.0000
  H   H42       1.0  0.6279199999999999  0.42299  0.1209  1.0000
  H   H43       1.0  0.58159  0.36925  0.1649  1.0000
  H   H44       1.0  0.7474800000000003  0.36627  0.04134  1.0000
  H   H45       1.0  0.6506  0.30789  0.08331  1.0000
  H   H46       1.0  0.84838  0.33919  0.00219  1.0000
  H   H47       1.0  0.6549500000000001  0.45839  0.75244  1.0000
  H   H48       1.0  0.6716500000000002  0.37909000000000004  0.87211  1.0000
  H   H49       1.0  0.6155700000000001  0.3351000000000001  0.9184899999999999  1.0000
  H   H50       1.0  0.54153  0.41670999999999997  0.84963  1.0000
  H   H51       1.0  0.65149  0.4975899999999999  0.16132  1.0000
  H   H52       1.0  0.4232100000000001  0.6276900000000001  0.8281  1.0000
  H   H53       1.0  0.36933000000000005  0.5814800000000003  0.8843099999999999  1.0000
  H   H54       1.0  0.36617  0.74766  0.8448  1.0000
  H   H55       1.0  0.30804  0.65055  0.95804  1.0000
  H   H56       1.0  0.33932000000000007  0.84826  0.8102199999999999  1.0000
  H   H57       1.0  0.4583900000000002  0.65482  0.13445999999999997  1.0000
  H   H58       1.0  0.37916  0.67154  0.07707  1.0000
  H   H59       1.0  0.33513  0.61553  0.13087  1.0000
  H   H60       1.0  0.41673  0.54147  0.19219999999999995  1.0000
  H   H61       1.0  0.16129000000000004  0.68959  0.6515399999999999  1.0000
  H   H62       1.0  0.8282899999999999  0.12076000000000003  0.4231  1.0000
  H   H63       1.0  0.88425  0.16485000000000002  0.36937  1.0000
  H   H64       1.0  0.845  0.04133000000000001  0.3661  1.0000
  H   H65       1.0  0.95824  0.08332  0.3079  1.0000
  H   H66       1.0  0.81022  0.00221  0.33921  1.0000
  H   H67       1.0  0.13406  0.75256  0.45840999999999993  1.0000
  H   H68       1.0  0.07713999999999999  0.87223  0.37902  1.0000
  H   H69       1.0  0.13090999999999992  0.91853  0.33509999999999995  1.0000
  H   H70       1.0  0.19219000000000006  0.8495399999999999  0.4167  1.0000
  H   H71       1.0  0.68958  0.16135  0.49758  1.0000
  H   H72       1.0  0.1208599999999999  0.82819  0.62792  1.0000
  H   H73       1.0  0.16490999999999997  0.88421  0.58157  1.0000
  H   H74       1.0  0.04141999999999993  0.8449399999999999  0.74759  1.0000
  H   H75       1.0  0.08331000000000009  0.95821  0.6505099999999999  1.0000
  H   H76       1.0  0.002180000000000023  0.81019  0.84823  1.0000
  H   H77       1.0  0.7523300000000002  0.13412  0.65507  1.0000
  H   H78       1.0  0.8724500000000001  0.07691999999999997  0.67165  1.0000
  H   H79       1.0  0.91857  0.13088000000000002  0.61539  1.0000
  H   H80       1.0  0.8495499999999999  0.19203999999999996  0.54166  1.0000
  H   H81       1.0  0.65156  0.68965  0.49758  1.0000
  H   H82       1.0  0.4229899999999999  0.12093000000000002  0.62792  1.0000
  H   H83       1.0  0.36925  0.16493  0.58157  1.0000
  H   H84       1.0  0.3662500000000001  0.04136999999999997  0.74746  1.0000
  H   H85       1.0  0.30792  0.08333  0.65055  1.0000
  H   H86       1.0  0.33923000000000014  0.0021600000000000234  0.8483699999999998  1.0000
  H   H87       1.0  0.45846000000000003  0.7524399999999999  0.65495  1.0000
  H   H88       1.0  0.3791  0.8721  0.67163  1.0000
  H   H89       1.0  0.3351300000000001  0.91848  0.6155499999999999  1.0000
  H   H90       1.0  0.41675  0.8496  0.54152  1.0000
  H   H91       1.0  0.4976100000000001  0.16130999999999995  0.65147  1.0000
  H   H92       1.0  0.62768  0.82809  0.42321999999999993  1.0000
  H   H93       1.0  0.58148  0.8843  0.36933  1.0000
  H   H94       1.0  0.7476800000000001  0.8448  0.36610999999999994  1.0000
  H   H95       1.0  0.65054  0.95803  0.30805  1.0000
  H   H96       1.0  0.8483  0.8101800000000001  0.33932999999999996  1.0000
  H   H97       1.0  0.65482  0.13446  0.45838999999999996  1.0000
  H   H98       1.0  0.6715100000000002  0.0771  0.37916999999999995  1.0000
  H   H99       1.0  0.61553  0.13088  0.33513  1.0000
  H   H100      1.0  0.5414800000000002  0.19224000000000005  0.41670999999999997  1.0000
  H   H101      1.0  0.6896299999999999  0.6515100000000001  0.16126999999999997  1.0000
  H   H102      1.0  0.12077000000000002  0.4231400000000001  0.8282499999999998  1.0000
  H   H103      1.0  0.16484999999999986  0.36939  0.88423  1.0000
  H   H104      1.0  0.0413500000000001  0.36607999999999996  0.8449899999999999  1.0000
  H   H105      1.0  0.08332  0.30794  0.9582299999999999  1.0000
  H   H106      1.0  0.002199999999999969  0.33923000000000003  0.81021  1.0000
  H   H107      1.0  0.7525499999999999  0.45843000000000006  0.13406  1.0000
  H   H108      1.0  0.87223  0.37904000000000004  0.07714  1.0000
  H   H109      1.0  0.9185200000000001  0.3351199999999999  0.13090999999999997  1.0000
  H   H110      1.0  0.8495  0.41672  0.19221  1.0000
  H   H111      1.0  0.16135  0.49758  0.68959  1.0000
  H   H112      1.0  0.82819  0.62791  0.12085999999999998  1.0000
  H   H113      1.0  0.8841999999999998  0.58156  0.16492999999999997  1.0000
  H   H114      1.0  0.8449500000000001  0.74759  0.041479999999999996  1.0000
  H   H115      1.0  0.9582100000000002  0.65049  0.08333  1.0000
  H   H116      1.0  0.8101700000000001  0.8482499999999998  0.00214  1.0000
  H   H117      1.0  0.1340400000000001  0.6550799999999999  0.7523499999999999  1.0000
  H   H118      1.0  0.07695000000000016  0.6716399999999999  0.8724299999999999  1.0000
  H   H119      1.0  0.13088  0.6153800000000001  0.9185599999999999  1.0000
  H   H120      1.0  0.19204999999999994  0.54166  0.84953  1.0000
  C   C1        1.0  0.6555699999999999  0.5485900000000001  0.63688  1.0000
  C   C2        1.0  0.1332  0.63253  0.37136  1.0000
  C   C3        1.0  0.67931  0.59064  0.57154  1.0000
  C   C4        1.0  0.9282799999999999  0.82053  0.34202  1.0000
  C   C5        1.0  0.96938  0.7495800000000001  0.34330999999999995  1.0000
  C   C6        1.0  0.07019999999999998  0.65366  0.35651  1.0000
  C   C7        1.0  0.8675000000000002  0.6369  0.3668  1.0000
  C   C8        1.0  0.9512  0.86299  0.34154  1.0000
  C   C9        1.0  0.035710000000000026  0.6013399999999999  0.41089  1.0000
  C   C10       1.0  0.8986199999999999  0.54794  0.46434999999999993  1.0000
  C   C11       1.0  0.8232900000000002  0.6776  0.32353999999999994  1.0000
  C   C12       1.0  0.75032  0.56207  0.53051  1.0000
  C   C13       1.0  0.1764299999999999  0.67675  0.32463  1.0000
  C   C14       1.0  0.8463700000000001  0.58019  0.42982999999999993  1.0000
  C   C15       1.0  0.15904000000000001  0.63684  0.54859  1.0000
  C   C16       1.0  0.8628099999999999  0.37153000000000014  0.6324099999999999  1.0000
  C   C17       1.0  0.15863  0.57149  0.59061  1.0000
  C   C18       1.0  0.9091200000000002  0.3421100000000001  0.82049  1.0000
  C   C19       1.0  0.9376500000000002  0.3434900000000001  0.7495  1.0000
  C   C20       1.0  0.9194599999999999  0.35663  0.65367  1.0000
  C   C21       1.0  0.12879000000000004  0.3668399999999999  0.63686  1.0000
  C   C22       1.0  0.8442199999999999  0.34162  0.86295  1.0000
  C   C23       1.0  0.9518999999999999  0.41100000000000003  0.60141  1.0000
  C   C24       1.0  0.08917000000000004  0.4642699999999999  0.54784  1.0000
  C   C25       1.0  0.17548  0.32358  0.67762  1.0000
  C   C26       1.0  0.15721000000000002  0.53049  0.56199  1.0000
  C   C27       1.0  0.8220499999999996  0.3248500000000001  0.67656  1.0000
  C   C28       1.0  0.14363999999999996  0.42983999999999994  0.58012  1.0000
  C   C29       1.0  0.6368300000000001  0.15899000000000002  0.6555999999999998  1.0000
  C   C30       1.0  0.37145000000000006  0.8629400000000002  0.13313  1.0000
  C   C31       1.0  0.5715  0.15857000000000002  0.67928  1.0000
  C   C32       1.0  0.3419899999999999  0.9091500000000002  0.9283  1.0000
  C   C33       1.0  0.34327  0.93781  0.96935  1.0000
  C   C34       1.0  0.3565400000000001  0.91968  0.07015999999999999  1.0000
  C   C35       1.0  0.3668  0.12879000000000004  0.8675699999999998  1.0000
  C   C36       1.0  0.34157  0.84422  0.95121  1.0000
  C   C37       1.0  0.41090000000000004  0.95211  0.03572  1.0000
  C   C38       1.0  0.46435000000000004  0.08916000000000002  0.8986499999999998  1.0000
  C   C39       1.0  0.32355000000000006  0.17558000000000004  0.82337  1.0000
  C   C40       1.0  0.53043  0.15717000000000003  0.75028  1.0000
  C   C41       1.0  0.32478999999999997  0.8221300000000001  0.17639999999999997  1.0000
  C   C42       1.0  0.42983000000000016  0.14361  0.8463699999999998  1.0000
  C   C43       1.0  0.5486000000000001  0.65554  0.15902999999999998  1.0000
  C   C44       1.0  0.63253  0.13318  0.86288  1.0000
  C   C45       1.0  0.59069  0.67927  0.15852  1.0000
  C   C46       1.0  0.8204899999999998  0.92823  0.9091299999999999  1.0000
  C   C47       1.0  0.74952  0.96929  0.93774  1.0000
  C   C48       1.0  0.6536499999999998  0.07018999999999999  0.91962  1.0000
  C   C49       1.0  0.63694  0.8676399999999999  0.12863  1.0000
  C   C50       1.0  0.86291  0.9511900000000001  0.84419  1.0000
  C   C51       1.0  0.60138  0.03567999999999999  0.952  1.0000
  C   C52       1.0  0.5480299999999999  0.8985600000000001  0.08902  1.0000
  C   C53       1.0  0.6776600000000003  0.82349  0.17536999999999997  1.0000
  C   C54       1.0  0.5621899999999999  0.7503000000000001  0.15703999999999999  1.0000
  C   C55       1.0  0.67677  0.17640000000000008  0.8220999999999998  1.0000
  C   C56       1.0  0.58034  0.8463299999999999  0.14349  1.0000
  C   C57       1.0  0.54859  0.63689  0.6555699999999999  1.0000
  C   C58       1.0  0.63254  0.37134  0.13318  1.0000
  C   C59       1.0  0.5906299999999999  0.57155  0.67931  1.0000
  C   C60       1.0  0.82054  0.3420099999999999  0.9282699999999999  1.0000
  C   C61       1.0  0.74959  0.34330000000000005  0.9693599999999999  1.0000
  C   C62       1.0  0.6536599999999999  0.35651000000000005  0.07018  1.0000
  C   C63       1.0  0.63691  0.36678  0.8675  1.0000
  C   C64       1.0  0.86299  0.3415300000000001  0.9511999999999999  1.0000
  C   C65       1.0  0.60133  0.41090000000000004  0.03570999999999999  1.0000
  C   C66       1.0  0.5479700000000002  0.4643300000000001  0.8986299999999998  1.0000
  C   C67       1.0  0.6775800000000002  0.3235399999999999  0.82328  1.0000
  C   C68       1.0  0.56207  0.5305  0.7503199999999999  1.0000
  C   C69       1.0  0.67677  0.32461  0.17639999999999997  1.0000
  C   C70       1.0  0.5802  0.42982  0.84638  1.0000
  C   C71       1.0  0.63684  0.54857  0.15903999999999996  1.0000
  C   C72       1.0  0.37152  0.63242  0.86282  1.0000
  C   C73       1.0  0.57151  0.5906  0.15860999999999997  1.0000
  C   C74       1.0  0.34211999999999987  0.82048  0.90912  1.0000
  C   C75       1.0  0.3434900000000001  0.7495  0.93765  1.0000
  C   C76       1.0  0.35664000000000007  0.6536599999999999  0.91947  1.0000
  C   C77       1.0  0.36682999999999993  0.63686  0.12877999999999998  1.0000
  C   C78       1.0  0.34162999999999993  0.8629400000000002  0.84421  1.0000
  C   C79       1.0  0.4110300000000001  0.6013999999999998  0.95188  1.0000
  C   C80       1.0  0.4642600000000001  0.54787  0.08913999999999998  1.0000
  C   C81       1.0  0.32359000000000004  0.6776  0.17549  1.0000
  C   C82       1.0  0.53049  0.56199  0.1572  1.0000
  C   C83       1.0  0.32483  0.67657  0.82207  1.0000
  C   C84       1.0  0.42984  0.58013  0.14363  1.0000
  C   C85       1.0  0.15899999999999992  0.6556000000000002  0.63683  1.0000
  C   C86       1.0  0.8629600000000001  0.13313000000000003  0.37141999999999986  1.0000
  C   C87       1.0  0.15858  0.67929  0.5715  1.0000
  C   C88       1.0  0.9091599999999997  0.9283000000000002  0.34198  1.0000
  C   C89       1.0  0.9378199999999999  0.9693599999999999  0.34326  1.0000
  C   C90       1.0  0.9197  0.07014999999999999  0.35652  1.0000
  C   C91       1.0  0.1287999999999999  0.86757  0.36677999999999994  1.0000
  C   C92       1.0  0.8442299999999998  0.95121  0.34156  1.0000
  C   C93       1.0  0.9521099999999999  0.03572000000000001  0.4109  1.0000
  C   C94       1.0  0.08914999999999998  0.89867  0.46430999999999994  1.0000
  C   C95       1.0  0.17561000000000004  0.82337  0.32353999999999994  1.0000
  C   C96       1.0  0.15718000000000001  0.75029  0.53042  1.0000
  C   C97       1.0  0.82216  0.17639  0.32476  1.0000
  C   C98       1.0  0.14360999999999988  0.8464000000000003  0.42979999999999996  1.0000
  C   C99       1.0  0.65555  0.1590500000000001  0.5485799999999998  1.0000
  C   C100      1.0  0.13318  0.8628999999999999  0.63254  1.0000
  C   C101      1.0  0.67928  0.15851999999999997  0.59067  1.0000
  C   C102      1.0  0.9282300000000001  0.90915  0.82047  1.0000
  C   C103      1.0  0.9692899999999998  0.9377500000000002  0.7495099999999999  1.0000
  C   C104      1.0  0.07018  0.9196399999999999  0.65364  1.0000
  C   C105      1.0  0.8676299999999999  0.12864000000000003  0.6369399999999998  1.0000
  C   C106      1.0  0.9511899999999999  0.84421  0.8629  1.0000
  C   C107      1.0  0.03567999999999987  0.9519900000000002  0.60136  1.0000
  C   C108      1.0  0.89857  0.08898999999999999  0.54806  1.0000
  C   C109      1.0  0.82348  0.17538000000000004  0.67765  1.0000
  C   C110      1.0  0.75031  0.15704000000000004  0.56216  1.0000
  C   C111      1.0  0.17639000000000007  0.82214  0.67677  1.0000
  C   C112      1.0  0.8463499999999999  0.14348  0.58034  1.0000
  C   C113      1.0  0.63688  0.65558  0.54857  1.0000
  C   C114      1.0  0.3713500000000001  0.13321000000000002  0.6325299999999999  1.0000
  C   C115      1.0  0.5715499999999999  0.6793099999999997  0.59062  1.0000
  C   C116      1.0  0.3420199999999999  0.9282700000000002  0.8205199999999999  1.0000
  C   C117      1.0  0.3433199999999999  0.9693700000000001  0.74956  1.0000
  C   C118      1.0  0.35651999999999995  0.07021  0.65364  1.0000
  C   C119      1.0  0.36681  0.86749  0.63689  1.0000
  C   C120      1.0  0.34155  0.9511900000000001  0.8629799999999999  1.0000
  C   C121      1.0  0.41090999999999994  0.03573999999999999  0.60131  1.0000
  C   C122      1.0  0.46437000000000006  0.89862  0.5479499999999999  1.0000
  C   C123      1.0  0.32355999999999996  0.82328  0.6775699999999999  1.0000
  C   C124      1.0  0.53051  0.7503100000000001  0.56205  1.0000
  C   C125      1.0  0.3246100000000001  0.17643  0.67675  1.0000
  C   C126      1.0  0.42985000000000007  0.84637  0.58018  1.0000
  C   C127      1.0  0.54858  0.15902999999999998  0.63683  1.0000
  C   C128      1.0  0.63242  0.8627999999999999  0.37153  1.0000
  C   C129      1.0  0.59061  0.15862  0.57149  1.0000
  C   C130      1.0  0.82049  0.90911  0.34211  1.0000
  C   C131      1.0  0.7495  0.93765  0.3435  1.0000
  C   C132      1.0  0.6536599999999999  0.9194500000000002  0.35664999999999997  1.0000
  C   C133      1.0  0.63684  0.12881  0.36684  1.0000
  C   C134      1.0  0.8629499999999999  0.84421  0.34163  1.0000
  C   C135      1.0  0.6014000000000002  0.95185  0.41102999999999995  1.0000
  C   C136      1.0  0.5478399999999999  0.08916  0.46426  1.0000
  C   C137      1.0  0.6775999999999999  0.17551000000000003  0.32359  1.0000
  C   C138      1.0  0.56199  0.1572200000000001  0.5304799999999998  1.0000
  C   C139      1.0  0.6765599999999999  0.8220600000000002  0.32484  1.0000
  C   C140      1.0  0.5801100000000001  0.14365000000000003  0.4298399999999999  1.0000
  C   C141      1.0  0.65561  0.63682  0.15899999999999997  1.0000
  C   C142      1.0  0.13314999999999994  0.37145  0.86292  1.0000
  C   C143      1.0  0.6792899999999998  0.57149  0.15858  1.0000
  C   C144      1.0  0.9283100000000001  0.34199  0.90916  1.0000
  C   C145      1.0  0.9693699999999998  0.34328  0.9378  1.0000
  C   C146      1.0  0.07016999999999997  0.3565500000000001  0.9196699999999998  1.0000
  C   C147      1.0  0.8675599999999999  0.3668  0.12880999999999998  1.0000
  C   C148      1.0  0.9512  0.34158000000000005  0.8442199999999999  1.0000
  C   C149      1.0  0.035739999999999966  0.4109200000000001  0.9520699999999999  1.0000
  C   C150      1.0  0.89867  0.46433  0.08915  1.0000
  C   C151      1.0  0.8233600000000001  0.32355999999999996  0.1756  1.0000
  C   C152      1.0  0.7502899999999999  0.53043  0.15718999999999997  1.0000
  C   C153      1.0  0.17640999999999998  0.32478000000000007  0.8221499999999999  1.0000
  C   C154      1.0  0.84638  0.42983  0.14361999999999997  1.0000
  C   C155      1.0  0.15904999999999994  0.5485800000000001  0.65555  1.0000
  C   C156      1.0  0.86288  0.63253  0.1332  1.0000
  C   C157      1.0  0.15852999999999992  0.59067  0.67928  1.0000
  C   C158      1.0  0.9091499999999999  0.8204800000000001  0.9282199999999999  1.0000
  C   C159      1.0  0.9377499999999995  0.7494999999999999  0.96929  1.0000
  C   C160      1.0  0.91962  0.65363  0.0702  1.0000
  C   C161      1.0  0.12865  0.63692  0.86763  1.0000
  C   C162      1.0  0.8442199999999999  0.8629100000000001  0.9511699999999998  1.0000
  C   C163      1.0  0.9519699999999999  0.60136  0.03570999999999999  1.0000
  C   C164      1.0  0.08900000000000012  0.5480399999999997  0.89857  1.0000
  C   C165      1.0  0.17540000000000008  0.67764  0.82347  1.0000
  C   C166      1.0  0.15707  0.56215  0.7503  1.0000
  C   C167      1.0  0.8221300000000001  0.67677  0.17639999999999997  1.0000
  C   C168      1.0  0.1434900000000002  0.5803199999999997  0.84634  1.0000
  N   N1        1.0  0.7787499999999999  0.60534  0.47277  1.0000
  N   N2        1.0  0.027180000000000024  0.72122  0.35708999999999996  1.0000
  N   N3        1.0  0.14305  0.47285000000000005  0.60527  1.0000
  N   N4        1.0  0.89436  0.35717  0.72125  1.0000
  N   N5        1.0  0.4727700000000003  0.14306999999999997  0.77878  1.0000
  N   N6        1.0  0.35717000000000004  0.8945599999999999  0.027109999999999992  1.0000
  N   N7        1.0  0.60551  0.7787199999999999  0.14298  1.0000
  N   N8        1.0  0.72123  0.027180000000000013  0.89451  1.0000
  N   N9        1.0  0.6053499999999999  0.4727600000000001  0.7787599999999998  1.0000
  N   N10       1.0  0.72122  0.35709  0.02716  1.0000
  N   N11       1.0  0.4728500000000001  0.60528  0.14304  1.0000
  N   N12       1.0  0.3571700000000002  0.7212499999999998  0.8943699999999999  1.0000
  N   N13       1.0  0.14308000000000004  0.7788  0.47275  1.0000
  N   N14       1.0  0.89457  0.027099999999999996  0.35716  1.0000
  N   N15       1.0  0.7787300000000001  0.14298  0.60549  1.0000
  N   N16       1.0  0.02717999999999995  0.89452  0.7212299999999999  1.0000
  N   N17       1.0  0.4727799999999999  0.7787399999999999  0.60533  1.0000
  N   N18       1.0  0.35710000000000003  0.02717999999999997  0.72121  1.0000
  N   N19       1.0  0.6052700000000001  0.14305000000000004  0.4728499999999999  1.0000
  N   N20       1.0  0.7212400000000003  0.8943599999999999  0.35719  1.0000
  N   N21       1.0  0.7787899999999999  0.47277  0.14308  1.0000
  N   N22       1.0  0.027120000000000005  0.35717999999999994  0.89455  1.0000
  N   N23       1.0  0.14300000000000007  0.60548  0.77871  1.0000
  N   N24       1.0  0.89452  0.72122  0.02719  1.0000
  O   O1        1.0  0.95114  0.7172799999999999  0.33322  1.0000
  O   O2        1.0  0.05645  0.54854  0.39758  1.0000
  O   O3        1.0  0.83208  0.73329  0.28056  1.0000
  O   O4        1.0  0.9514399999999998  0.50253  0.44368  1.0000
  O   O5        1.0  0.78261  0.50142  0.54882  1.0000
  O   O6        1.0  0.8870399999999999  0.57234  0.50596  1.0000
  O   O7        1.0  0.2194900000000001  0.6679  0.34605  1.0000
  O   O8        1.0  0.9940200000000001  0.61288  0.46532999999999997  1.0000
  O   O9        1.0  0.7814300000000001  0.6546100000000001  0.33277  1.0000
  O   O10       1.0  0.16707  0.71872  0.26905999999999997  1.0000
  O   O11       1.0  0.9982500000000002  0.33359000000000005  0.7171199999999998  1.0000
  O   O12       1.0  0.9973700000000001  0.39762  0.5486699999999999  1.0000
  O   O13       1.0  0.1540000000000001  0.28053  0.7332499999999998  1.0000
  O   O14       1.0  0.10247000000000002  0.44353  0.50248  1.0000
  O   O15       1.0  0.16730999999999993  0.54879  0.50135  1.0000
  O   O16       1.0  0.03468999999999999  0.50587  0.57222  1.0000
  O   O17       1.0  0.76632  0.34637000000000007  0.6678299999999999  1.0000
  O   O18       1.0  0.9275  0.46547999999999995  0.61291  1.0000
  O   O19       1.0  0.2310700000000001  0.33288000000000006  0.6546999999999998  1.0000
  O   O20       1.0  0.84512  0.26914  0.7183299999999999  1.0000
  O   O21       1.0  0.3331999999999999  0.9984500000000002  0.95107  1.0000
  O   O22       1.0  0.39753999999999995  0.99749  0.056459999999999996  1.0000
  O   O23       1.0  0.2804600000000001  0.15418000000000004  0.8322899999999999  1.0000
  O   O24       1.0  0.4436200000000001  0.10243999999999998  0.95147  1.0000
  O   O25       1.0  0.54864  0.16736  0.78251  1.0000
  O   O26       1.0  0.5060500000000001  0.034740000000000035  0.8870799999999999  1.0000
  O   O27       1.0  0.34628  0.7664700000000001  0.21943999999999997  1.0000
  O   O28       1.0  0.4653900000000002  0.9277300000000002  0.9941199999999999  1.0000
  O   O29       1.0  0.33291000000000015  0.23116000000000006  0.7813799999999999  1.0000
  O   O30       1.0  0.26919999999999983  0.8450800000000003  0.16712999999999997  1.0000
  O   O31       1.0  0.7171599999999998  0.9509100000000003  0.9983599999999999  1.0000
  O   O32       1.0  0.54859  0.05636000000000002  0.99742  1.0000
  O   O33       1.0  0.7333600000000002  0.8322499999999999  0.15384999999999996  1.0000
  O   O34       1.0  0.5025699999999997  0.95133  0.10234999999999998  1.0000
  O   O35       1.0  0.5015500000000002  0.7825999999999999  0.1671  1.0000
  O   O36       1.0  0.5724299999999999  0.8870399999999999  0.03456  1.0000
  O   O37       1.0  0.6680699999999999  0.21934000000000006  0.76635  1.0000
  O   O38       1.0  0.6129300000000001  0.99408  0.9276099999999999  1.0000
  O   O39       1.0  0.65461  0.78169  0.23108  1.0000
  O   O40       1.0  0.71858  0.16720000000000007  0.8451399999999999  1.0000
  O   O41       1.0  0.7173000000000005  0.33319  0.95114  1.0000
  O   O42       1.0  0.54851  0.39759999999999995  0.05648999999999999  1.0000
  O   O43       1.0  0.73328  0.28056000000000003  0.83206  1.0000
  O   O44       1.0  0.5025799999999999  0.4436300000000001  0.9514599999999999  1.0000
  O   O45       1.0  0.5014299999999999  0.54879  0.78261  1.0000
  O   O46       1.0  0.5723600000000002  0.50595  0.8870299999999999  1.0000
  O   O47       1.0  0.66789  0.34603  0.21947  1.0000
  O   O48       1.0  0.6128700000000001  0.46534  0.9940099999999998  1.0000
  O   O49       1.0  0.6545699999999999  0.33277  0.78143  1.0000
  O   O50       1.0  0.7187500000000001  0.26906  0.16704  1.0000
  O   O51       1.0  0.3335799999999999  0.7171200000000001  0.9982699999999999  1.0000
  O   O52       1.0  0.39767  0.5486300000000002  0.9973299999999999  1.0000
  O   O53       1.0  0.28055  0.73324  0.15401  1.0000
  O   O54       1.0  0.44349  0.50252  0.10244999999999999  1.0000
  O   O55       1.0  0.54879  0.50135  0.16730999999999996  1.0000
  O   O56       1.0  0.5058699999999999  0.57225  0.03466  1.0000
  O   O57       1.0  0.3463599999999999  0.66784  0.76634  1.0000
  O   O58       1.0  0.4655  0.6129100000000001  0.9274699999999998  1.0000
  O   O59       1.0  0.33287000000000005  0.65467  0.23109  1.0000
  O   O60       1.0  0.26913  0.71834  0.84513  1.0000
  O   O61       1.0  0.9984599999999999  0.9510900000000001  0.33314999999999995  1.0000
  O   O62       1.0  0.9974600000000001  0.05650000000000001  0.39753999999999995  1.0000
  O   O63       1.0  0.15420000000000003  0.83226  0.28046  1.0000
  O   O64       1.0  0.10241000000000004  0.9515100000000001  0.44353999999999993  1.0000
  O   O65       1.0  0.16736999999999996  0.78253  0.54863  1.0000
  O   O66       1.0  0.034739999999999986  0.88708  0.50603  1.0000
  O   O67       1.0  0.7665200000000001  0.21943999999999997  0.34624  1.0000
  O   O68       1.0  0.9277400000000001  0.99411  0.46539  1.0000
  O   O69       1.0  0.23118000000000002  0.78139  0.33291  1.0000
  O   O70       1.0  0.8450900000000001  0.16710999999999998  0.26918  1.0000
  O   O71       1.0  0.9509299999999998  0.9983700000000002  0.7171499999999998  1.0000
  O   O72       1.0  0.05638000000000007  0.99739  0.54855  1.0000
  O   O73       1.0  0.8322099999999999  0.15385  0.73337  1.0000
  O   O74       1.0  0.95135  0.10232000000000002  0.50262  1.0000
  O   O75       1.0  0.7826200000000001  0.1671  0.50153  1.0000
  O   O76       1.0  0.88704  0.034530000000000005  0.57247  1.0000
  O   O77       1.0  0.21931999999999996  0.76639  0.66807  1.0000
  O   O78       1.0  0.9940800000000001  0.92759  0.61294  1.0000
  O   O79       1.0  0.78171  0.2311  0.6545699999999999  1.0000
  O   O80       1.0  0.16721000000000003  0.84517  0.7185799999999999  1.0000
  O   O81       1.0  0.3332300000000001  0.95114  0.7172699999999999  1.0000
  O   O82       1.0  0.39760999999999996  0.05652000000000001  0.5485  1.0000
  O   O83       1.0  0.28058  0.83206  0.73326  1.0000
  O   O84       1.0  0.44368  0.95146  0.50256  1.0000
  O   O85       1.0  0.5487899999999999  0.7825900000000001  0.5014  1.0000
  O   O86       1.0  0.5059800000000001  0.8870200000000001  0.5723599999999999  1.0000
  O   O87       1.0  0.34602999999999984  0.21948999999999996  0.66789  1.0000
  O   O88       1.0  0.46533999999999986  0.9940300000000002  0.6128699999999999  1.0000
  O   O89       1.0  0.33276  0.7814300000000001  0.6545699999999999  1.0000
  O   O90       1.0  0.26905999999999997  0.16704000000000002  0.71873  1.0000
  O   O91       1.0  0.7171099999999998  0.99825  0.3336  1.0000
  O   O92       1.0  0.5486499999999999  0.99731  0.3976499999999999  1.0000
  O   O93       1.0  0.73321  0.15403  0.28054  1.0000
  O   O94       1.0  0.5025100000000001  0.10247000000000003  0.4434799999999999  1.0000
  O   O95       1.0  0.50134  0.16734000000000002  0.54877  1.0000
  O   O96       1.0  0.5722099999999998  0.03468000000000006  0.5058799999999999  1.0000
  O   O97       1.0  0.66783  0.7663299999999998  0.34636  1.0000
  O   O98       1.0  0.6129100000000002  0.9274499999999998  0.4655  1.0000
  O   O99       1.0  0.6546999999999998  0.23108999999999996  0.33288  1.0000
  O   O100      1.0  0.71833  0.84513  0.26915  1.0000
  O   O101      1.0  0.95109  0.33320000000000005  0.99844  1.0000
  O   O102      1.0  0.056499999999999995  0.39756000000000014  0.9974399999999999  1.0000
  O   O103      1.0  0.83228  0.28047000000000005  0.15419999999999998  1.0000
  O   O104      1.0  0.9515  0.44356  0.10242  1.0000
  O   O105      1.0  0.7825200000000001  0.54864  0.16739  1.0000
  O   O106      1.0  0.88709  0.50604  0.03473  1.0000
  O   O107      1.0  0.21945000000000003  0.34626000000000007  0.7664899999999999  1.0000
  O   O108      1.0  0.99414  0.46540999999999993  0.9276899999999998  1.0000
  O   O109      1.0  0.78136  0.33292  0.23116999999999996  1.0000
  O   O110      1.0  0.16713000000000003  0.26919000000000004  0.8450999999999999  1.0000
  O   O111      1.0  0.99836  0.71714  0.95093  1.0000
  O   O112      1.0  0.9973699999999998  0.54855  0.05642  1.0000
  O   O113      1.0  0.1538700000000002  0.73334  0.8322199999999997  1.0000
  O   O114      1.0  0.10230999999999998  0.5026  0.95137  1.0000
  O   O115      1.0  0.16715999999999995  0.50151  0.7825899999999999  1.0000
  O   O116      1.0  0.034540000000000015  0.5724500000000001  0.8870299999999999  1.0000
  O   O117      1.0  0.7663799999999998  0.66806  0.21934  1.0000
  O   O118      1.0  0.9276000000000004  0.61293  0.99409  1.0000
  O   O119      1.0  0.23112000000000008  0.65458  0.7817  1.0000
  O   O120      1.0  0.8451599999999999  0.7185900000000001  0.16718  1.0000
