data_image0
_chemical_formula_structural       In12H120C240S12O96
_chemical_formula_sum              "In12 H120 C240 S12 O96"
_cell_length_a       25.34548
_cell_length_b       25.35311
_cell_length_c       28.59935
_cell_angle_alpha    90.0033
_cell_angle_beta     89.99817
_cell_angle_gamma    120.10676

_symmetry_space_group_name_H-M    'P 1'
_symmetry_Int_Tables_number       1

loop_
  _symmetry_equiv_pos_as_xyz
  'x,y,z'

loop_
  _atom_site_type_symbol
  _atom_site_label
  _atom_site_symmetry_multiplicity
  _atom_site_fract_x
  _atom_site_fract_y
  _atom_site_fract_z
  _atom_site_occupancy
  In  In1       1.0  0.31043  0.47165  2.0000000000000005e-05  1.0000
  In  In2       1.0  0.16178000000000003  0.68949  5e-05  1.0000
  In  In3       1.0  0.5277699999999999  0.8381099999999999  0.99994  1.0000
  In  In4       1.0  0.6897699999999998  0.52852  0.99999  1.0000
  In  In5       1.0  0.8383499999999998  0.31055  0.99999  1.0000
  In  In6       1.0  0.47211999999999993  0.16177  0.99998  1.0000
  In  In7       1.0  0.83809  0.52774  0.49999  1.0000
  In  In8       1.0  0.47171999999999986  0.31033  0.49997  1.0000
  In  In9       1.0  0.6893199999999999  0.16168  0.49998  1.0000
  In  In10      1.0  0.16181  0.47195999999999994  0.4999000000000001  1.0000
  In  In11      1.0  0.5284  0.68972  0.49992000000000003  1.0000
  In  In12      1.0  0.3103899999999999  0.83845  0.49993  1.0000
  H   H1        1.0  0.29573  0.46003  0.83296  1.0000
  H   H2        1.0  0.41139  0.63967  0.8883800000000002  1.0000
  H   H3        1.0  0.3227399999999999  0.50072  0.7516  1.0000
  H   H4        1.0  0.44050999999999996  0.68121  0.8075  1.0000
  H   H5        1.0  0.16425999999999996  0.70402  0.83287  1.0000
  H   H6        1.0  0.22826999999999995  0.5887  0.8883600000000003  1.0000
  H   H7        1.0  0.17793999999999996  0.67706  0.7515  1.0000
  H   H8        1.0  0.24075999999999995  0.55969  0.80748  1.0000
  H   H9        1.0  0.53982  0.83568  0.83296  1.0000
  H   H10       1.0  0.3602299999999999  0.77184  0.8883400000000002  1.0000
  H   H11       1.0  0.49915999999999994  0.8220399999999999  0.75158  1.0000
  H   H12       1.0  0.31882  0.75942  0.80743  1.0000
  H   H13       1.0  0.7042299999999999  0.54001  0.83305  1.0000
  H   H14       1.0  0.5885599999999999  0.36032  0.88842  1.0000
  H   H15       1.0  0.6772799999999999  0.49931  0.75167  1.0000
  H   H16       1.0  0.55953  0.31886  0.80751  1.0000
  H   H17       1.0  0.83575  0.29594  0.83293  1.0000
  H   H18       1.0  0.7718  0.41137  0.8884000000000001  1.0000
  H   H19       1.0  0.8220299999999998  0.32288  0.75159  1.0000
  H   H20       1.0  0.7593399999999999  0.44034  0.80751  1.0000
  H   H21       1.0  0.46007  0.16429  0.83295  1.0000
  H   H22       1.0  0.6395599999999998  0.22811  0.88839  1.0000
  H   H23       1.0  0.50074  0.17795  0.7516  1.0000
  H   H24       1.0  0.6811  0.24056999999999998  0.8075  1.0000
  H   H25       1.0  0.8357799999999997  0.5399  0.66707  1.0000
  H   H26       1.0  0.7716799999999998  0.3603  0.61162  1.0000
  H   H27       1.0  0.82212  0.49919  0.74844  1.0000
  H   H28       1.0  0.75932  0.31885  0.6925200000000001  1.0000
  H   H29       1.0  0.46002  0.2957  0.66704  1.0000
  H   H30       1.0  0.63967  0.41146  0.61164  1.0000
  H   H31       1.0  0.5007  0.3227  0.7483800000000002  1.0000
  H   H32       1.0  0.6811799999999998  0.44045999999999996  0.6925200000000001  1.0000
  H   H33       1.0  0.7040999999999997  0.16432  0.66713  1.0000
  H   H34       1.0  0.58864  0.22819  0.61166  1.0000
  H   H35       1.0  0.6770899999999999  0.17797  0.74849  1.0000
  H   H36       1.0  0.55968  0.24075  0.6925200000000001  1.0000
  H   H37       1.0  0.16409999999999997  0.46006  0.6669700000000001  1.0000
  H   H38       1.0  0.22825  0.63967  0.6115800000000001  1.0000
  H   H39       1.0  0.17781  0.50069  0.74835  1.0000
  H   H40       1.0  0.24065  0.68111  0.69248  1.0000
  H   H41       1.0  0.53994  0.70425  0.66688  1.0000
  H   H42       1.0  0.36014999999999997  0.58842  0.61162  1.0000
  H   H43       1.0  0.4993499999999998  0.67734  0.74824  1.0000
  H   H44       1.0  0.31879  0.55947  0.69253  1.0000
  H   H45       1.0  0.29597  0.83585  0.66705  1.0000
  H   H46       1.0  0.41132  0.7717800000000001  0.6116  1.0000
  H   H47       1.0  0.32293  0.82211  0.74837  1.0000
  H   H48       1.0  0.44026000000000004  0.7593100000000002  0.69247  1.0000
  H   H49       1.0  0.7042799999999999  0.54003  0.16698  1.0000
  H   H50       1.0  0.58855  0.36036  0.11157  1.0000
  H   H51       1.0  0.67732  0.49934  0.24834  1.0000
  H   H52       1.0  0.5595699999999999  0.31886  0.19249000000000005  1.0000
  H   H53       1.0  0.8357199999999999  0.29583  0.16713  1.0000
  H   H54       1.0  0.7719299999999998  0.41133999999999993  0.11159  1.0000
  H   H55       1.0  0.822  0.32284  0.24848  1.0000
  H   H56       1.0  0.7593899999999999  0.44034  0.19247  1.0000
  H   H57       1.0  0.46009  0.16412  0.16696  1.0000
  H   H58       1.0  0.6397999999999998  0.22837000000000002  0.11160000000000003  1.0000
  H   H59       1.0  0.50078  0.17787  0.24832  1.0000
  H   H60       1.0  0.68111  0.24071  0.19252  1.0000
  H   H61       1.0  0.2956399999999999  0.45996  0.16703  1.0000
  H   H62       1.0  0.4114799999999999  0.63958  0.11157  1.0000
  H   H63       1.0  0.3227  0.50075  0.24838  1.0000
  H   H64       1.0  0.4404399999999999  0.68112  0.19245  1.0000
  H   H65       1.0  0.16424  0.70405  0.16717000000000007  1.0000
  H   H66       1.0  0.22816999999999993  0.58861  0.11165  1.0000
  H   H67       1.0  0.17799999999999996  0.67705  0.24852000000000005  1.0000
  H   H68       1.0  0.24068  0.55963  0.19252  1.0000
  H   H69       1.0  0.5399299999999998  0.8358199999999999  0.16704  1.0000
  H   H70       1.0  0.36031  0.77162  0.11161  1.0000
  H   H71       1.0  0.49918  0.82211  0.24836000000000005  1.0000
  H   H72       1.0  0.31882  0.75926  0.19248  1.0000
  H   H73       1.0  0.16418000000000002  0.46002  0.33295  1.0000
  H   H74       1.0  0.22816999999999996  0.6396  0.38844  1.0000
  H   H75       1.0  0.17793999999999993  0.50078  0.25159  1.0000
  H   H76       1.0  0.2405799999999999  0.68103  0.3075300000000001  1.0000
  H   H77       1.0  0.54006  0.70435  0.3329200000000001  1.0000
  H   H78       1.0  0.3603499999999999  0.58856  0.38836  1.0000
  H   H79       1.0  0.49927000000000005  0.67736  0.25157  1.0000
  H   H80       1.0  0.31887999999999994  0.55955  0.30747  1.0000
  H   H81       1.0  0.29593999999999987  0.83583  0.33288  1.0000
  H   H82       1.0  0.41134  0.77192  0.38836  1.0000
  H   H83       1.0  0.3228399999999999  0.8220399999999999  0.25152  1.0000
  H   H84       1.0  0.44035  0.75938  0.3075300000000001  1.0000
  H   H85       1.0  0.8357699999999999  0.5399  0.3329200000000001  1.0000
  H   H86       1.0  0.7717899999999998  0.36033  0.38837  1.0000
  H   H87       1.0  0.8220899999999998  0.49917000000000006  0.25154  1.0000
  H   H88       1.0  0.7593399999999999  0.31888  0.30747  1.0000
  H   H89       1.0  0.46  0.29572  0.33296  1.0000
  H   H90       1.0  0.63967  0.41142999999999996  0.38836  1.0000
  H   H91       1.0  0.50076  0.32272  0.25161  1.0000
  H   H92       1.0  0.68119  0.44050999999999996  0.30747  1.0000
  H   H93       1.0  0.70401  0.16419  0.3328  1.0000
  H   H94       1.0  0.5886799999999999  0.2282  0.3883100000000001  1.0000
  H   H95       1.0  0.6769899999999999  0.17791  0.25145  1.0000
  H   H96       1.0  0.55966  0.24065  0.30745  1.0000
  H   H97       1.0  0.16013000000000002  0.54128  0.99847  1.0000
  H   H98       1.0  0.04296  0.50282  0.99915  1.0000
  H   H99       1.0  0.38209  0.84073  0.99955  1.0000
  H   H100      1.0  0.4604499999999999  0.9579699999999999  0.9998200000000002  1.0000
  H   H101      1.0  0.4588699999999999  0.61833  0.0006400000000000002  1.0000
  H   H102      1.0  0.4976399999999999  0.53997  2.0000000000000005e-05  1.0000
  H   H103      1.0  0.8397999999999999  0.45883999999999997  0.9998400000000001  1.0000
  H   H104      1.0  0.9569699999999998  0.49719  1.0000000000000003e-05  1.0000
  H   H105      1.0  0.61811  0.15925  0.9983  1.0000
  H   H106      1.0  0.5396299999999999  0.0421  0.99907  1.0000
  H   H107      1.0  0.54111  0.38158000000000003  0.0011300000000000001  1.0000
  H   H108      1.0  0.50243  0.46  0.0003800000000000001  1.0000
  H   H109      1.0  0.61831  0.45891999999999994  0.50071  1.0000
  H   H110      1.0  0.53993  0.49766999999999995  0.50003  1.0000
  H   H111      1.0  0.54137  0.16018  0.49922  1.0000
  H   H112      1.0  0.5028299999999999  0.04296  0.49964  1.0000
  H   H113      1.0  0.84061  0.38212999999999997  0.49918  1.0000
  H   H114      1.0  0.95797  0.46038999999999997  0.49969  1.0000
  H   H115      1.0  0.3814199999999999  0.54094  0.50038  1.0000
  H   H116      1.0  0.46009  0.50245  0.50008  1.0000
  H   H117      1.0  0.45869  0.83978  0.50109  1.0000
  H   H118      1.0  0.4971099999999999  0.95695  0.50061  1.0000
  H   H119      1.0  0.1594  0.61822  0.50048  1.0000
  H   H120      1.0  0.042210000000000004  0.5397  0.50019  1.0000
  C   C1        1.0  0.33897  0.52179  0.9133300000000001  1.0000
  C   C2        1.0  0.3525599999999999  0.54737  0.86508  1.0000
  C   C3        1.0  0.32659999999999995  0.50831  0.8264800000000001  1.0000
  C   C4        1.0  0.3928799999999999  0.61003  0.858  1.0000
  C   C5        1.0  0.34166  0.53132  0.7813800000000002  1.0000
  C   C6        1.0  0.40911  0.63277  0.81289  1.0000
  C   C7        1.0  0.38471999999999995  0.59366  0.77374  1.0000
  C   C8        1.0  0.18296  0.66106  0.9132700000000002  1.0000
  C   C9        1.0  0.19486999999999996  0.64743  0.8650300000000002  1.0000
  C   C10       1.0  0.18171  0.67326  0.82641  1.0000
  C   C11       1.0  0.21715999999999996  0.60716  0.85797  1.0000
  C   C12       1.0  0.1896699999999999  0.65826  0.7813  1.0000
  C   C13       1.0  0.22371  0.591  0.81286  1.0000
  C   C14       1.0  0.20896  0.61531  0.7737  1.0000
  C   C15       1.0  0.4780199999999999  0.8167999999999999  0.91334  1.0000
  C   C16       1.0  0.45249  0.80502  0.86509  1.0000
  C   C17       1.0  0.49154  0.8182199999999998  0.82649  1.0000
  C   C18       1.0  0.38987999999999984  0.7828699999999998  0.85799  1.0000
  C   C19       1.0  0.46859  0.81035  0.78137  1.0000
  C   C20       1.0  0.3672199999999999  0.7764499999999999  0.81286  1.0000
  C   C21       1.0  0.4063  0.79107  0.77372  1.0000
  C   C22       1.0  0.6609799999999998  0.47821  0.91339  1.0000
  C   C23       1.0  0.64739  0.45266000000000006  0.86515  1.0000
  C   C24       1.0  0.6733899999999999  0.49171  0.82655  1.0000
  C   C25       1.0  0.60712  0.38998  0.8580700000000001  1.0000
  C   C26       1.0  0.6583899999999999  0.46872  0.78144  1.0000
  C   C27       1.0  0.59092  0.36728  0.81294  1.0000
  C   C28       1.0  0.61531  0.40638  0.77379  1.0000
  C   C29       1.0  0.81707  0.33893  0.91334  1.0000
  C   C30       1.0  0.8051699999999999  0.35256  0.86511  1.0000
  C   C31       1.0  0.81826  0.32667  0.82649  1.0000
  C   C32       1.0  0.7828399999999999  0.39281  0.85804  1.0000
  C   C33       1.0  0.8103199999999999  0.34171  0.78139  1.0000
  C   C34       1.0  0.77636  0.4089999999999999  0.81293  1.0000
  C   C35       1.0  0.79108  0.38469  0.77377  1.0000
  C   C36       1.0  0.5219  0.18324  0.91336  1.0000
  C   C37       1.0  0.54737  0.19495  0.8651  1.0000
  C   C38       1.0  0.5083399999999999  0.18179  0.82649  1.0000
  C   C39       1.0  0.60998  0.21713  0.85802  1.0000
  C   C40       1.0  0.53131  0.18965000000000004  0.7813800000000002  1.0000
  C   C41       1.0  0.63269  0.22358000000000003  0.81292  1.0000
  C   C42       1.0  0.5936099999999999  0.20892  0.77377  1.0000
  C   C43       1.0  0.8166099999999997  0.47803999999999996  0.5866500000000001  1.0000
  C   C44       1.0  0.8049399999999998  0.45254  0.6349100000000001  1.0000
  C   C45       1.0  0.81828  0.49162  0.67353  1.0000
  C   C46       1.0  0.7827599999999998  0.38993  0.64199  1.0000
  C   C47       1.0  0.8104  0.46863999999999995  0.71864  1.0000
  C   C48       1.0  0.7763899999999998  0.36726  0.6871000000000002  1.0000
  C   C49       1.0  0.79109  0.40634  0.72626  1.0000
  C   C50       1.0  0.5218199999999998  0.33905  0.58667  1.0000
  C   C51       1.0  0.54735  0.35261  0.6349100000000001  1.0000
  C   C52       1.0  0.5083099999999998  0.32657  0.67351  1.0000
  C   C53       1.0  0.6100299999999997  0.3929  0.642  1.0000
  C   C54       1.0  0.53131  0.34162  0.71862  1.0000
  C   C55       1.0  0.63274  0.4091099999999999  0.6871200000000002  1.0000
  C   C56       1.0  0.59364  0.38472  0.72627  1.0000
  C   C57       1.0  0.66094  0.1828  0.58676  1.0000
  C   C58       1.0  0.64739  0.19479  0.63499  1.0000
  C   C59       1.0  0.67333  0.18177  0.6736100000000002  1.0000
  C   C60       1.0  0.60718  0.21715  0.6420400000000002  1.0000
  C   C61       1.0  0.6582899999999999  0.18972  0.7187  1.0000
  C   C62       1.0  0.59098  0.22368  0.6871400000000001  1.0000
  C   C63       1.0  0.6153  0.20897  0.72629  1.0000
  C   C64       1.0  0.18345999999999998  0.52191  0.58656  1.0000
  C   C65       1.0  0.19498  0.54742  0.63484  1.0000
  C   C66       1.0  0.1817  0.50836  0.6734600000000002  1.0000
  C   C67       1.0  0.21720999999999996  0.61002  0.64194  1.0000
  C   C68       1.0  0.18956  0.53131  0.71857  1.0000
  C   C69       1.0  0.22360999999999998  0.6327  0.68705  1.0000
  C   C70       1.0  0.20885  0.5936  0.7262000000000001  1.0000
  C   C71       1.0  0.47815  0.66098  0.58657  1.0000
  C   C72       1.0  0.45254  0.64735  0.6348  1.0000
  C   C73       1.0  0.4916399999999999  0.67339  0.67338  1.0000
  C   C74       1.0  0.3898699999999999  0.60705  0.64195  1.0000
  C   C75       1.0  0.46869  0.65839  0.7185  1.0000
  C   C76       1.0  0.36723  0.59085  0.68709  1.0000
  C   C77       1.0  0.4063599999999999  0.6153  0.72622  1.0000
  C   C78       1.0  0.33897  0.81711  0.5866300000000002  1.0000
  C   C79       1.0  0.35256000000000004  0.8052100000000001  0.6348700000000003  1.0000
  C   C80       1.0  0.3266899999999999  0.8183299999999999  0.6734800000000001  1.0000
  C   C81       1.0  0.39277  0.78284  0.64195  1.0000
  C   C82       1.0  0.34171999999999997  0.81037  0.71858  1.0000
  C   C83       1.0  0.4089499999999999  0.7763500000000001  0.68706  1.0000
  C   C84       1.0  0.38466  0.79107  0.72622  1.0000
  C   C85       1.0  0.66095  0.47823  0.08661  1.0000
  C   C86       1.0  0.6473699999999999  0.45269  0.13486  1.0000
  C   C87       1.0  0.67342  0.49174000000000007  0.17345000000000002  1.0000
  C   C88       1.0  0.6071199999999999  0.3900199999999999  0.14193  1.0000
  C   C89       1.0  0.65841  0.46874  0.21857  1.0000
  C   C90       1.0  0.59094  0.36729000000000006  0.18706  1.0000
  C   C91       1.0  0.6153299999999999  0.40641  0.2262  1.0000
  C   C92       1.0  0.8171900000000001  0.339  0.08669  1.0000
  C   C93       1.0  0.80526  0.35254  0.13494  1.0000
  C   C94       1.0  0.81823  0.32658  0.17358  1.0000
  C   C95       1.0  0.78291  0.39277  0.14198  1.0000
  C   C96       1.0  0.8102799999999998  0.34163  0.21867  1.0000
  C   C97       1.0  0.77637  0.40897  0.18708  1.0000
  C   C98       1.0  0.79107  0.38465  0.22625  1.0000
  C   C99       1.0  0.52196  0.18336999999999998  0.08655  1.0000
  C   C100      1.0  0.54749  0.19503  0.1348  1.0000
  C   C101      1.0  0.50838  0.18169  0.17341  1.0000
  C   C102      1.0  0.6101  0.21727  0.14192  1.0000
  C   C103      1.0  0.53133  0.18959  0.21852000000000005  1.0000
  C   C104      1.0  0.6327199999999997  0.22365  0.18705  1.0000
  C   C105      1.0  0.59362  0.20893000000000003  0.22618  1.0000
  C   C106      1.0  0.33907999999999994  0.52175  0.0866  1.0000
  C   C107      1.0  0.35262  0.54727  0.13486  1.0000
  C   C108      1.0  0.32656  0.50825  0.17347  1.0000
  C   C109      1.0  0.39290999999999987  0.60993  0.14193  1.0000
  C   C110      1.0  0.34157999999999994  0.5313  0.21858  1.0000
  C   C111      1.0  0.40906  0.63269  0.18705  1.0000
  C   C112      1.0  0.38466  0.59362  0.22621  1.0000
  C   C113      1.0  0.18285000000000007  0.66095  0.08673  1.0000
  C   C114      1.0  0.1947699999999999  0.64738  0.13497  1.0000
  C   C115      1.0  0.18167  0.67326  0.17360000000000006  1.0000
  C   C116      1.0  0.21709999999999996  0.60713  0.14202000000000004  1.0000
  C   C117      1.0  0.18969999999999995  0.65827  0.21869000000000002  1.0000
  C   C118      1.0  0.22366  0.59097  0.18713  1.0000
  C   C119      1.0  0.209  0.61533  0.22630000000000006  1.0000
  C   C120      1.0  0.47806999999999994  0.81664  0.0866  1.0000
  C   C121      1.0  0.45254999999999995  0.80493  0.13485  1.0000
  C   C122      1.0  0.49163  0.81829  0.17347  1.0000
  C   C123      1.0  0.38993000000000005  0.7827300000000001  0.14197  1.0000
  C   C124      1.0  0.46863999999999995  0.8103899999999999  0.21857  1.0000
  C   C125      1.0  0.36723999999999996  0.77633  0.18708  1.0000
  C   C126      1.0  0.4063299999999999  0.79106  0.22621  1.0000
  C   C127      1.0  0.18325  0.52192  0.4133900000000001  1.0000
  C   C128      1.0  0.19491999999999998  0.54737  0.3651300000000001  1.0000
  C   C129      1.0  0.18172999999999995  0.50832  0.3265  1.0000
  C   C130      1.0  0.21718  0.60997  0.35807  1.0000
  C   C131      1.0  0.18962999999999997  0.53132  0.28141  1.0000
  C   C132      1.0  0.22359000000000004  0.63265  0.31297  1.0000
  C   C133      1.0  0.2089099999999999  0.59361  0.27379  1.0000
  C   C134      1.0  0.47819  0.66093  0.41329  1.0000
  C   C135      1.0  0.45269999999999994  0.64742  0.36506  1.0000
  C   C136      1.0  0.4917499999999998  0.6735  0.32645  1.0000
  C   C137      1.0  0.39000999999999997  0.60715  0.35799  1.0000
  C   C138      1.0  0.4686999999999999  0.65845  0.28136  1.0000
  C   C139      1.0  0.3673  0.59094  0.31288  1.0000
  C   C140      1.0  0.4063799999999999  0.61532  0.27371  1.0000
  C   C141      1.0  0.3390200000000001  0.8172000000000001  0.41326  1.0000
  C   C142      1.0  0.3525799999999999  0.8053  0.36501  1.0000
  C   C143      1.0  0.32666999999999996  0.81832  0.32639  1.0000
  C   C144      1.0  0.3927899999999998  0.7829199999999998  0.35798  1.0000
  C   C145      1.0  0.3416799999999999  0.8103299999999999  0.28129  1.0000
  C   C146      1.0  0.4089999999999999  0.77639  0.31288  1.0000
  C   C147      1.0  0.3846899999999999  0.7910899999999998  0.27371  1.0000
  C   C148      1.0  0.81673  0.47803999999999996  0.41335  1.0000
  C   C149      1.0  0.8050399999999998  0.45256  0.36509  1.0000
  C   C150      1.0  0.81827  0.49161  0.32646  1.0000
  C   C151      1.0  0.7828399999999999  0.38996  0.35801000000000005  1.0000
  C   C152      1.0  0.81039  0.46863  0.28136  1.0000
  C   C153      1.0  0.7763999999999998  0.36728  0.31289  1.0000
  C   C154      1.0  0.79109  0.40634  0.27374  1.0000
  C   C155      1.0  0.52183  0.33899  0.41333  1.0000
  C   C156      1.0  0.5473599999999998  0.35257  0.36509  1.0000
  C   C157      1.0  0.5082999999999999  0.32658  0.32649  1.0000
  C   C158      1.0  0.61003  0.3928900000000001  0.35799  1.0000
  C   C159      1.0  0.53134  0.34163  0.28139  1.0000
  C   C160      1.0  0.6327499999999999  0.40913  0.31288  1.0000
  C   C161      1.0  0.5936599999999999  0.38473  0.27372  1.0000
  C   C162      1.0  0.6610199999999998  0.18291  0.41321  1.0000
  C   C163      1.0  0.64745  0.19484  0.36499000000000004  1.0000
  C   C164      1.0  0.67328  0.18168  0.32636  1.0000
  C   C165      1.0  0.60719  0.21714  0.35794  1.0000
  C   C166      1.0  0.65823  0.18963  0.28127  1.0000
  C   C167      1.0  0.59098  0.22362999999999997  0.31284  1.0000
  C   C168      1.0  0.61529  0.20894000000000001  0.27367  1.0000
  C   C169      1.0  0.19778999999999994  0.45205999999999996  0.00011  1.0000
  C   C170      1.0  0.13667  0.44537  0.00021  1.0000
  C   C171      1.0  0.027009999999999975  0.40907  0.00055  1.0000
  C   C172      1.0  0.9599899999999998  0.37202  0.00024  1.0000
  C   C173      1.0  0.12434  0.49371  0.9992900000000001  1.0000
  C   C174      1.0  0.06181999999999997  0.47269999999999995  0.99959  1.0000
  C   C175      1.0  0.2548300000000001  0.8021600000000001  4.000000000000001e-05  1.0000
  C   C176      1.0  0.30914  0.8634900000000001  4.000000000000001e-05  1.0000
  C   C177      1.0  0.38221  0.97325  0.00015  1.0000
  C   C178      1.0  0.41212999999999994  0.04024  3e-05  1.0000
  C   C179      1.0  0.37000999999999995  0.8762400000000001  0.99973  1.0000
  C   C180      1.0  0.4113599999999999  0.93882  0.99987  1.0000
  C   C181      1.0  0.5479299999999998  0.74554  0.99999  1.0000
  C   C182      1.0  0.5547799999999999  0.69125  3e-05  1.0000
  C   C183      1.0  0.59142  0.61837  0.99971  1.0000
  C   C184      1.0  0.62892  0.58902  0.99991  1.0000
  C   C185      1.0  0.50651  0.63036  0.00033  1.0000
  C   C186      1.0  0.5277  0.58907  5e-05  1.0000
  C   C187      1.0  0.8022799999999998  0.54813  4.000000000000001e-05  1.0000
  C   C188      1.0  0.86343  0.55483  2.0000000000000005e-05  1.0000
  C   C189      1.0  0.97307  0.59102  8.000000000000002e-05  1.0000
  C   C190      1.0  0.04012999999999999  0.62805  0.0  1.0000
  C   C191      1.0  0.87567  0.50641  0.9999  1.0000
  C   C192      1.0  0.9381899999999997  0.52738  3e-05  1.0000
  C   C193      1.0  0.74538  0.19758  0.00013  1.0000
  C   C194      1.0  0.69097  0.1363  0.00022  1.0000
  C   C195      1.0  0.61768  0.02659  0.0006  1.0000
  C   C196      1.0  0.5877099999999998  0.9596  0.00023  1.0000
  C   C197      1.0  0.6301699999999999  0.12372  0.9991400000000001  1.0000
  C   C198      1.0  0.5886999999999999  0.06115999999999999  0.99953  1.0000
  C   C199      1.0  0.45206  0.25445  0.9999700000000001  1.0000
  C   C200      1.0  0.44519  0.30873  0.9999700000000001  1.0000
  C   C201      1.0  0.4086  0.38165  0.9996  1.0000
  C   C202      1.0  0.3711299999999999  0.41104999999999997  0.99983  1.0000
  C   C203      1.0  0.49348  0.3695800000000001  0.00057  1.0000
  C   C204      1.0  0.4723199999999999  0.4109  0.00022  1.0000
  C   C205      1.0  0.74554  0.54796  0.49998  1.0000
  C   C206      1.0  0.69124  0.55484  0.5  1.0000
  C   C207      1.0  0.6183199999999999  0.59142  0.49969  1.0000
  C   C208      1.0  0.5888999999999999  0.62887  0.4999000000000001  1.0000
  C   C209      1.0  0.63035  0.50655  0.5003  1.0000
  C   C210      1.0  0.58905  0.52774  0.50005  1.0000
  C   C211      1.0  0.45203  0.19777  0.50005  1.0000
  C   C212      1.0  0.44531999999999994  0.13664  0.50004  1.0000
  C   C213      1.0  0.4090499999999999  0.02705  0.50028  1.0000
  C   C214      1.0  0.37196999999999997  0.96  0.5001  1.0000
  C   C215      1.0  0.49374  0.12438  0.49956  1.0000
  C   C216      1.0  0.47272  0.06185  0.49984  1.0000
  C   C217      1.0  0.80205  0.25487  0.50004  1.0000
  C   C218      1.0  0.8633999999999998  0.30916  0.50005  1.0000
  C   C219      1.0  0.97322  0.3822  0.50031  1.0000
  C   C220      1.0  0.040260000000000004  0.41204  0.50011  1.0000
  C   C221      1.0  0.8761299999999997  0.37000999999999995  0.49956  1.0000
  C   C222      1.0  0.9387599999999998  0.41131  0.49977  1.0000
  C   C223      1.0  0.25445999999999996  0.45196  0.49998  1.0000
  C   C224      1.0  0.30871  0.445  0.49998  1.0000
  C   C225      1.0  0.38177999999999995  0.4086000000000001  0.49987  1.0000
  C   C226      1.0  0.4112899999999999  0.37123  0.49997  1.0000
  C   C227      1.0  0.36958  0.49336  0.50016  1.0000
  C   C228      1.0  0.41098  0.47229000000000004  0.50004  1.0000
  C   C229      1.0  0.5480599999999999  0.8022599999999999  0.49993  1.0000
  C   C230      1.0  0.5547599999999999  0.86339  0.49988  1.0000
  C   C231      1.0  0.59097  0.9729999999999999  0.49964  1.0000
  C   C232      1.0  0.6280599999999998  0.04005  0.49984  1.0000
  C   C233      1.0  0.5063200000000001  0.8756199999999998  0.50049  1.0000
  C   C234      1.0  0.52729  0.93813  0.50027  1.0000
  C   C235      1.0  0.19754999999999992  0.74554  0.49997  1.0000
  C   C236      1.0  0.13629999999999998  0.69105  0.49998  1.0000
  C   C237      1.0  0.026549999999999994  0.61759  0.49982  1.0000
  C   C238      1.0  0.95952  0.58765  0.49994  1.0000
  C   C239      1.0  0.12381999999999999  0.63025  0.50023  1.0000
  C   C240      1.0  0.06124000000000002  0.58874  0.50008  1.0000
  S   S1        1.0  0.07178  0.3748  0.00142  1.0000
  S   S2        1.0  0.30305999999999983  0.9280799999999999  0.00049  1.0000
  S   S3        1.0  0.6254799999999998  0.69748  0.99942  1.0000
  S   S4        1.0  0.92834  0.62539  0.00018000000000000004  1.0000
  S   S5        1.0  0.69682  0.07158  0.0016700000000000003  1.0000
  S   S6        1.0  0.37449999999999994  0.30254  0.99904  1.0000
  S   S7        1.0  0.69746  0.62552  0.49937  1.0000
  S   S8        1.0  0.37469999999999987  0.07179  0.50073  1.0000
  S   S9        1.0  0.9279799999999998  0.30306  0.50082  1.0000
  S   S10       1.0  0.30261  0.37437  0.49969  1.0000
  S   S11       1.0  0.6253599999999999  0.9282899999999998  0.49904  1.0000
  S   S12       1.0  0.07151999999999996  0.69676  0.4995900000000001  1.0000
  O   O1        1.0  0.2987  0.46554000000000006  0.91932  1.0000
  O   O2        1.0  0.3682199999999999  0.55571  0.94771  1.0000
  O   O3        1.0  0.1669199999999999  0.70119  0.9192900000000003  1.0000
  O   O4        1.0  0.18774999999999997  0.63194  0.94767  1.0000
  O   O5        1.0  0.53435  0.8331  0.91927  1.0000
  O   O6        1.0  0.4440599999999999  0.8116399999999999  0.9478  1.0000
  O   O7        1.0  0.70129  0.53448  0.91934  1.0000
  O   O8        1.0  0.6317799999999999  0.44433  0.94779  1.0000
  O   O9        1.0  0.83307  0.29877  0.91934  1.0000
  O   O10       1.0  0.81226  0.36803  0.94775  1.0000
  O   O11       1.0  0.46553  0.16679  0.9193300000000002  1.0000
  O   O12       1.0  0.55596  0.1886  0.94781  1.0000
  O   O13       1.0  0.8330999999999998  0.53438  0.58071  1.0000
  O   O14       1.0  0.8112499999999998  0.44400000000000006  0.55217  1.0000
  O   O15       1.0  0.46555  0.29876  0.58069  1.0000
  O   O16       1.0  0.55576  0.36821000000000004  0.55226  1.0000
  O   O17       1.0  0.7012  0.16693  0.5807400000000003  1.0000
  O   O18       1.0  0.63175  0.18749  0.55237  1.0000
  O   O19       1.0  0.16676999999999997  0.46553  0.58068  1.0000
  O   O20       1.0  0.18916999999999995  0.55598  0.55198  1.0000
  O   O21       1.0  0.5344199999999999  0.70126  0.58066  1.0000
  O   O22       1.0  0.44431000000000004  0.63187  0.55207  1.0000
  O   O23       1.0  0.29883000000000004  0.8331500000000001  0.58064  1.0000
  O   O24       1.0  0.36806  0.8122900000000001  0.5522  1.0000
  O   O25       1.0  0.70119  0.53452  0.08066  1.0000
  O   O26       1.0  0.6318399999999998  0.4443  0.052190000000000014  1.0000
  O   O27       1.0  0.8331399999999999  0.29879  0.08067  1.0000
  O   O28       1.0  0.81234  0.3680800000000001  0.05231000000000001  1.0000
  O   O29       1.0  0.46558999999999995  0.16686  0.08069000000000003  1.0000
  O   O30       1.0  0.5559499999999999  0.18871999999999997  0.052010000000000015  1.0000
  O   O31       1.0  0.29878999999999994  0.46547999999999995  0.08065000000000003  1.0000
  O   O32       1.0  0.36823  0.55567  0.052190000000000014  1.0000
  O   O33       1.0  0.1669699999999999  0.70121  0.08073000000000002  1.0000
  O   O34       1.0  0.18755999999999992  0.63176  0.05235000000000001  1.0000
  O   O35       1.0  0.53442  0.83313  0.08071  1.0000
  O   O36       1.0  0.44407  0.81135  0.05208  1.0000
  O   O37       1.0  0.16684  0.46558  0.41929  1.0000
  O   O38       1.0  0.18859  0.55592  0.44789  1.0000
  O   O39       1.0  0.5344699999999999  0.70129  0.41932  1.0000
  O   O40       1.0  0.44422999999999985  0.63167  0.44764  1.0000
  O   O41       1.0  0.2988  0.8331500000000001  0.41929  1.0000
  O   O42       1.0  0.36817999999999995  0.8123999999999999  0.44761  1.0000
  O   O43       1.0  0.8331599999999998  0.53438  0.4192700000000001  1.0000
  O   O44       1.0  0.81138  0.44406  0.44786000000000004  1.0000
  O   O45       1.0  0.46556  0.2987  0.41933  1.0000
  O   O46       1.0  0.5557499999999999  0.36823999999999996  0.44771  1.0000
  O   O47       1.0  0.7012299999999998  0.16698  0.4192500000000001  1.0000
  O   O48       1.0  0.63177  0.18758  0.44757  1.0000
  O   O49       1.0  0.9336199999999998  0.31411  4.000000000000001e-05  1.0000
  O   O50       1.0  0.20387999999999998  0.40525000000000005  0.99996  1.0000
  O   O51       1.0  0.9294899999999999  0.40001  0.0001  1.0000
  O   O52       1.0  0.24369  0.50664  0.0001  1.0000
  O   O53       1.0  0.38049  0.06641  0.99998  1.0000
  O   O54       1.0  0.20177999999999996  0.79577  0.9999300000000001  1.0000
  O   O55       1.0  0.47072  0.07087  2.0000000000000005e-05  1.0000
  O   O56       1.0  0.26383  0.75654  9.000000000000002e-05  1.0000
  O   O57       1.0  0.68682  0.62097  2.0000000000000005e-05  1.0000
  O   O58       1.0  0.5946499999999998  0.79861  7e-05  1.0000
  O   O59       1.0  0.60097  0.53038  0.99996  1.0000
  O   O60       1.0  0.49318999999999996  0.73634  0.99989  1.0000
  O   O61       1.0  0.06645999999999995  0.68595  0.0  1.0000
  O   O62       1.0  0.7961999999999998  0.59493  0.99998  1.0000
  O   O63       1.0  0.07062999999999994  0.60006  0.0  1.0000
  O   O64       1.0  0.75642  0.49351  4.000000000000001e-05  1.0000
  O   O65       1.0  0.61938  0.93345  1.0000000000000003e-05  1.0000
  O   O66       1.0  0.7984799999999999  0.20404000000000003  0.99991  1.0000
  O   O67       1.0  0.5291199999999999  0.92892  9.000000000000002e-05  1.0000
  O   O68       1.0  0.73645  0.24323  0.00015  1.0000
  O   O69       1.0  0.31323999999999996  0.37912  0.99998  1.0000
  O   O70       1.0  0.40532999999999997  0.20136000000000004  8.000000000000002e-05  1.0000
  O   O71       1.0  0.3990699999999999  0.46969  0.99991  1.0000
  O   O72       1.0  0.5067599999999998  0.26358  0.99991  1.0000
  O   O73       1.0  0.6208499999999999  0.68675  0.5  1.0000
  O   O74       1.0  0.79865  0.59467  0.50006  1.0000
  O   O75       1.0  0.53024  0.60091  0.49996  1.0000
  O   O76       1.0  0.73636  0.49326  0.49987  1.0000
  O   O77       1.0  0.3140299999999998  0.9336299999999998  0.49998  1.0000
  O   O78       1.0  0.40523  0.20389  0.49994  1.0000
  O   O79       1.0  0.39993999999999996  0.92949  0.50006  1.0000
  O   O80       1.0  0.50668  0.24358000000000002  0.50007  1.0000
  O   O81       1.0  0.06636999999999996  0.38034  0.49997  1.0000
  O   O82       1.0  0.7955199999999998  0.20176  0.4999000000000001  1.0000
  O   O83       1.0  0.07097999999999999  0.47062  0.50006  1.0000
  O   O84       1.0  0.7565299999999998  0.264  0.50008  1.0000
  O   O85       1.0  0.37939999999999996  0.31335  0.50001  1.0000
  O   O86       1.0  0.20130999999999993  0.40531  0.50004  1.0000
  O   O87       1.0  0.46993  0.39923  0.49997  1.0000
  O   O88       1.0  0.26374999999999993  0.50671  0.49994  1.0000
  O   O89       1.0  0.6859799999999998  0.06646  0.5  1.0000
  O   O90       1.0  0.5948299999999997  0.7961  0.50003  1.0000
  O   O91       1.0  0.6000599999999999  0.07055  0.49992000000000003  1.0000
  O   O92       1.0  0.49340999999999996  0.75643  0.4999100000000001  1.0000
  O   O93       1.0  0.9334199999999998  0.61936  0.50001  1.0000
  O   O94       1.0  0.2039499999999999  0.79858  0.50003  1.0000
  O   O95       1.0  0.9287999999999998  0.52907  0.49999  1.0000
  O   O96       1.0  0.24314999999999992  0.73649  0.49992000000000003  1.0000
