data_image0
_chemical_formula_structural       Zn16H192C264O96
_chemical_formula_sum              "Zn16 H192 C264 O96"
_cell_length_a       17.28996
_cell_length_b       28.96008
_cell_length_c       28.96008
_cell_angle_alpha    90.0
_cell_angle_beta     90.0
_cell_angle_gamma    90.0

_symmetry_space_group_name_H-M    'P 1'
_symmetry_Int_Tables_number       1

loop_
  _symmetry_equiv_pos_as_xyz
  'x,y,z'

loop_
  _atom_site_type_symbol
  _atom_site_label
  _atom_site_symmetry_multiplicity
  _atom_site_fract_x
  _atom_site_fract_y
  _atom_site_fract_z
  _atom_site_occupancy
  Zn  Zn1       1.0  0.36899  0.19774000000000005  0.07760000000000003  1.0000
  Zn  Zn2       1.0  0.38512  0.28611000000000003  0.12395000000000003  1.0000
  Zn  Zn3       1.0  0.36899  0.80225  0.9224  1.0000
  Zn  Zn4       1.0  0.38512  0.7138900000000002  0.8760500000000002  1.0000
  Zn  Zn5       1.0  0.86899  0.69774  0.4224  1.0000
  Zn  Zn6       1.0  0.88512  0.7861100000000002  0.37605000000000005  1.0000
  Zn  Zn7       1.0  0.86899  0.3022600000000001  0.57759  1.0000
  Zn  Zn8       1.0  0.88512  0.21389  0.6239500000000002  1.0000
  Zn  Zn9       1.0  0.63101  0.07760000000000003  0.80225  1.0000
  Zn  Zn10      1.0  0.61488  0.12395000000000003  0.7138900000000002  1.0000
  Zn  Zn11      1.0  0.63101  0.9224  0.19774000000000005  1.0000
  Zn  Zn12      1.0  0.61488  0.8760500000000002  0.28611000000000003  1.0000
  Zn  Zn13      1.0  0.13101  0.57759  0.69774  1.0000
  Zn  Zn14      1.0  0.11488  0.6239500000000002  0.7861100000000002  1.0000
  Zn  Zn15      1.0  0.13101  0.4224  0.3022600000000001  1.0000
  Zn  Zn16      1.0  0.11488  0.37605000000000005  0.21389  1.0000
  H   H1        1.0  0.83618  0.06005  0.24155  1.0000
  H   H2        1.0  0.80744  0.0737  0.29924  1.0000
  H   H3        1.0  0.8007599999999999  0.99365  0.28019  1.0000
  H   H4        1.0  0.8017  0.91228  0.30767  1.0000
  H   H5        1.0  0.9655600000000001  0.13425  0.31926  1.0000
  H   H6        1.0  0.91509  0.18618  0.30523  1.0000
  H   H7        1.0  0.76425  0.15669  0.28059  1.0000
  H   H8        1.0  0.82409  0.18965000000000007  0.2419  1.0000
  H   H9        1.0  0.16801999999999997  0.26999000000000006  0.19033000000000005  1.0000
  H   H10       1.0  0.9870999999999999  0.10542000000000001  0.23756  1.0000
  H   H11       1.0  0.91514  0.11926000000000003  0.19516  1.0000
  H   H12       1.0  0.58545  0.24573000000000003  0.19734  1.0000
  H   H13       1.0  0.9192  0.26437  0.43654  1.0000
  H   H14       1.0  0.04348  0.25231  0.23057  1.0000
  H   H15       1.0  0.04267  0.11665000000000003  0.16857  1.0000
  H   H16       1.0  0.70656  0.2165  0.23293  1.0000
  H   H17       1.0  0.1652  0.1352  0.12832  1.0000
  H   H18       1.0  0.68324  0.08938  0.15674  1.0000
  H   H19       1.0  0.81776  0.14535000000000006  0.50142  1.0000
  H   H20       1.0  0.56004  0.11887000000000003  0.12209000000000002  1.0000
  H   H21       1.0  0.9171  0.22518  0.36115000000000014  1.0000
  H   H22       1.0  0.81122  0.10595000000000003  0.4242800000000001  1.0000
  H   H23       1.0  0.03231  0.01169  0.3323300000000001  1.0000
  H   H24       1.0  0.03178  0.92945  0.36015  1.0000
  H   H25       1.0  0.83618  0.9399500000000001  0.75844  1.0000
  H   H26       1.0  0.80744  0.9263  0.70076  1.0000
  H   H27       1.0  0.8007599999999999  0.00634  0.7198  1.0000
  H   H28       1.0  0.8017  0.08772  0.69233  1.0000
  H   H29       1.0  0.9655600000000001  0.86574  0.6807300000000002  1.0000
  H   H30       1.0  0.91509  0.81382  0.69477  1.0000
  H   H31       1.0  0.76425  0.8433100000000002  0.71941  1.0000
  H   H32       1.0  0.82409  0.81035  0.7581  1.0000
  H   H33       1.0  0.16801999999999997  0.73001  0.8096600000000002  1.0000
  H   H34       1.0  0.9870999999999999  0.8945800000000003  0.76244  1.0000
  H   H35       1.0  0.91514  0.88074  0.80484  1.0000
  H   H36       1.0  0.58545  0.7542700000000002  0.80266  1.0000
  H   H37       1.0  0.9192  0.7356300000000002  0.56346  1.0000
  H   H38       1.0  0.04348  0.74769  0.76943  1.0000
  H   H39       1.0  0.04267  0.88335  0.83143  1.0000
  H   H40       1.0  0.70656  0.7835000000000002  0.7670700000000003  1.0000
  H   H41       1.0  0.1652  0.8648  0.8716700000000002  1.0000
  H   H42       1.0  0.68324  0.9106200000000002  0.8432600000000002  1.0000
  H   H43       1.0  0.81776  0.85465  0.49858  1.0000
  H   H44       1.0  0.56004  0.88113  0.8779100000000001  1.0000
  H   H45       1.0  0.9171  0.77481  0.63885  1.0000
  H   H46       1.0  0.81122  0.89405  0.5757200000000001  1.0000
  H   H47       1.0  0.03231  0.9883  0.66766  1.0000
  H   H48       1.0  0.03178  0.07055  0.6398500000000003  1.0000
  H   H49       1.0  0.33618  0.56005  0.25845  1.0000
  H   H50       1.0  0.30744  0.5737  0.20076000000000002  1.0000
  H   H51       1.0  0.30076  0.4936600000000001  0.21980000000000005  1.0000
  H   H52       1.0  0.3017  0.41228  0.19233000000000006  1.0000
  H   H53       1.0  0.46556  0.6342500000000001  0.18073  1.0000
  H   H54       1.0  0.41509  0.68618  0.19477000000000005  1.0000
  H   H55       1.0  0.26425  0.6566900000000002  0.21941  1.0000
  H   H56       1.0  0.32409  0.68965  0.2581  1.0000
  H   H57       1.0  0.66802  0.76999  0.30966  1.0000
  H   H58       1.0  0.4871  0.6054200000000002  0.26244  1.0000
  H   H59       1.0  0.41514  0.61926  0.30484  1.0000
  H   H60       1.0  0.08545  0.7457300000000002  0.3026600000000001  1.0000
  H   H61       1.0  0.41919999999999996  0.7643700000000002  0.06346  1.0000
  H   H62       1.0  0.54348  0.75231  0.26943000000000006  1.0000
  H   H63       1.0  0.54267  0.61665  0.33143  1.0000
  H   H64       1.0  0.20656  0.7165000000000002  0.26707  1.0000
  H   H65       1.0  0.6652  0.6352  0.37168  1.0000
  H   H66       1.0  0.18324  0.5893800000000002  0.34326000000000007  1.0000
  H   H67       1.0  0.31776  0.64534  0.99858  1.0000
  H   H68       1.0  0.060039999999999996  0.61887  0.37791  1.0000
  H   H69       1.0  0.4171  0.72518  0.13885  1.0000
  H   H70       1.0  0.31122  0.60594  0.07572000000000002  1.0000
  H   H71       1.0  0.53231  0.51169  0.16766  1.0000
  H   H72       1.0  0.53178  0.42945  0.13985  1.0000
  H   H73       1.0  0.33618  0.43995  0.74155  1.0000
  H   H74       1.0  0.30744  0.4263000000000001  0.79924  1.0000
  H   H75       1.0  0.30076  0.50634  0.78019  1.0000
  H   H76       1.0  0.3017  0.5877100000000001  0.80767  1.0000
  H   H77       1.0  0.46556  0.36575  0.8192600000000002  1.0000
  H   H78       1.0  0.41509  0.31382  0.8052300000000001  1.0000
  H   H79       1.0  0.26425  0.34331  0.78059  1.0000
  H   H80       1.0  0.32409  0.31035  0.7419000000000001  1.0000
  H   H81       1.0  0.66802  0.23001  0.69033  1.0000
  H   H82       1.0  0.4871  0.3945800000000001  0.73756  1.0000
  H   H83       1.0  0.41514  0.38074  0.69516  1.0000
  H   H84       1.0  0.08545  0.25427  0.69734  1.0000
  H   H85       1.0  0.41919999999999996  0.23563000000000006  0.93654  1.0000
  H   H86       1.0  0.54348  0.24769000000000005  0.73057  1.0000
  H   H87       1.0  0.54267  0.3833500000000001  0.66856  1.0000
  H   H88       1.0  0.20656  0.2835  0.7329300000000002  1.0000
  H   H89       1.0  0.6652  0.3648  0.62832  1.0000
  H   H90       1.0  0.18324  0.41062  0.6567400000000002  1.0000
  H   H91       1.0  0.31777  0.35465  0.00142  1.0000
  H   H92       1.0  0.060039999999999996  0.3811300000000001  0.62209  1.0000
  H   H93       1.0  0.4171  0.27481  0.86115  1.0000
  H   H94       1.0  0.31122  0.39405  0.9242800000000002  1.0000
  H   H95       1.0  0.53231  0.4883000000000001  0.83233  1.0000
  H   H96       1.0  0.53178  0.57055  0.8601500000000002  1.0000
  H   H97       1.0  0.16381999999999997  0.24155  0.9399500000000001  1.0000
  H   H98       1.0  0.19256  0.29924  0.9263  1.0000
  H   H99       1.0  0.19924  0.28019  0.00634  1.0000
  H   H100      1.0  0.1983  0.30767  0.08772  1.0000
  H   H101      1.0  0.03444  0.31926  0.86574  1.0000
  H   H102      1.0  0.08491  0.30523  0.81382  1.0000
  H   H103      1.0  0.23575  0.28059  0.8433100000000002  1.0000
  H   H104      1.0  0.17591  0.2419  0.81035  1.0000
  H   H105      1.0  0.83198  0.19033000000000005  0.73001  1.0000
  H   H106      1.0  0.0129  0.23756  0.8945800000000003  1.0000
  H   H107      1.0  0.08486  0.19516  0.88074  1.0000
  H   H108      1.0  0.41455  0.19734  0.7542700000000002  1.0000
  H   H109      1.0  0.0808  0.43654  0.7356300000000002  1.0000
  H   H110      1.0  0.95652  0.23057  0.74769  1.0000
  H   H111      1.0  0.95733  0.16857  0.88335  1.0000
  H   H112      1.0  0.29344  0.23293  0.7835000000000002  1.0000
  H   H113      1.0  0.8348  0.12832  0.8648  1.0000
  H   H114      1.0  0.31676  0.15674  0.9106200000000002  1.0000
  H   H115      1.0  0.18223  0.50142  0.85465  1.0000
  H   H116      1.0  0.43996  0.12209000000000002  0.88113  1.0000
  H   H117      1.0  0.0829  0.36115000000000014  0.77481  1.0000
  H   H118      1.0  0.18878  0.4242800000000001  0.89405  1.0000
  H   H119      1.0  0.96769  0.3323300000000001  0.9883  1.0000
  H   H120      1.0  0.9682199999999999  0.36015  0.07055  1.0000
  H   H121      1.0  0.16381999999999997  0.75844  0.06005  1.0000
  H   H122      1.0  0.19256  0.70076  0.0737  1.0000
  H   H123      1.0  0.19924  0.7198  0.99365  1.0000
  H   H124      1.0  0.1983  0.69233  0.91228  1.0000
  H   H125      1.0  0.03444  0.6807300000000002  0.13425  1.0000
  H   H126      1.0  0.08491  0.69477  0.18618  1.0000
  H   H127      1.0  0.23575  0.71941  0.15669  1.0000
  H   H128      1.0  0.17591  0.7581  0.18965000000000007  1.0000
  H   H129      1.0  0.83198  0.8096600000000002  0.26999000000000006  1.0000
  H   H130      1.0  0.0129  0.76244  0.10542000000000001  1.0000
  H   H131      1.0  0.08486  0.80484  0.11926000000000003  1.0000
  H   H132      1.0  0.41455  0.80266  0.24573000000000003  1.0000
  H   H133      1.0  0.0808  0.56346  0.26437  1.0000
  H   H134      1.0  0.95652  0.76943  0.25231  1.0000
  H   H135      1.0  0.95733  0.83143  0.11665000000000003  1.0000
  H   H136      1.0  0.29344  0.7670700000000003  0.2165  1.0000
  H   H137      1.0  0.8348  0.8716700000000002  0.1352  1.0000
  H   H138      1.0  0.31676  0.8432600000000002  0.08938  1.0000
  H   H139      1.0  0.18223  0.49858  0.14535000000000006  1.0000
  H   H140      1.0  0.43996  0.8779100000000001  0.11887000000000003  1.0000
  H   H141      1.0  0.0829  0.63885  0.22518  1.0000
  H   H142      1.0  0.18878  0.5757200000000001  0.10595000000000003  1.0000
  H   H143      1.0  0.96769  0.66766  0.01169  1.0000
  H   H144      1.0  0.9682199999999999  0.6398500000000003  0.92945  1.0000
  H   H145      1.0  0.66382  0.74155  0.56005  1.0000
  H   H146      1.0  0.69256  0.79924  0.5737  1.0000
  H   H147      1.0  0.69924  0.78019  0.4936600000000001  1.0000
  H   H148      1.0  0.6983  0.80767  0.41228  1.0000
  H   H149      1.0  0.53444  0.8192600000000002  0.6342500000000001  1.0000
  H   H150      1.0  0.58491  0.8052300000000001  0.68618  1.0000
  H   H151      1.0  0.73575  0.78059  0.6566900000000002  1.0000
  H   H152      1.0  0.67591  0.7419000000000001  0.68965  1.0000
  H   H153      1.0  0.33198  0.69033  0.76999  1.0000
  H   H154      1.0  0.5129  0.73756  0.6054200000000002  1.0000
  H   H155      1.0  0.58486  0.69516  0.61926  1.0000
  H   H156      1.0  0.91455  0.69734  0.7457300000000002  1.0000
  H   H157      1.0  0.5808  0.93654  0.7643700000000002  1.0000
  H   H158      1.0  0.45652  0.73057  0.75231  1.0000
  H   H159      1.0  0.45733  0.66856  0.61665  1.0000
  H   H160      1.0  0.79344  0.7329300000000002  0.7165000000000002  1.0000
  H   H161      1.0  0.3348  0.62832  0.6352  1.0000
  H   H162      1.0  0.81676  0.6567400000000002  0.5893800000000002  1.0000
  H   H163      1.0  0.68223  0.00142  0.64535  1.0000
  H   H164      1.0  0.9399600000000001  0.62209  0.61887  1.0000
  H   H165      1.0  0.5829  0.86115  0.72518  1.0000
  H   H166      1.0  0.68878  0.9242800000000002  0.60594  1.0000
  H   H167      1.0  0.46768999999999994  0.83233  0.51169  1.0000
  H   H168      1.0  0.4682200000000001  0.8601500000000002  0.42945  1.0000
  H   H169      1.0  0.66382  0.25845  0.43995  1.0000
  H   H170      1.0  0.69256  0.20076000000000002  0.4263000000000001  1.0000
  H   H171      1.0  0.69924  0.21980000000000005  0.50634  1.0000
  H   H172      1.0  0.6983  0.19233000000000006  0.5877100000000001  1.0000
  H   H173      1.0  0.53444  0.18073  0.36575  1.0000
  H   H174      1.0  0.58491  0.19477000000000005  0.31382  1.0000
  H   H175      1.0  0.73575  0.21941  0.34331  1.0000
  H   H176      1.0  0.67591  0.2581  0.31035  1.0000
  H   H177      1.0  0.33198  0.30966  0.23001  1.0000
  H   H178      1.0  0.5129  0.26244  0.3945800000000001  1.0000
  H   H179      1.0  0.58486  0.30484  0.38074  1.0000
  H   H180      1.0  0.91455  0.3026600000000001  0.25427  1.0000
  H   H181      1.0  0.5808  0.06346  0.23563000000000006  1.0000
  H   H182      1.0  0.45652  0.26943000000000006  0.24769000000000005  1.0000
  H   H183      1.0  0.45733  0.33143  0.3833500000000001  1.0000
  H   H184      1.0  0.79344  0.26707  0.2835  1.0000
  H   H185      1.0  0.3348  0.37168  0.3648  1.0000
  H   H186      1.0  0.81676  0.34326000000000007  0.41062  1.0000
  H   H187      1.0  0.68223  0.99858  0.35465  1.0000
  H   H188      1.0  0.9399600000000001  0.37791  0.3811300000000001  1.0000
  H   H189      1.0  0.5829  0.13885  0.27481  1.0000
  H   H190      1.0  0.68878  0.07572000000000002  0.39405  1.0000
  H   H191      1.0  0.46768999999999994  0.16766  0.4883000000000001  1.0000
  H   H192      1.0  0.4682200000000001  0.13985  0.57055  1.0000
  C   C1        1.0  0.87704  0.12684  0.26616  1.0000
  C   C2        1.0  0.7027  0.15102000000000004  0.19652000000000006  1.0000
  C   C3        1.0  0.85501  0.07595000000000003  0.27413  1.0000
  C   C4        1.0  0.86899  0.20742  0.47378  1.0000
  C   C5        1.0  0.56513  0.18423000000000006  0.15754000000000007  1.0000
  C   C6        1.0  0.03597  0.1833  0.2027  1.0000
  C   C7        1.0  0.85154  0.98001  0.29749  1.0000
  C   C8        1.0  0.85205  0.93424  0.31279  1.0000
  C   C9        1.0  0.9088  0.14890000000000006  0.31055  1.0000
  C   C10       1.0  0.91618  0.8675800000000002  0.35288  1.0000
  C   C11       1.0  0.80562  0.15467000000000006  0.2518  1.0000
  C   C12       1.0  0.17487  0.20329000000000005  0.15736  1.0000
  C   C13       1.0  0.1404  0.23647  0.18631  1.0000
  C   C14       1.0  0.93984  0.12919  0.22873  1.0000
  C   C15       1.0  0.87213  0.23124  0.5187200000000001  1.0000
  C   C16       1.0  0.24889999999999998  0.21302000000000004  0.13393  1.0000
  C   C17       1.0  0.60686  0.21142  0.18889000000000006  1.0000
  C   C18       1.0  0.86318  0.16283  0.38807  1.0000
  C   C19       1.0  0.89627  0.22954000000000005  0.43389  1.0000
  C   C20       1.0  0.91684  0.0077  0.30495  1.0000
  C   C21       1.0  0.49373  0.20197000000000004  0.13562  1.0000
  C   C22       1.0  0.07101  0.22676000000000004  0.20846  1.0000
  C   C23       1.0  0.06964  0.15009  0.17370000000000005  1.0000
  C   C24       1.0  0.67501  0.19496000000000005  0.20872000000000004  1.0000
  C   C25       1.0  0.13846  0.16047  0.15100000000000005  1.0000
  C   C26       1.0  0.66114  0.1235  0.16515  1.0000
  C   C27       1.0  0.8385299999999999  0.16247  0.4703600000000001  1.0000
  C   C28       1.0  0.59296  0.13995000000000002  0.14613000000000007  1.0000
  C   C29       1.0  0.8947299999999999  0.20736  0.39129000000000014  1.0000
  C   C30       1.0  0.91669  0.9158600000000002  0.33549000000000007  1.0000
  C   C31       1.0  0.83459  0.14061000000000004  0.42776  1.0000
  C   C32       1.0  0.98238  0.9894700000000002  0.32713  1.0000
  C   C33       1.0  0.982  0.944  0.34237000000000006  1.0000
  C   C34       1.0  0.87704  0.87315  0.7338300000000002  1.0000
  C   C35       1.0  0.7027  0.8489800000000002  0.8034800000000001  1.0000
  C   C36       1.0  0.85501  0.92405  0.7258700000000002  1.0000
  C   C37       1.0  0.86899  0.79258  0.52622  1.0000
  C   C38       1.0  0.56513  0.8157700000000002  0.8424600000000001  1.0000
  C   C39       1.0  0.03597  0.8166900000000002  0.79729  1.0000
  C   C40       1.0  0.85154  0.01999  0.7025  1.0000
  C   C41       1.0  0.85205  0.06576  0.68721  1.0000
  C   C42       1.0  0.9088  0.8511  0.68945  1.0000
  C   C43       1.0  0.91618  0.13242  0.6471100000000001  1.0000
  C   C44       1.0  0.80562  0.84533  0.7482  1.0000
  C   C45       1.0  0.17487  0.7967100000000003  0.84263  1.0000
  C   C46       1.0  0.1404  0.7635300000000003  0.81369  1.0000
  C   C47       1.0  0.93984  0.8708100000000002  0.77126  1.0000
  C   C48       1.0  0.87213  0.7687600000000002  0.48127000000000003  1.0000
  C   C49       1.0  0.24889999999999998  0.7869800000000002  0.86607  1.0000
  C   C50       1.0  0.60686  0.78857  0.81111  1.0000
  C   C51       1.0  0.86318  0.8371700000000001  0.61193  1.0000
  C   C52       1.0  0.89627  0.77045  0.56611  1.0000
  C   C53       1.0  0.91684  0.9923  0.69505  1.0000
  C   C54       1.0  0.49373  0.7980300000000002  0.86438  1.0000
  C   C55       1.0  0.07101  0.7732400000000003  0.79154  1.0000
  C   C56       1.0  0.06964  0.8499100000000003  0.8263  1.0000
  C   C57       1.0  0.67501  0.80504  0.79127  1.0000
  C   C58       1.0  0.13846  0.83953  0.8490000000000002  1.0000
  C   C59       1.0  0.66114  0.8765000000000002  0.8348400000000002  1.0000
  C   C60       1.0  0.8385299999999999  0.8375300000000002  0.52964  1.0000
  C   C61       1.0  0.59296  0.8600500000000002  0.8538700000000002  1.0000
  C   C62       1.0  0.8947299999999999  0.79264  0.60871  1.0000
  C   C63       1.0  0.91669  0.08414000000000003  0.66451  1.0000
  C   C64       1.0  0.83459  0.85938  0.57223  1.0000
  C   C65       1.0  0.98238  0.01052  0.67287  1.0000
  C   C66       1.0  0.982  0.056000000000000015  0.6576300000000003  1.0000
  C   C67       1.0  0.37705  0.62684  0.23383000000000007  1.0000
  C   C68       1.0  0.2027  0.6510200000000003  0.30348  1.0000
  C   C69       1.0  0.35501  0.57594  0.22587000000000004  1.0000
  C   C70       1.0  0.36899  0.70741  0.02622  1.0000
  C   C71       1.0  0.06513  0.6842300000000002  0.34246  1.0000
  C   C72       1.0  0.53597  0.6833000000000002  0.2973  1.0000
  C   C73       1.0  0.35154  0.48001  0.20251000000000005  1.0000
  C   C74       1.0  0.35205  0.4342400000000001  0.18721  1.0000
  C   C75       1.0  0.4088  0.64889  0.18945000000000006  1.0000
  C   C76       1.0  0.41618  0.36758000000000013  0.14711  1.0000
  C   C77       1.0  0.30562  0.65467  0.2482  1.0000
  C   C78       1.0  0.67487  0.7032900000000002  0.34264  1.0000
  C   C79       1.0  0.6404  0.7364700000000002  0.31369  1.0000
  C   C80       1.0  0.43984  0.62918  0.27127  1.0000
  C   C81       1.0  0.37213  0.7312400000000001  0.98127  1.0000
  C   C82       1.0  0.7489  0.7130100000000003  0.36607000000000006  1.0000
  C   C83       1.0  0.10686  0.71142  0.3111100000000001  1.0000
  C   C84       1.0  0.36318  0.66283  0.11193  1.0000
  C   C85       1.0  0.39627  0.72954  0.06611  1.0000
  C   C86       1.0  0.41684  0.5077  0.19505  1.0000
  C   C87       1.0  0.9937299999999999  0.7019700000000002  0.36438  1.0000
  C   C88       1.0  0.57101  0.7267600000000002  0.29154  1.0000
  C   C89       1.0  0.56964  0.6500900000000002  0.3263  1.0000
  C   C90       1.0  0.17501  0.6949500000000001  0.29128  1.0000
  C   C91       1.0  0.63846  0.66047  0.3490000000000001  1.0000
  C   C92       1.0  0.16114  0.6235000000000003  0.33485000000000004  1.0000
  C   C93       1.0  0.33853  0.6624700000000002  0.02964  1.0000
  C   C94       1.0  0.09296  0.6399400000000002  0.35387000000000013  1.0000
  C   C95       1.0  0.39473  0.70736  0.10871  1.0000
  C   C96       1.0  0.41669  0.4158600000000001  0.16451000000000005  1.0000
  C   C97       1.0  0.33459  0.64061  0.07224000000000003  1.0000
  C   C98       1.0  0.48238  0.48948  0.17287  1.0000
  C   C99       1.0  0.48200000000000004  0.4440000000000001  0.15763  1.0000
  C   C100      1.0  0.37704  0.3731500000000001  0.7661600000000002  1.0000
  C   C101      1.0  0.2027  0.3489800000000001  0.69652  1.0000
  C   C102      1.0  0.35501  0.4240500000000001  0.7741300000000002  1.0000
  C   C103      1.0  0.36899  0.29258  0.97378  1.0000
  C   C104      1.0  0.06513  0.3157700000000001  0.65754  1.0000
  C   C105      1.0  0.53597  0.31669  0.7027  1.0000
  C   C106      1.0  0.35154  0.51999  0.79749  1.0000
  C   C107      1.0  0.35205  0.56576  0.8127900000000001  1.0000
  C   C108      1.0  0.4088  0.3511  0.8105500000000001  1.0000
  C   C109      1.0  0.41618  0.6324200000000002  0.85288  1.0000
  C   C110      1.0  0.30562  0.34533  0.7518  1.0000
  C   C111      1.0  0.67487  0.2967100000000001  0.65736  1.0000
  C   C112      1.0  0.6404  0.26353  0.68631  1.0000
  C   C113      1.0  0.43984  0.37081  0.72873  1.0000
  C   C114      1.0  0.37213  0.26876  0.01873  1.0000
  C   C115      1.0  0.7489  0.28698000000000007  0.63392  1.0000
  C   C116      1.0  0.10686  0.28857  0.68889  1.0000
  C   C117      1.0  0.36318  0.33717  0.8880700000000002  1.0000
  C   C118      1.0  0.39627  0.27046  0.93389  1.0000
  C   C119      1.0  0.41684  0.4923000000000001  0.80494  1.0000
  C   C120      1.0  0.9937299999999999  0.29803000000000013  0.63562  1.0000
  C   C121      1.0  0.57101  0.27324  0.70846  1.0000
  C   C122      1.0  0.56964  0.34991000000000005  0.6737  1.0000
  C   C123      1.0  0.17501  0.30504  0.70872  1.0000
  C   C124      1.0  0.63846  0.33953  0.6510000000000002  1.0000
  C   C125      1.0  0.16114  0.3765  0.6651500000000002  1.0000
  C   C126      1.0  0.33853  0.33753  0.9703600000000002  1.0000
  C   C127      1.0  0.09296  0.3600500000000001  0.6461200000000002  1.0000
  C   C128      1.0  0.39473  0.29264  0.89129  1.0000
  C   C129      1.0  0.41669  0.5841400000000002  0.83548  1.0000
  C   C130      1.0  0.33459  0.3593800000000001  0.92776  1.0000
  C   C131      1.0  0.48238  0.5105200000000001  0.82713  1.0000
  C   C132      1.0  0.48200000000000004  0.556  0.8423700000000002  1.0000
  C   C133      1.0  0.12295  0.26616  0.87315  1.0000
  C   C134      1.0  0.2973  0.19652000000000006  0.8489800000000002  1.0000
  C   C135      1.0  0.14499  0.27413  0.92405  1.0000
  C   C136      1.0  0.13101  0.47378  0.79258  1.0000
  C   C137      1.0  0.43487  0.15754000000000007  0.8157700000000002  1.0000
  C   C138      1.0  0.96403  0.2027  0.8166900000000002  1.0000
  C   C139      1.0  0.14846  0.29749  0.01999  1.0000
  C   C140      1.0  0.14795  0.31279  0.06576  1.0000
  C   C141      1.0  0.0912  0.31055  0.8511  1.0000
  C   C142      1.0  0.08382  0.35289  0.13242  1.0000
  C   C143      1.0  0.19438  0.2518  0.84533  1.0000
  C   C144      1.0  0.82513  0.15736  0.7967100000000003  1.0000
  C   C145      1.0  0.8596  0.18631  0.7635300000000003  1.0000
  C   C146      1.0  0.06016  0.22873  0.8708100000000002  1.0000
  C   C147      1.0  0.12786  0.5187200000000001  0.7687600000000002  1.0000
  C   C148      1.0  0.7511  0.13393  0.7869800000000002  1.0000
  C   C149      1.0  0.39314  0.18889000000000006  0.78857  1.0000
  C   C150      1.0  0.13682  0.38807  0.8371700000000001  1.0000
  C   C151      1.0  0.10373  0.43389  0.77045  1.0000
  C   C152      1.0  0.08316  0.30495  0.9923  1.0000
  C   C153      1.0  0.50627  0.13562  0.7980300000000002  1.0000
  C   C154      1.0  0.9289899999999999  0.20846  0.7732400000000003  1.0000
  C   C155      1.0  0.93036  0.17370000000000005  0.8499100000000003  1.0000
  C   C156      1.0  0.32499  0.20872000000000004  0.80504  1.0000
  C   C157      1.0  0.86154  0.15100000000000005  0.83953  1.0000
  C   C158      1.0  0.33886  0.16515  0.8765000000000002  1.0000
  C   C159      1.0  0.16147  0.4703600000000001  0.8375300000000002  1.0000
  C   C160      1.0  0.40704  0.14613000000000007  0.8600500000000002  1.0000
  C   C161      1.0  0.10527  0.39129000000000014  0.79264  1.0000
  C   C162      1.0  0.08331  0.33549000000000007  0.08414000000000003  1.0000
  C   C163      1.0  0.16541  0.42776  0.85938  1.0000
  C   C164      1.0  0.01762  0.32713  0.01052  1.0000
  C   C165      1.0  0.018  0.34237000000000006  0.056000000000000015  1.0000
  C   C166      1.0  0.12295  0.7338300000000002  0.12684  1.0000
  C   C167      1.0  0.2973  0.8034800000000001  0.15102000000000004  1.0000
  C   C168      1.0  0.14499  0.7258700000000002  0.07595000000000003  1.0000
  C   C169      1.0  0.13101  0.52622  0.20742  1.0000
  C   C170      1.0  0.43487  0.8424600000000001  0.18423000000000006  1.0000
  C   C171      1.0  0.96403  0.79729  0.1833  1.0000
  C   C172      1.0  0.14846  0.7025  0.98001  1.0000
  C   C173      1.0  0.14795  0.68721  0.93424  1.0000
  C   C174      1.0  0.0912  0.68945  0.14890000000000006  1.0000
  C   C175      1.0  0.08382  0.6471100000000001  0.8675800000000002  1.0000
  C   C176      1.0  0.19438  0.7482  0.15467000000000006  1.0000
  C   C177      1.0  0.82513  0.84263  0.20329000000000005  1.0000
  C   C178      1.0  0.8596  0.81369  0.23647  1.0000
  C   C179      1.0  0.06016  0.77126  0.12919  1.0000
  C   C180      1.0  0.12786  0.48127000000000003  0.23124  1.0000
  C   C181      1.0  0.7511  0.86607  0.21302000000000004  1.0000
  C   C182      1.0  0.39314  0.81111  0.21142  1.0000
  C   C183      1.0  0.13682  0.61193  0.16283  1.0000
  C   C184      1.0  0.10373  0.56611  0.22954000000000005  1.0000
  C   C185      1.0  0.08316  0.69505  0.0077  1.0000
  C   C186      1.0  0.50627  0.86438  0.20197000000000004  1.0000
  C   C187      1.0  0.9289899999999999  0.79154  0.22676000000000004  1.0000
  C   C188      1.0  0.93036  0.8263  0.15009  1.0000
  C   C189      1.0  0.32499  0.79127  0.19496000000000005  1.0000
  C   C190      1.0  0.86154  0.8490000000000002  0.16047  1.0000
  C   C191      1.0  0.33886  0.8348400000000002  0.1235  1.0000
  C   C192      1.0  0.16147  0.52964  0.16247  1.0000
  C   C193      1.0  0.40704  0.8538700000000002  0.13995000000000002  1.0000
  C   C194      1.0  0.10527  0.60871  0.20736  1.0000
  C   C195      1.0  0.08331  0.66451  0.9158600000000002  1.0000
  C   C196      1.0  0.16541  0.57223  0.14061000000000004  1.0000
  C   C197      1.0  0.01762  0.67287  0.9894700000000002  1.0000
  C   C198      1.0  0.018  0.6576300000000003  0.944  1.0000
  C   C199      1.0  0.62295  0.7661600000000002  0.62684  1.0000
  C   C200      1.0  0.7973  0.69652  0.6510200000000003  1.0000
  C   C201      1.0  0.64499  0.7741300000000002  0.57594  1.0000
  C   C202      1.0  0.63101  0.97378  0.70741  1.0000
  C   C203      1.0  0.93487  0.65754  0.6842300000000002  1.0000
  C   C204      1.0  0.46403  0.7027  0.6833000000000002  1.0000
  C   C205      1.0  0.64846  0.79749  0.48001  1.0000
  C   C206      1.0  0.64795  0.8127900000000001  0.4342400000000001  1.0000
  C   C207      1.0  0.5912  0.8105500000000001  0.64889  1.0000
  C   C208      1.0  0.58382  0.85288  0.36758000000000013  1.0000
  C   C209      1.0  0.69438  0.7518  0.65467  1.0000
  C   C210      1.0  0.32513  0.65736  0.7032900000000002  1.0000
  C   C211      1.0  0.3596  0.68631  0.7364700000000002  1.0000
  C   C212      1.0  0.56016  0.72873  0.62918  1.0000
  C   C213      1.0  0.62786  0.01873  0.7312400000000001  1.0000
  C   C214      1.0  0.2511  0.63392  0.7130100000000003  1.0000
  C   C215      1.0  0.89314  0.68889  0.71142  1.0000
  C   C216      1.0  0.63682  0.8880700000000002  0.66283  1.0000
  C   C217      1.0  0.60373  0.93389  0.72954  1.0000
  C   C218      1.0  0.58316  0.80494  0.5077  1.0000
  C   C219      1.0  0.00627  0.63562  0.7019700000000002  1.0000
  C   C220      1.0  0.42899  0.70846  0.7267600000000002  1.0000
  C   C221      1.0  0.43036  0.6737  0.6500900000000002  1.0000
  C   C222      1.0  0.82499  0.70872  0.6949500000000001  1.0000
  C   C223      1.0  0.36154  0.6510000000000002  0.66047  1.0000
  C   C224      1.0  0.83886  0.6651500000000002  0.6235000000000003  1.0000
  C   C225      1.0  0.66147  0.9703600000000002  0.6624700000000002  1.0000
  C   C226      1.0  0.9070399999999998  0.6461200000000002  0.6399400000000002  1.0000
  C   C227      1.0  0.60527  0.89129  0.70736  1.0000
  C   C228      1.0  0.58331  0.83548  0.4158600000000001  1.0000
  C   C229      1.0  0.66541  0.92776  0.64061  1.0000
  C   C230      1.0  0.51762  0.82713  0.48948  1.0000
  C   C231      1.0  0.518  0.8423700000000002  0.4440000000000001  1.0000
  C   C232      1.0  0.62295  0.23383000000000007  0.3731500000000001  1.0000
  C   C233      1.0  0.7973  0.30348  0.3489800000000001  1.0000
  C   C234      1.0  0.64499  0.22587000000000004  0.4240500000000001  1.0000
  C   C235      1.0  0.63101  0.02622  0.29258  1.0000
  C   C236      1.0  0.93487  0.34246  0.3157700000000001  1.0000
  C   C237      1.0  0.46403  0.2973  0.31669  1.0000
  C   C238      1.0  0.64846  0.20251000000000005  0.51999  1.0000
  C   C239      1.0  0.64795  0.18721  0.56576  1.0000
  C   C240      1.0  0.5912  0.18945000000000006  0.3511  1.0000
  C   C241      1.0  0.58382  0.14711  0.6324200000000002  1.0000
  C   C242      1.0  0.69438  0.2482  0.34533  1.0000
  C   C243      1.0  0.32513  0.34264  0.2967100000000001  1.0000
  C   C244      1.0  0.3596  0.31369  0.26353  1.0000
  C   C245      1.0  0.56016  0.27127  0.37081  1.0000
  C   C246      1.0  0.62786  0.98127  0.26876  1.0000
  C   C247      1.0  0.2511  0.36607000000000006  0.28698000000000007  1.0000
  C   C248      1.0  0.89314  0.3111100000000001  0.28857  1.0000
  C   C249      1.0  0.63682  0.11193  0.33717  1.0000
  C   C250      1.0  0.60373  0.06611  0.27046  1.0000
  C   C251      1.0  0.58316  0.19505  0.4923000000000001  1.0000
  C   C252      1.0  0.00627  0.36438  0.29803000000000013  1.0000
  C   C253      1.0  0.42899  0.29154  0.27324  1.0000
  C   C254      1.0  0.43036  0.3263  0.34991000000000005  1.0000
  C   C255      1.0  0.82499  0.29128  0.30504  1.0000
  C   C256      1.0  0.36154  0.3490000000000001  0.33953  1.0000
  C   C257      1.0  0.83886  0.33485000000000004  0.3765  1.0000
  C   C258      1.0  0.66147  0.02964  0.33753  1.0000
  C   C259      1.0  0.9070399999999998  0.35387000000000013  0.3600500000000001  1.0000
  C   C260      1.0  0.60527  0.10871  0.29264  1.0000
  C   C261      1.0  0.58331  0.16451000000000005  0.5841400000000002  1.0000
  C   C262      1.0  0.66541  0.07224000000000003  0.3593800000000001  1.0000
  C   C263      1.0  0.51762  0.17287  0.5105200000000001  1.0000
  C   C264      1.0  0.518  0.15763  0.556  1.0000
  O   O1        1.0  0.9687  0.17597  0.22689000000000006  1.0000
  O   O2        1.0  0.7693699999999999  0.13194  0.21318  1.0000
  O   O3        1.0  0.92275  0.05324  0.29174  1.0000
  O   O4        1.0  0.85536  0.13886  0.34751  1.0000
  O   O5        1.0  0.26922  0.18418  0.10153000000000002  1.0000
  O   O6        1.0  0.88674  0.27525  0.51825  1.0000
  O   O7        1.0  0.8546  0.8428000000000002  0.3443500000000001  1.0000
  O   O8        1.0  0.4725  0.24332  0.14364  1.0000
  O   O9        1.0  0.28927  0.24763  0.14586  1.0000
  O   O10       1.0  0.45752  0.17350000000000004  0.10881  1.0000
  O   O11       1.0  0.85922  0.20839000000000005  0.5555  1.0000
  O   O12       1.0  0.97215  0.8508600000000002  0.37523  1.0000
  O   O13       1.0  0.9687  0.82403  0.77311  1.0000
  O   O14       1.0  0.7693699999999999  0.8680600000000003  0.78682  1.0000
  O   O15       1.0  0.92275  0.94675  0.70826  1.0000
  O   O16       1.0  0.85536  0.86114  0.65249  1.0000
  O   O17       1.0  0.26922  0.8158100000000003  0.89846  1.0000
  O   O18       1.0  0.88674  0.72475  0.48175  1.0000
  O   O19       1.0  0.8546  0.15720000000000006  0.65565  1.0000
  O   O20       1.0  0.4725  0.75668  0.85636  1.0000
  O   O21       1.0  0.28927  0.7523600000000003  0.85414  1.0000
  O   O22       1.0  0.45752  0.8265000000000001  0.8911900000000001  1.0000
  O   O23       1.0  0.85922  0.7916  0.44450000000000006  1.0000
  O   O24       1.0  0.97215  0.14914000000000002  0.62477  1.0000
  O   O25       1.0  0.46869999999999995  0.67597  0.27311  1.0000
  O   O26       1.0  0.26937  0.6319300000000002  0.28682  1.0000
  O   O27       1.0  0.42275  0.55324  0.20826000000000006  1.0000
  O   O28       1.0  0.35536  0.63886  0.15249  1.0000
  O   O29       1.0  0.76922  0.6841800000000002  0.39847  1.0000
  O   O30       1.0  0.38674  0.77525  0.98175  1.0000
  O   O31       1.0  0.3546  0.3428000000000001  0.15565000000000007  1.0000
  O   O32       1.0  0.9724999999999999  0.74331  0.35636  1.0000
  O   O33       1.0  0.78927  0.7476300000000001  0.35414  1.0000
  O   O34       1.0  0.9575199999999999  0.6735  0.39119  1.0000
  O   O35       1.0  0.35922  0.70839  0.94449  1.0000
  O   O36       1.0  0.47215  0.35086  0.12477  1.0000
  O   O37       1.0  0.46869999999999995  0.32403  0.72688  1.0000
  O   O38       1.0  0.26937  0.36806000000000005  0.71318  1.0000
  O   O39       1.0  0.42275  0.44676  0.79173  1.0000
  O   O40       1.0  0.35536  0.3611400000000001  0.84751  1.0000
  O   O41       1.0  0.76922  0.31582  0.60153  1.0000
  O   O42       1.0  0.38674  0.22475000000000006  0.01825  1.0000
  O   O43       1.0  0.3546  0.6572000000000002  0.84435  1.0000
  O   O44       1.0  0.9724999999999999  0.25668  0.64364  1.0000
  O   O45       1.0  0.78927  0.25237  0.64586  1.0000
  O   O46       1.0  0.9575199999999999  0.3265  0.60881  1.0000
  O   O47       1.0  0.35922  0.2916100000000001  0.055500000000000015  1.0000
  O   O48       1.0  0.47215  0.6491400000000003  0.8752300000000002  1.0000
  O   O49       1.0  0.0313  0.22689000000000006  0.82403  1.0000
  O   O50       1.0  0.23063  0.21318  0.8680600000000003  1.0000
  O   O51       1.0  0.07724  0.29174  0.94675  1.0000
  O   O52       1.0  0.14464  0.34751  0.86114  1.0000
  O   O53       1.0  0.73078  0.10153000000000002  0.8158100000000003  1.0000
  O   O54       1.0  0.11326  0.51825  0.72475  1.0000
  O   O55       1.0  0.1454  0.3443500000000001  0.15720000000000006  1.0000
  O   O56       1.0  0.5275  0.14364  0.75668  1.0000
  O   O57       1.0  0.71073  0.14586  0.7523600000000003  1.0000
  O   O58       1.0  0.54248  0.10881  0.8265000000000001  1.0000
  O   O59       1.0  0.14078  0.5555  0.7916  1.0000
  O   O60       1.0  0.02785  0.37523  0.14914000000000002  1.0000
  O   O61       1.0  0.0313  0.77311  0.17597  1.0000
  O   O62       1.0  0.23063  0.78682  0.13194  1.0000
  O   O63       1.0  0.07724  0.70826  0.05324  1.0000
  O   O64       1.0  0.14464  0.65249  0.13886  1.0000
  O   O65       1.0  0.73078  0.89846  0.18418  1.0000
  O   O66       1.0  0.11326  0.48175  0.27525  1.0000
  O   O67       1.0  0.1454  0.65565  0.8428000000000002  1.0000
  O   O68       1.0  0.5275  0.85636  0.24332  1.0000
  O   O69       1.0  0.71073  0.85414  0.24763  1.0000
  O   O70       1.0  0.54248  0.8911900000000001  0.17350000000000004  1.0000
  O   O71       1.0  0.14078  0.44450000000000006  0.20839000000000005  1.0000
  O   O72       1.0  0.02785  0.62477  0.8508600000000002  1.0000
  O   O73       1.0  0.5313  0.72688  0.67597  1.0000
  O   O74       1.0  0.73063  0.71318  0.6319300000000002  1.0000
  O   O75       1.0  0.57724  0.79173  0.55324  1.0000
  O   O76       1.0  0.64464  0.84751  0.63886  1.0000
  O   O77       1.0  0.23077999999999999  0.60153  0.6841800000000002  1.0000
  O   O78       1.0  0.61326  0.01825  0.77525  1.0000
  O   O79       1.0  0.6454  0.84435  0.3428000000000001  1.0000
  O   O80       1.0  0.0275  0.64364  0.74331  1.0000
  O   O81       1.0  0.21073  0.64586  0.7476300000000001  1.0000
  O   O82       1.0  0.04248  0.60881  0.6735  1.0000
  O   O83       1.0  0.64078  0.055500000000000015  0.70839  1.0000
  O   O84       1.0  0.52785  0.8752300000000002  0.35086  1.0000
  O   O85       1.0  0.5313  0.27311  0.32403  1.0000
  O   O86       1.0  0.73063  0.28682  0.36806000000000005  1.0000
  O   O87       1.0  0.57724  0.20826000000000006  0.44676  1.0000
  O   O88       1.0  0.64464  0.15249  0.3611400000000001  1.0000
  O   O89       1.0  0.23077999999999999  0.39847  0.31582  1.0000
  O   O90       1.0  0.61326  0.98175  0.22475000000000006  1.0000
  O   O91       1.0  0.6454  0.15565000000000007  0.6572000000000002  1.0000
  O   O92       1.0  0.0275  0.35636  0.25668  1.0000
  O   O93       1.0  0.21073  0.35414  0.25237  1.0000
  O   O94       1.0  0.04248  0.39119  0.3265  1.0000
  O   O95       1.0  0.64078  0.94449  0.2916100000000001  1.0000
  O   O96       1.0  0.52785  0.12477  0.6491400000000003  1.0000
