data_image0
_chemical_formula_structural       Zn12H120C252Br24N12O48
_chemical_formula_sum              "Zn12 H120 C252 Br24 N12 O48"
_cell_length_a       14.03504
_cell_length_b       21.62388
_cell_length_c       28.46457
_cell_angle_alpha    90.0
_cell_angle_beta     90.0
_cell_angle_gamma    93.53922

_symmetry_space_group_name_H-M    'P 1'
_symmetry_Int_Tables_number       1

loop_
  _symmetry_equiv_pos_as_xyz
  'x,y,z'

loop_
  _atom_site_type_symbol
  _atom_site_label
  _atom_site_symmetry_multiplicity
  _atom_site_fract_x
  _atom_site_fract_y
  _atom_site_fract_z
  _atom_site_occupancy
  Zn  Zn1       1.0  0.89313  0.74553  0.30866  1.0000
  Zn  Zn2       1.0  0.09886  0.75481  0.3106  1.0000
  Zn  Zn3       1.0  0.10686999999999998  0.25447  0.8086600000000003  1.0000
  Zn  Zn4       1.0  0.90113  0.24519000000000002  0.8106  1.0000
  Zn  Zn5       1.0  0.20736  0.11418000000000003  0.48464  1.0000
  Zn  Zn6       1.0  0.4136799999999999  0.12259  0.48649  1.0000
  Zn  Zn7       1.0  0.20273999999999995  0.61104  0.9865  1.0000
  Zn  Zn8       1.0  0.4075199999999999  0.62357  0.9846500000000001  1.0000
  Zn  Zn9       1.0  0.7926399999999998  0.88582  0.9846400000000002  1.0000
  Zn  Zn10      1.0  0.58632  0.8774000000000001  0.98649  1.0000
  Zn  Zn11      1.0  0.7972599999999997  0.38896  0.4865  1.0000
  Zn  Zn12      1.0  0.5924799999999999  0.37642  0.48465  1.0000
  H   H1        1.0  0.14419999999999997  0.6465400000000001  0.42658  1.0000
  H   H2        1.0  0.8395599999999999  0.61229  0.42743  1.0000
  H   H3        1.0  0.8511499999999997  0.54764  0.49978  1.0000
  H   H4        1.0  0.85794  0.42976000000000003  0.61508  1.0000
  H   H5        1.0  0.8506299999999998  0.3619200000000001  0.68629  1.0000
  H   H6        1.0  0.15257999999999994  0.39820000000000005  0.7068  1.0000
  H   H7        1.0  0.15164999999999995  0.88968  0.42759  1.0000
  H   H8        1.0  0.8468299999999997  0.85672  0.42439  1.0000
  H   H9        1.0  0.1385  0.95571  0.4989000000000001  1.0000
  H   H10       1.0  0.13393  0.07916  0.6081700000000002  1.0000
  H   H11       1.0  0.8519099999999998  0.09714  0.71203  1.0000
  H   H12       1.0  0.14702999999999994  0.14454  0.6804900000000002  1.0000
  H   H13       1.0  0.7469099999999997  0.79564  0.24535  1.0000
  H   H14       1.0  0.73651  0.70557  0.3735600000000001  1.0000
  H   H15       1.0  0.56833  0.80094  0.24299000000000007  1.0000
  H   H16       1.0  0.5576299999999998  0.7090800000000002  0.37774  1.0000
  H   H17       1.0  0.4268399999999999  0.71181  0.24237  1.0000
  H   H18       1.0  0.4339899999999999  0.8009  0.37823  1.0000
  H   H19       1.0  0.25436  0.7997700000000002  0.37464000000000003  1.0000
  H   H20       1.0  0.24773  0.71176  0.24574  1.0000
  H   H21       1.0  0.8557899999999998  0.35345  0.92658  1.0000
  H   H22       1.0  0.16043999999999994  0.38771000000000005  0.92743  1.0000
  H   H23       1.0  0.14884999999999995  0.45236  0.9997800000000001  1.0000
  H   H24       1.0  0.14205999999999994  0.57024  0.11508000000000002  1.0000
  H   H25       1.0  0.14936  0.63808  0.18629000000000004  1.0000
  H   H26       1.0  0.84741  0.6018  0.2068  1.0000
  H   H27       1.0  0.8483499999999999  0.11032  0.92759  1.0000
  H   H28       1.0  0.15316  0.14328  0.92439  1.0000
  H   H29       1.0  0.8615  0.04429  0.9989  1.0000
  H   H30       1.0  0.8660699999999998  0.92084  0.10817000000000002  1.0000
  H   H31       1.0  0.14808999999999997  0.9028600000000001  0.21203  1.0000
  H   H32       1.0  0.8529699999999998  0.85546  0.18049000000000004  1.0000
  H   H33       1.0  0.2530899999999999  0.20436  0.74535  1.0000
  H   H34       1.0  0.26349  0.29443  0.87356  1.0000
  H   H35       1.0  0.4316699999999999  0.19905  0.74299  1.0000
  H   H36       1.0  0.44237  0.29091  0.87774  1.0000
  H   H37       1.0  0.5731499999999998  0.28819  0.7423700000000001  1.0000
  H   H38       1.0  0.5659999999999998  0.19909000000000004  0.87823  1.0000
  H   H39       1.0  0.7456399999999997  0.20023  0.8746400000000002  1.0000
  H   H40       1.0  0.7522599999999998  0.28824000000000005  0.7457400000000001  1.0000
  H   H41       1.0  0.55419  0.04434  0.53134  1.0000
  H   H42       1.0  0.73367  0.04149  0.53722  1.0000
  H   H43       1.0  0.8621499999999997  0.056360000000000014  0.43557  1.0000
  H   H44       1.0  0.8915599999999998  0.18608  0.55059  1.0000
  H   H45       1.0  0.07007999999999999  0.17985000000000004  0.54348  1.0000
  H   H46       1.0  0.04143  0.056280000000000004  0.4330000000000001  1.0000
  H   H47       1.0  0.45815  0.99453  0.6007800000000001  1.0000
  H   H48       1.0  0.1526  0.97187  0.58829  1.0000
  H   H49       1.0  0.45150000000000007  0.92732  0.67216  1.0000
  H   H50       1.0  0.1516  0.78158  0.78733  1.0000
  H   H51       1.0  0.15391999999999997  0.71678  0.86013  1.0000
  H   H52       1.0  0.4551099999999999  0.76237  0.8743  1.0000
  H   H53       1.0  0.45932999999999996  0.27487  0.58542  1.0000
  H   H54       1.0  0.16482  0.22102  0.61489  1.0000
  H   H55       1.0  0.17207999999999996  0.28782  0.68655  1.0000
  H   H56       1.0  0.16461  0.4162  0.79571  1.0000
  H   H57       1.0  0.1535  0.48182  0.86772  1.0000
  H   H58       1.0  0.4591399999999999  0.4934  0.87971  1.0000
  H   H59       1.0  0.44423  0.79309  0.07300000000000001  1.0000
  H   H60       1.0  0.16709999999999994  0.7164200000000001  0.11555  1.0000
  H   H61       1.0  0.17432  0.78394  0.18673  1.0000
  H   H62       1.0  0.1668  0.90691  0.30005  1.0000
  H   H63       1.0  0.15631  0.9726  0.37181  1.0000
  H   H64       1.0  0.4566  0.023350000000000003  0.3625000000000001  1.0000
  H   H65       1.0  0.4666499999999999  0.5157500000000002  0.10493000000000002  1.0000
  H   H66       1.0  0.17034  0.456  0.08938000000000003  1.0000
  H   H67       1.0  0.18350999999999995  0.3848  0.1574  1.0000
  H   H68       1.0  0.21233999999999995  0.24630000000000002  0.26903  1.0000
  H   H69       1.0  0.20436  0.18725000000000003  0.34443  1.0000
  H   H70       1.0  0.44406999999999996  0.30086  0.39665  1.0000
  H   H71       1.0  0.54396  0.52893  0.9644100000000001  1.0000
  H   H72       1.0  0.57559  0.71551  0.99786  1.0000
  H   H73       1.0  0.7530799999999997  0.7145100000000001  0.9974900000000001  1.0000
  H   H74       1.0  0.72127  0.51928  0.96426  1.0000
  H   H75       1.0  0.8762499999999998  0.67595  0.04242  1.0000
  H   H76       1.0  0.86693  0.54875  0.9252500000000001  1.0000
  H   H77       1.0  0.04533  0.54902  0.93028  1.0000
  H   H78       1.0  0.05471  0.67117  0.04202  1.0000
  H   H79       1.0  0.57602  0.20359  0.45076  1.0000
  H   H80       1.0  0.7555899999999999  0.20736  0.4528700000000001  1.0000
  H   H81       1.0  0.44580999999999993  0.95566  0.03134  1.0000
  H   H82       1.0  0.2663299999999999  0.95851  0.03722  1.0000
  H   H83       1.0  0.13784  0.9436400000000001  0.93557  1.0000
  H   H84       1.0  0.10844  0.81392  0.05059  1.0000
  H   H85       1.0  0.9299199999999997  0.82015  0.04348  1.0000
  H   H86       1.0  0.9585599999999997  0.94372  0.933  1.0000
  H   H87       1.0  0.54184  0.00547  0.10078  1.0000
  H   H88       1.0  0.8473999999999999  0.028120000000000003  0.08829000000000002  1.0000
  H   H89       1.0  0.5485  0.07268  0.17216000000000004  1.0000
  H   H90       1.0  0.8484  0.21842  0.28733  1.0000
  H   H91       1.0  0.8460699999999998  0.28322  0.36013  1.0000
  H   H92       1.0  0.54489  0.23763  0.37430000000000013  1.0000
  H   H93       1.0  0.54067  0.72513  0.08542  1.0000
  H   H94       1.0  0.83517  0.7789800000000001  0.11489  1.0000
  H   H95       1.0  0.8279199999999999  0.7121800000000001  0.18655  1.0000
  H   H96       1.0  0.8353899999999997  0.5838  0.29571  1.0000
  H   H97       1.0  0.8465  0.51818  0.3677200000000001  1.0000
  H   H98       1.0  0.54086  0.5066000000000002  0.37971  1.0000
  H   H99       1.0  0.5557699999999999  0.20691000000000004  0.573  1.0000
  H   H100      1.0  0.8328999999999998  0.28358000000000005  0.61555  1.0000
  H   H101      1.0  0.82568  0.21606000000000003  0.68673  1.0000
  H   H102      1.0  0.8332  0.09309000000000002  0.80005  1.0000
  H   H103      1.0  0.84369  0.027400000000000004  0.87181  1.0000
  H   H104      1.0  0.54339  0.97664  0.8625  1.0000
  H   H105      1.0  0.53335  0.48425  0.60493  1.0000
  H   H106      1.0  0.8296599999999998  0.544  0.58938  1.0000
  H   H107      1.0  0.81649  0.6152  0.6574  1.0000
  H   H108      1.0  0.7876599999999999  0.7537  0.76903  1.0000
  H   H109      1.0  0.7956399999999998  0.81275  0.84443  1.0000
  H   H110      1.0  0.5559299999999999  0.6991400000000001  0.89665  1.0000
  H   H111      1.0  0.4560399999999999  0.47107000000000004  0.46441  1.0000
  H   H112      1.0  0.4244099999999999  0.28448  0.49786  1.0000
  H   H113      1.0  0.24691999999999995  0.28549  0.49749  1.0000
  H   H114      1.0  0.27873  0.4807200000000001  0.4642600000000001  1.0000
  H   H115      1.0  0.12374999999999999  0.32404  0.54242  1.0000
  H   H116      1.0  0.13307  0.4512400000000001  0.42525  1.0000
  H   H117      1.0  0.9546699999999998  0.45098  0.43028  1.0000
  H   H118      1.0  0.9452899999999997  0.32883  0.54202  1.0000
  H   H119      1.0  0.4239699999999999  0.79641  0.95076  1.0000
  H   H120      1.0  0.24440999999999993  0.7926400000000001  0.95287  1.0000
  C   C1        1.0  0.005019999999999999  0.16756  0.74232  1.0000
  C   C2        1.0  0.98677  0.67084  0.37856  1.0000
  C   C3        1.0  0.9912499999999997  0.63279  0.42245  1.0000
  C   C4        1.0  0.08063999999999998  0.62519  0.44307  1.0000
  C   C5        1.0  0.90842  0.6058800000000001  0.44357000000000013  1.0000
  C   C6        1.0  0.08627  0.59118  0.48417  1.0000
  C   C7        1.0  0.9146199999999999  0.57061  0.4841300000000001  1.0000
  C   C8        1.0  0.004030000000000001  0.56234  0.50567  1.0000
  C   C9        1.0  0.009069999999999996  0.52544  0.54635  1.0000
  C   C10       1.0  0.010960000000000001  0.492  0.58092  1.0000
  C   C11       1.0  0.009120000000000008  0.45319000000000004  0.62078  1.0000
  C   C12       1.0  0.09207  0.44296  0.64735  1.0000
  C   C13       1.0  0.92175  0.4228000000000001  0.63569  1.0000
  C   C14       1.0  0.9179299999999998  0.38493000000000005  0.67517  1.0000
  C   C15       1.0  0.08815  0.40529  0.6869100000000001  1.0000
  C   C16       1.0  0.0010900000000000046  0.3756900000000001  0.7010700000000001  1.0000
  C   C17       1.0  0.9996300000000001  0.33275  0.7425200000000002  1.0000
  C   C18       1.0  0.006590000000000003  0.83092  0.37813000000000013  1.0000
  C   C19       1.0  2.0000000000006324e-05  0.86973  0.4214900000000001  1.0000
  C   C20       1.0  0.08236000000000002  0.8967000000000002  0.4430400000000001  1.0000
  C   C21       1.0  0.91014  0.8778  0.4413100000000001  1.0000
  C   C22       1.0  0.9037000000000001  0.9118  0.48241000000000006  1.0000
  C   C23       1.0  0.07525  0.93259  0.48317  1.0000
  C   C24       1.0  0.9853499999999997  0.9408800000000002  0.5042  1.0000
  C   C25       1.0  0.9803  0.9778700000000002  0.54481  1.0000
  C   C26       1.0  0.9810399999999998  0.0112  0.57948  1.0000
  C   C27       1.0  0.9862299999999998  0.049100000000000005  0.6198  1.0000
  C   C28       1.0  0.07303999999999998  0.08270000000000001  0.63152  1.0000
  C   C29       1.0  0.9073199999999998  0.05505  0.65007  1.0000
  C   C30       1.0  0.9137099999999998  0.09246  0.68969  1.0000
  C   C31       1.0  0.08002  0.11941000000000002  0.67155  1.0000
  C   C32       1.0  0.00028000000000000155  0.12509  0.70068  1.0000
  C   C33       1.0  0.7016599999999997  0.7768700000000001  0.2736  1.0000
  C   C34       1.0  0.6959299999999999  0.72699  0.3460400000000001  1.0000
  C   C35       1.0  0.60302  0.77961  0.27257  1.0000
  C   C36       1.0  0.5972699999999999  0.72923  0.3480600000000001  1.0000
  C   C37       1.0  0.54924  0.75538  0.31049  1.0000
  C   C38       1.0  0.44429  0.75617  0.31044  1.0000
  C   C39       1.0  0.39136  0.73171  0.2723  1.0000
  C   C40       1.0  0.39519999999999994  0.78058  0.34836  1.0000
  C   C41       1.0  0.29617  0.78006  0.34679000000000004  1.0000
  C   C42       1.0  0.29245  0.73146  0.27385  1.0000
  C   C43       1.0  0.9949699999999998  0.83244  0.24232  1.0000
  C   C44       1.0  0.013229999999999999  0.32916  0.87856  1.0000
  C   C45       1.0  0.008750000000000003  0.3672  0.9224500000000002  1.0000
  C   C46       1.0  0.9193599999999997  0.37481  0.94307  1.0000
  C   C47       1.0  0.09157  0.39412  0.94357  1.0000
  C   C48       1.0  0.9137299999999998  0.40882  0.98417  1.0000
  C   C49       1.0  0.08538  0.42938000000000004  0.98413  1.0000
  C   C50       1.0  0.9959699999999998  0.43766  0.00567  1.0000
  C   C51       1.0  0.9909299999999998  0.47456  0.04635  1.0000
  C   C52       1.0  0.9890399999999998  0.508  0.08092  1.0000
  C   C53       1.0  0.99088  0.54681  0.12078  1.0000
  C   C54       1.0  0.90793  0.55704  0.14735  1.0000
  C   C55       1.0  0.07823999999999998  0.5772  0.13569  1.0000
  C   C56       1.0  0.08207  0.61507  0.17517  1.0000
  C   C57       1.0  0.9118499999999998  0.59471  0.18691  1.0000
  C   C58       1.0  0.99891  0.62431  0.20107  1.0000
  C   C59       1.0  0.0003699999999999983  0.66725  0.24252000000000007  1.0000
  C   C60       1.0  0.9933999999999997  0.16908  0.87813  1.0000
  C   C61       1.0  0.99998  0.13026  0.92149  1.0000
  C   C62       1.0  0.91764  0.1033  0.94304  1.0000
  C   C63       1.0  0.08985999999999998  0.12220000000000002  0.94131  1.0000
  C   C64       1.0  0.0963  0.0882  0.9824100000000002  1.0000
  C   C65       1.0  0.9247499999999997  0.06741  0.9831700000000001  1.0000
  C   C66       1.0  0.01464  0.05911  0.0042  1.0000
  C   C67       1.0  0.019689999999999992  0.022130000000000004  0.04481  1.0000
  C   C68       1.0  0.018959999999999998  0.9888  0.07948  1.0000
  C   C69       1.0  0.013769999999999996  0.95089  0.11980000000000003  1.0000
  C   C70       1.0  0.9269599999999998  0.91729  0.13152  1.0000
  C   C71       1.0  0.09267999999999997  0.94495  0.15007000000000004  1.0000
  C   C72       1.0  0.08629000000000002  0.9075400000000001  0.18969  1.0000
  C   C73       1.0  0.91998  0.8805800000000001  0.17155  1.0000
  C   C74       1.0  0.9997199999999998  0.8749  0.20068  1.0000
  C   C75       1.0  0.2983299999999999  0.22312  0.7736  1.0000
  C   C76       1.0  0.30407  0.27301  0.84604  1.0000
  C   C77       1.0  0.39698000000000006  0.22039  0.77257  1.0000
  C   C78       1.0  0.40272999999999987  0.27077  0.8480600000000003  1.0000
  C   C79       1.0  0.4507499999999999  0.24462000000000006  0.81049  1.0000
  C   C80       1.0  0.5557099999999999  0.24383  0.81044  1.0000
  C   C81       1.0  0.60864  0.26828  0.7723000000000002  1.0000
  C   C82       1.0  0.6047899999999998  0.21942000000000006  0.84835  1.0000
  C   C83       1.0  0.7038299999999997  0.21994  0.84679  1.0000
  C   C84       1.0  0.7075499999999998  0.26854  0.77385  1.0000
  C   C85       1.0  0.60236  0.07899000000000002  0.51459  1.0000
  C   C86       1.0  0.7010299999999998  0.0777  0.51755  1.0000
  C   C87       1.0  0.7578399999999997  0.12365  0.49443  1.0000
  C   C88       1.0  0.86321  0.12177  0.49321  1.0000
  C   C89       1.0  0.90585  0.08467  0.45987000000000006  1.0000
  C   C90       1.0  0.9221799999999998  0.15704  0.524  1.0000
  C   C91       1.0  0.020559999999999995  0.15397  0.52033  1.0000
  C   C92       1.0  0.00482  0.08442  0.45815  1.0000
  C   C93       1.0  0.30874999999999997  0.03218  0.54992  1.0000
  C   C94       1.0  0.30601000000000006  0.9877400000000002  0.59028  1.0000
  C   C95       1.0  0.3903599999999999  0.9742200000000001  0.61363  1.0000
  C   C96       1.0  0.21791  0.96184  0.60646  1.0000
  C   C97       1.0  0.21444999999999995  0.9241100000000001  0.64598  1.0000
  C   C98       1.0  0.3866199999999999  0.93692  0.65333  1.0000
  C   C99       1.0  0.29828  0.91119  0.67092  1.0000
  C   C100      1.0  0.2965899999999999  0.87498  0.7121  1.0000
  C   C101      1.0  0.2996199999999999  0.8444800000000001  0.74814  1.0000
  C   C102      1.0  0.3018399999999999  0.80883  0.78951  1.0000
  C   C103      1.0  0.21750999999999995  0.77711  0.80676  1.0000
  C   C104      1.0  0.3871499999999999  0.80292  0.81528  1.0000
  C   C105      1.0  0.21875  0.74108  0.84711  1.0000
  C   C106      1.0  0.38881  0.7663400000000001  0.85529  1.0000
  C   C107      1.0  0.30474  0.73483  0.8713700000000001  1.0000
  C   C108      1.0  0.30775  0.69478  0.91426  1.0000
  C   C109      1.0  0.31009999999999993  0.19969  0.55504  1.0000
  C   C110      1.0  0.31161999999999995  0.24306  0.5960000000000002  1.0000
  C   C111      1.0  0.39653999999999995  0.27742  0.60742  1.0000
  C   C112      1.0  0.23016999999999999  0.24796000000000004  0.624  1.0000
  C   C113      1.0  0.23395999999999992  0.28524  0.66376  1.0000
  C   C114      1.0  0.39989999999999987  0.31499000000000005  0.64691  1.0000
  C   C115      1.0  0.3193599999999999  0.31966  0.67633  1.0000
  C   C116      1.0  0.32263  0.35597  0.7173500000000002  1.0000
  C   C117      1.0  0.32279  0.38575  0.75376  1.0000
  C   C118      1.0  0.3184  0.42009  0.7955900000000001  1.0000
  C   C119      1.0  0.4013299999999999  0.44144000000000005  0.82048  1.0000
  C   C120      1.0  0.22851  0.4343600000000001  0.81389  1.0000
  C   C121      1.0  0.22244999999999998  0.47005  0.8541600000000003  1.0000
  C   C122      1.0  0.39534  0.47636  0.8611  1.0000
  C   C123      1.0  0.30565  0.49152  0.87782  1.0000
  C   C124      1.0  0.30118999999999996  0.53237  0.92007  1.0000
  C   C125      1.0  0.3048  0.70529  0.04951  1.0000
  C   C126      1.0  0.30508  0.74989  0.08991  1.0000
  C   C127      1.0  0.38516999999999996  0.79067  0.09774  1.0000
  C   C128      1.0  0.22857  0.74848  0.12176  1.0000
  C   C129      1.0  0.23280999999999993  0.78581  0.16155  1.0000
  C   C130      1.0  0.38946  0.8275  0.13772  1.0000
  C   C131      1.0  0.3142299999999999  0.82604  0.17096  1.0000
  C   C132      1.0  0.3188799999999999  0.86243  0.21210000000000007  1.0000
  C   C133      1.0  0.32053  0.8935  0.248  1.0000
  C   C134      1.0  0.31719  0.9294600000000001  0.28926  1.0000
  C   C135      1.0  0.39869000000000004  0.9628800000000001  0.3078  1.0000
  C   C136      1.0  0.22954  0.93324  0.31352  1.0000
  C   C137      1.0  0.22401999999999994  0.96916  0.35377  1.0000
  C   C138      1.0  0.3937599999999999  0.99786  0.34855000000000014  1.0000
  C   C139      1.0  0.30598  0.00117  0.37186  1.0000
  C   C140      1.0  0.30159  0.03986  0.41554  1.0000
  C   C141      1.0  0.31179999999999997  0.53586  0.05324  1.0000
  C   C142      1.0  0.31778  0.49068  0.09298000000000002  1.0000
  C   C143      1.0  0.4051  0.48695  0.11657000000000002  1.0000
  C   C144      1.0  0.23799  0.45326  0.10768  1.0000
  C   C145      1.0  0.24522999999999995  0.41369  0.14582  1.0000
  C   C146      1.0  0.41171999999999986  0.44795000000000007  0.15508  1.0000
  C   C147      1.0  0.33176999999999995  0.4105500000000001  0.17122  1.0000
  C   C148      1.0  0.3349699999999999  0.37284  0.21169000000000004  1.0000
  C   C149      1.0  0.33392999999999995  0.3419  0.24769  1.0000
  C   C150      1.0  0.3313  0.30788  0.29011  1.0000
  C   C151      1.0  0.3958799999999999  0.32229  0.32736  1.0000
  C   C152      1.0  0.26198999999999995  0.25832  0.29738  1.0000
  C   C153      1.0  0.25746  0.22540000000000002  0.33931  1.0000
  C   C154      1.0  0.39243  0.289  0.3691600000000001  1.0000
  C   C155      1.0  0.3233699999999999  0.24008000000000002  0.37531  1.0000
  C   C156      1.0  0.32325  0.2015  0.41897  1.0000
  C   C157      1.0  0.59364  0.56841  0.9717300000000002  1.0000
  C   C158      1.0  0.6106899999999998  0.67301  0.99084  1.0000
  C   C159      1.0  0.7096599999999997  0.67198  0.99092  1.0000
  C   C160      1.0  0.6919  0.56378  0.97108  1.0000
  C   C161      1.0  0.752  0.61626  0.9815200000000002  1.0000
  C   C162      1.0  0.85671  0.61332  0.98318  1.0000
  C   C163      1.0  0.9109999999999998  0.64803  0.01647  1.0000
  C   C164      1.0  0.9054299999999997  0.5764800000000001  0.9518100000000003  1.0000
  C   C165      1.0  0.004400000000000007  0.57645  0.9541200000000002  1.0000
  C   C166      1.0  0.009599999999999997  0.64529  0.01684  1.0000
  C   C167      1.0  0.6141699999999998  0.16865000000000002  0.46918  1.0000
  C   C168      1.0  0.7134  0.17042000000000002  0.4705  1.0000
  C   C169      1.0  0.3976399999999999  0.9210100000000001  0.01459  1.0000
  C   C170      1.0  0.2989699999999999  0.9223  0.01755  1.0000
  C   C171      1.0  0.24215999999999993  0.87635  0.9944300000000003  1.0000
  C   C172      1.0  0.13678  0.87822  0.99321  1.0000
  C   C173      1.0  0.09414999999999997  0.91533  0.9598700000000002  1.0000
  C   C174      1.0  0.07781999999999997  0.8429500000000001  0.024  1.0000
  C   C175      1.0  0.97944  0.84603  0.02033  1.0000
  C   C176      1.0  0.9951699999999998  0.91558  0.9581500000000002  1.0000
  C   C177      1.0  0.6912499999999999  0.96782  0.049920000000000006  1.0000
  C   C178      1.0  0.6939899999999999  0.012260000000000002  0.09028  1.0000
  C   C179      1.0  0.60964  0.025780000000000004  0.11363000000000002  1.0000
  C   C180      1.0  0.78209  0.03816  0.10646  1.0000
  C   C181      1.0  0.7855499999999997  0.07589  0.14598  1.0000
  C   C182      1.0  0.6133799999999998  0.06308000000000001  0.15333  1.0000
  C   C183      1.0  0.70172  0.08881  0.17092  1.0000
  C   C184      1.0  0.7033999999999998  0.12502  0.21210000000000007  1.0000
  C   C185      1.0  0.70038  0.15551  0.24814  1.0000
  C   C186      1.0  0.69816  0.19117  0.28952  1.0000
  C   C187      1.0  0.78248  0.22289  0.3067600000000001  1.0000
  C   C188      1.0  0.61284  0.19708000000000003  0.31528000000000006  1.0000
  C   C189      1.0  0.78125  0.25892  0.34711  1.0000
  C   C190      1.0  0.61119  0.23366000000000003  0.35529  1.0000
  C   C191      1.0  0.6952499999999998  0.26517  0.37137  1.0000
  C   C192      1.0  0.69225  0.30522  0.41426  1.0000
  C   C193      1.0  0.6898999999999997  0.80031  0.05504  1.0000
  C   C194      1.0  0.68838  0.75694  0.096  1.0000
  C   C195      1.0  0.60346  0.72258  0.10742  1.0000
  C   C196      1.0  0.7698299999999999  0.7520300000000002  0.124  1.0000
  C   C197      1.0  0.7660399999999998  0.71476  0.16376  1.0000
  C   C198      1.0  0.6001  0.68501  0.14691  1.0000
  C   C199      1.0  0.6806399999999998  0.6803400000000001  0.17633  1.0000
  C   C200      1.0  0.67737  0.64403  0.21735  1.0000
  C   C201      1.0  0.67721  0.61425  0.25376  1.0000
  C   C202      1.0  0.6815899999999998  0.57991  0.29559  1.0000
  C   C203      1.0  0.59867  0.55856  0.32048  1.0000
  C   C204      1.0  0.7714899999999998  0.56564  0.31389  1.0000
  C   C205      1.0  0.7775499999999997  0.52995  0.35416  1.0000
  C   C206      1.0  0.6046599999999998  0.52364  0.3611000000000001  1.0000
  C   C207      1.0  0.6943399999999998  0.50847  0.37782  1.0000
  C   C208      1.0  0.6988099999999998  0.46763  0.42007  1.0000
  C   C209      1.0  0.6951999999999997  0.29471  0.54951  1.0000
  C   C210      1.0  0.6949199999999998  0.25011000000000005  0.5899100000000002  1.0000
  C   C211      1.0  0.61482  0.20933000000000002  0.59774  1.0000
  C   C212      1.0  0.77143  0.2515200000000001  0.6217600000000001  1.0000
  C   C213      1.0  0.7671799999999998  0.21419000000000002  0.66155  1.0000
  C   C214      1.0  0.61054  0.1725  0.6377200000000001  1.0000
  C   C215      1.0  0.68577  0.17395  0.67096  1.0000
  C   C216      1.0  0.6811199999999998  0.13757  0.7121  1.0000
  C   C217      1.0  0.67947  0.10649  0.748  1.0000
  C   C218      1.0  0.6828099999999998  0.07053  0.7892600000000001  1.0000
  C   C219      1.0  0.6013099999999999  0.03712000000000001  0.8078  1.0000
  C   C220      1.0  0.7704599999999998  0.06676  0.8135200000000002  1.0000
  C   C221      1.0  0.7759799999999999  0.03084  0.85377  1.0000
  C   C222      1.0  0.60623  0.00214  0.84855  1.0000
  C   C223      1.0  0.69401  0.99883  0.8718600000000001  1.0000
  C   C224      1.0  0.6984099999999998  0.9601400000000002  0.9155400000000001  1.0000
  C   C225      1.0  0.6881999999999999  0.46414000000000005  0.55324  1.0000
  C   C226      1.0  0.6822199999999998  0.50932  0.59298  1.0000
  C   C227      1.0  0.5949  0.51305  0.6165700000000002  1.0000
  C   C228      1.0  0.76201  0.54674  0.6076800000000002  1.0000
  C   C229      1.0  0.75477  0.5863  0.64582  1.0000
  C   C230      1.0  0.5882799999999998  0.55205  0.6550800000000001  1.0000
  C   C231      1.0  0.66823  0.58944  0.67122  1.0000
  C   C232      1.0  0.66503  0.62716  0.71169  1.0000
  C   C233      1.0  0.6660699999999998  0.6581  0.74769  1.0000
  C   C234      1.0  0.6687  0.69212  0.79011  1.0000
  C   C235      1.0  0.6041199999999999  0.67771  0.82736  1.0000
  C   C236      1.0  0.7380099999999998  0.74168  0.79738  1.0000
  C   C237      1.0  0.74254  0.77459  0.83931  1.0000
  C   C238      1.0  0.60757  0.711  0.86916  1.0000
  C   C239      1.0  0.67662  0.7599200000000002  0.8753100000000001  1.0000
  C   C240      1.0  0.6767499999999997  0.7985000000000001  0.91897  1.0000
  C   C241      1.0  0.40635999999999994  0.43159  0.47173  1.0000
  C   C242      1.0  0.3893  0.32699  0.4908400000000001  1.0000
  C   C243      1.0  0.29033  0.32802  0.49092000000000013  1.0000
  C   C244      1.0  0.3081  0.43622  0.47108  1.0000
  C   C245      1.0  0.24799999999999994  0.38374  0.48152  1.0000
  C   C246      1.0  0.14328999999999997  0.3866800000000001  0.48318  1.0000
  C   C247      1.0  0.08899999999999998  0.35197  0.51647  1.0000
  C   C248      1.0  0.09456  0.42352  0.45181000000000004  1.0000
  C   C249      1.0  0.9955999999999998  0.42354  0.45412  1.0000
  C   C250      1.0  0.9904  0.35471  0.51684  1.0000
  C   C251      1.0  0.3858299999999999  0.8313500000000001  0.9691800000000002  1.0000
  C   C252      1.0  0.28659999999999997  0.8295800000000001  0.9705000000000001  1.0000
  Br  Br1       1.0  0.20945999999999995  0.58347  0.51258  1.0000
  Br  Br2       1.0  0.21386  0.48053000000000007  0.62884  1.0000
  Br  Br3       1.0  0.7795999999999997  0.91843  0.51009  1.0000
  Br  Br4       1.0  0.7873799999999999  0.01076  0.6366400000000002  1.0000
  Br  Br5       1.0  0.7905399999999998  0.41653  0.01258  1.0000
  Br  Br6       1.0  0.7861399999999997  0.51946  0.12884  1.0000
  Br  Br7       1.0  0.22039999999999996  0.08157  0.01009  1.0000
  Br  Br8       1.0  0.21261999999999998  0.9892300000000002  0.13664  1.0000
  Br  Br9       1.0  0.09202  0.89077  0.6674100000000002  1.0000
  Br  Br10      1.0  0.50395  0.846  0.7953500000000001  1.0000
  Br  Br11      1.0  0.51754  0.36088  0.66185  1.0000
  Br  Br12      1.0  0.52521  0.42191  0.7982  1.0000
  Br  Br13      1.0  0.50202  0.88072  0.14846  1.0000
  Br  Br14      1.0  0.51946  0.9599000000000001  0.27617  1.0000
  Br  Br15      1.0  0.5322499999999998  0.44595  0.18682000000000007  1.0000
  Br  Br16      1.0  0.4916899999999999  0.38881  0.32065  1.0000
  Br  Br17      1.0  0.90798  0.10923000000000001  0.16741000000000003  1.0000
  Br  Br18      1.0  0.49604999999999994  0.15399  0.29535  1.0000
  Br  Br19      1.0  0.4824599999999999  0.63912  0.16185  1.0000
  Br  Br20      1.0  0.47478999999999993  0.57809  0.29820000000000013  1.0000
  Br  Br21      1.0  0.49797999999999987  0.11928000000000001  0.64846  1.0000
  Br  Br22      1.0  0.4805399999999999  0.0401  0.7761700000000002  1.0000
  Br  Br23      1.0  0.4677399999999999  0.55405  0.6868200000000002  1.0000
  Br  Br24      1.0  0.50831  0.6111800000000001  0.82065  1.0000
  N   N1        1.0  0.74744  0.75047  0.30941  1.0000
  N   N2        1.0  0.24552  0.7554400000000002  0.31029  1.0000
  N   N3        1.0  0.25256  0.24953000000000006  0.8094100000000002  1.0000
  N   N4        1.0  0.7544799999999998  0.24456000000000003  0.81029  1.0000
  N   N5        1.0  0.06145  0.11852000000000003  0.48789  1.0000
  N   N6        1.0  0.5596099999999999  0.12331000000000002  0.49037  1.0000
  N   N7        1.0  0.5535099999999998  0.62201  0.98183  1.0000
  N   N8        1.0  0.05597999999999999  0.61045  0.98599  1.0000
  N   N9        1.0  0.9385499999999998  0.88148  0.98789  1.0000
  N   N10       1.0  0.44038999999999995  0.87669  0.99037  1.0000
  N   N11       1.0  0.44648  0.37799  0.4818300000000001  1.0000
  N   N12       1.0  0.9440199999999997  0.3895500000000001  0.4859900000000001  1.0000
  O   O1        1.0  0.9044799999999997  0.68442  0.36429  1.0000
  O   O2        1.0  0.06640999999999998  0.68693  0.35927  1.0000
  O   O3        1.0  0.9194099999999998  0.30646  0.7544500000000002  1.0000
  O   O4        1.0  0.07995  0.3249000000000001  0.7620200000000003  1.0000
  O   O5        1.0  0.92868  0.81552  0.35701  1.0000
  O   O6        1.0  0.08977999999999997  0.8159500000000001  0.3663  1.0000
  O   O7        1.0  0.92706  0.17488  0.76409  1.0000
  O   O8        1.0  0.08601999999999997  0.19412000000000001  0.75233  1.0000
  O   O9        1.0  0.09551999999999997  0.31558  0.8642900000000001  1.0000
  O   O10       1.0  0.93359  0.31307000000000007  0.8592700000000001  1.0000
  O   O11       1.0  0.08059000000000001  0.6935400000000002  0.25445  1.0000
  O   O12       1.0  0.9200399999999997  0.67509  0.26202  1.0000
  O   O13       1.0  0.07132  0.18448  0.85701  1.0000
  O   O14       1.0  0.9102199999999998  0.18405  0.8663  1.0000
  O   O15       1.0  0.07293000000000001  0.8251100000000001  0.26409  1.0000
  O   O16       1.0  0.9139799999999999  0.80588  0.25233  1.0000
  O   O17       1.0  0.22839  0.04989  0.53578  1.0000
  O   O18       1.0  0.39019  0.05003  0.53347  1.0000
  O   O19       1.0  0.22835  0.67799  0.93353  1.0000
  O   O20       1.0  0.39023  0.6815  0.92864  1.0000
  O   O21       1.0  0.22892999999999994  0.18153  0.53815  1.0000
  O   O22       1.0  0.3908899999999999  0.18446  0.54011  1.0000
  O   O23       1.0  0.21876000000000004  0.547  0.9333900000000002  1.0000
  O   O24       1.0  0.3805999999999999  0.54997  0.93884  1.0000
  O   O25       1.0  0.22444999999999998  0.67827  0.03818  1.0000
  O   O26       1.0  0.38516  0.69684  0.03057  1.0000
  O   O27       1.0  0.21926999999999994  0.04687000000000001  0.43327  1.0000
  O   O28       1.0  0.38103  0.06286  0.4312  1.0000
  O   O29       1.0  0.22920999999999997  0.54364  0.035960000000000006  1.0000
  O   O30       1.0  0.38988999999999996  0.5639300000000002  0.04037  1.0000
  O   O31       1.0  0.24253999999999995  0.17834  0.43314  1.0000
  O   O32       1.0  0.4039199999999999  0.19420000000000004  0.43826  1.0000
  O   O33       1.0  0.7716099999999998  0.9501100000000001  0.035780000000000006  1.0000
  O   O34       1.0  0.6098099999999997  0.94997  0.03347  1.0000
  O   O35       1.0  0.7716499999999997  0.32201  0.43353  1.0000
  O   O36       1.0  0.6097699999999998  0.3185  0.42864000000000013  1.0000
  O   O37       1.0  0.7710699999999999  0.81847  0.03815000000000001  1.0000
  O   O38       1.0  0.6091099999999999  0.8155400000000002  0.04011  1.0000
  O   O39       1.0  0.7812399999999998  0.45300000000000007  0.43339  1.0000
  O   O40       1.0  0.6193999999999998  0.45002  0.4388400000000001  1.0000
  O   O41       1.0  0.7755399999999998  0.32173  0.53818  1.0000
  O   O42       1.0  0.61483  0.30316000000000004  0.53057  1.0000
  O   O43       1.0  0.7807299999999999  0.9531300000000001  0.93327  1.0000
  O   O44       1.0  0.6189599999999997  0.93714  0.9312  1.0000
  O   O45       1.0  0.7707899999999999  0.45636  0.53596  1.0000
  O   O46       1.0  0.61011  0.43607  0.54037  1.0000
  O   O47       1.0  0.7574600000000001  0.8216600000000001  0.9331400000000002  1.0000
  O   O48       1.0  0.5960799999999998  0.8058  0.93826  1.0000
