data_image0
_chemical_formula_structural       Cu16H224C208N32Cl8
_chemical_formula_sum              "Cu16 H224 C208 N32 Cl8"
_cell_length_a       14.67415
_cell_length_b       14.71238
_cell_length_c       26.17282
_cell_angle_alpha    86.2985
_cell_angle_beta     120.17212999999998
_cell_angle_gamma    102.54763999999999

_symmetry_space_group_name_H-M    'P 1'
_symmetry_Int_Tables_number       1

loop_
  _symmetry_equiv_pos_as_xyz
  'x,y,z'

loop_
  _atom_site_type_symbol
  _atom_site_label
  _atom_site_symmetry_multiplicity
  _atom_site_fract_x
  _atom_site_fract_y
  _atom_site_fract_z
  _atom_site_occupancy
  Cu  Cu1       1.0  0.03071999999999996  0.46894  0.50838  1.0000
  Cu  Cu2       1.0  0.9823099999999998  0.3771  0.58426  1.0000
  Cu  Cu3       1.0  0.08657999999999998  0.48686  0.08515  1.0000
  Cu  Cu4       1.0  0.9303899999999998  0.35494  0.00928  1.0000
  Cu  Cu5       1.0  0.039129999999999984  0.98266  0.00472  1.0000
  Cu  Cu6       1.0  0.22288999999999995  0.07838000000000002  0.08803  1.0000
  Cu  Cu7       1.0  0.5976299999999998  0.49428  0.58129  1.0000
  Cu  Cu8       1.0  0.6227  0.59676  0.50159  1.0000
  Cu  Cu9       1.0  0.53687  0.47672  0.005719999999999999  1.0000
  Cu  Cu10      1.0  0.70677  0.5964  0.08285  1.0000
  Cu  Cu11      1.0  0.09486  0.99491  0.58402  1.0000
  Cu  Cu12      1.0  0.15591  0.07326  0.50892  1.0000
  Cu  Cu13      1.0  0.5206499999999996  0.9666  0.50511  1.0000
  Cu  Cu14      1.0  0.50828  0.86439  0.58936  1.0000
  Cu  Cu15      1.0  0.58444  0.98296  0.0811  1.0000
  Cu  Cu16      1.0  0.4022699999999999  0.87929  0.00197  1.0000
  H   H1        1.0  0.8186199999999999  0.42481  0.4072799999999999  1.0000
  H   H2        1.0  0.7181199999999998  0.31519  0.31811  1.0000
  H   H3        1.0  0.0034599999999999544  0.20165999999999995  0.3856899999999999  1.0000
  H   H4        1.0  0.0923199999999999  0.31559  0.4706  1.0000
  H   H5        1.0  0.8073200000000001  0.41694  0.0597  1.0000
  H   H6        1.0  0.74729  0.35176  0.12903  1.0000
  H   H7        1.0  0.8808000000000001  0.11312  0.1378  1.0000
  H   H8        1.0  0.93745  0.18829000000000004  0.06752  1.0000
  H   H9        1.0  0.71071  0.17652000000000004  0.26561  1.0000
  H   H10       1.0  0.8195899999999998  0.11938  0.29623  1.0000
  H   H11       1.0  0.9216799999999998  0.23896000000000003  0.26196  1.0000
  H   H12       1.0  0.82446  0.30712  0.23803  1.0000
  H   H13       1.0  0.77747  0.10849  0.18678  1.0000
  H   H14       1.0  0.6848299999999998  0.181  0.16336  1.0000
  H   H15       1.0  0.04012000000000006  0.63614  0.55989  1.0000
  H   H16       1.0  0.17980999999999986  0.76614  0.63021  1.0000
  H   H17       1.0  0.42043  0.61824  0.6538  1.0000
  H   H18       1.0  0.27325  0.49994  0.57783  1.0000
  H   H19       1.0  0.3368300000000001  0.9960700000000001  0.89286  1.0000
  H   H20       1.0  0.3672299999999998  0.9994  0.80795  1.0000
  H   H21       1.0  0.5464899999999996  0.78273  0.88695  1.0000
  H   H22       1.0  0.51233  0.78883  0.96954  1.0000
  H   H23       1.0  0.39139  0.8467199999999999  0.66753  1.0000
  H   H24       1.0  0.47939999999999977  0.7697900000000001  0.70524  1.0000
  H   H25       1.0  0.39907999999999993  0.73209  0.77146  1.0000
  H   H26       1.0  0.3063999999999999  0.80273  0.73146  1.0000
  H   H27       1.0  0.55239  0.8742899999999999  0.7991  1.0000
  H   H28       1.0  0.45676999999999995  0.9434499999999999  0.75951  1.0000
  H   H29       1.0  0.9401699999999998  0.52442  0.62257  1.0000
  H   H30       1.0  0.02800999999999986  0.63493  0.7094599999999999  1.0000
  H   H31       1.0  0.30935  0.51488  0.77949  1.0000
  H   H32       1.0  0.21151  0.40927  0.68951  1.0000
  H   H33       1.0  0.04721999999999996  0.65921  0.01394  1.0000
  H   H34       1.0  0.09022000000000002  0.72849  0.93763  1.0000
  H   H35       1.0  0.26661999999999997  0.51411  0.96517  1.0000
  H   H36       1.0  0.2067  0.44657  0.03587  1.0000
  H   H37       1.0  0.21565999999999994  0.7164599999999999  0.79823  1.0000
  H   H38       1.0  0.3145199999999998  0.64952  0.83543  1.0000
  H   H39       1.0  0.08772000000000002  0.59698  0.82111  1.0000
  H   H40       1.0  0.19137999999999997  0.53631  0.86068  1.0000
  H   H41       1.0  0.3096  0.68234  0.92651  1.0000
  H   H42       1.0  0.19901999999999997  0.73806  0.89002  1.0000
  H   H43       1.0  0.14300999999999991  0.37857  0.18712999999999996  1.0000
  H   H44       1.0  0.12177999999999997  0.36989999999999995  0.27621  1.0000
  H   H45       1.0  0.9367199999999998  0.58412  0.20495  1.0000
  H   H46       1.0  0.9650499999999999  0.58465  0.11979999999999999  1.0000
  H   H47       1.0  0.4963000000000001  0.68953  0.52618  1.0000
  H   H48       1.0  0.3458299999999999  0.5735700000000001  0.45436  1.0000
  H   H49       1.0  0.12844000000000003  0.7147  0.46712999999999993  1.0000
  H   H50       1.0  0.28758  0.83032  0.5376  1.0000
  H   H51       1.0  0.02757999999999995  0.41527  0.32608  1.0000
  H   H52       1.0  0.94901  0.50078  0.29645  1.0000
  H   H53       1.0  0.19612  0.54439  0.35617999999999994  1.0000
  H   H54       1.0  0.11486999999999993  0.6269  0.33197  1.0000
  H   H55       1.0  0.052370000000000035  0.57151  0.40604  1.0000
  H   H56       1.0  0.13472999999999993  0.4900300000000001  0.42907999999999996  1.0000
  H   H57       1.0  0.8481599999999998  0.47489  0.90319  1.0000
  H   H58       1.0  0.8596199999999998  0.48577  0.81153  1.0000
  H   H59       1.0  0.06521000000000003  0.28639  0.88126  1.0000
  H   H60       1.0  0.0455  0.2826099999999999  0.96985  1.0000
  H   H61       1.0  0.53429  0.13547  0.55685  1.0000
  H   H62       1.0  0.67673  0.26365  0.62814  1.0000
  H   H63       1.0  0.9130299999999998  0.11498  0.64625  1.0000
  H   H64       1.0  0.7633899999999998  0.9986699999999998  0.57004  1.0000
  H   H65       1.0  0.8876099999999999  0.3422  0.6641  1.0000
  H   H66       1.0  0.97478  0.2642  0.70109  1.0000
  H   H67       1.0  0.8033099999999996  0.29379  0.7294199999999998  1.0000
  H   H68       1.0  0.9028499999999998  0.2295  0.7699399999999998  1.0000
  H   H69       1.0  0.04616999999999993  0.38033  0.7903499999999999  1.0000
  H   H70       1.0  0.9407299999999997  0.44102  0.75441  1.0000
  H   H71       1.0  0.99226  0.09757  0.90473  1.0000
  H   H72       1.0  0.017049999999999996  0.10658  0.81675  1.0000
  H   H73       1.0  0.17705000000000007  0.87595  0.88167  1.0000
  H   H74       1.0  0.1465799999999997  0.87595  0.9659899999999999  1.0000
  H   H75       1.0  0.63347  0.77511  0.56176  1.0000
  H   H76       1.0  0.7834399999999997  0.89144  0.63363  1.0000
  H   H77       1.0  0.0019199999999999513  0.74209  0.62882  1.0000
  H   H78       1.0  0.8432599999999998  0.62683  0.55805  1.0000
  H   H79       1.0  0.99753  0.97039  0.66173  1.0000
  H   H80       1.0  0.07784999999999996  0.88714  0.68797  1.0000
  H   H81       1.0  0.012669999999999985  0.8403  0.7611699999999999  1.0000
  H   H82       1.0  0.9305799999999997  0.92234  0.73347  1.0000
  H   H83       1.0  0.17763999999999985  0.9683  0.79329  1.0000
  H   H84       1.0  0.09674000000000008  0.0518  0.76299  1.0000
  H   H85       1.0  0.11718  0.17335  0.11967999999999998  1.0000
  H   H86       1.0  0.08261999999999994  0.18371  0.20163  1.0000
  H   H87       1.0  0.24979  0.95989  0.2809  1.0000
  H   H88       1.0  0.28082  0.95875  0.1963  1.0000
  H   H89       1.0  0.35366  0.46245  0.51446  1.0000
  H   H90       1.0  0.20543999999999993  0.34752  0.43662999999999996  1.0000
  H   H91       1.0  0.4427899999999999  0.19821  0.45733  1.0000
  H   H92       1.0  0.58407  0.32549  0.5295  1.0000
  H   H93       1.0  0.16198  0.02144  0.32834  1.0000
  H   H94       1.0  0.07054999999999999  0.09414  0.28821  1.0000
  H   H95       1.0  0.3173599999999999  0.15776  0.35843  1.0000
  H   H96       1.0  0.22934  0.23183  0.31729  1.0000
  H   H97       1.0  0.14405000000000004  0.20022  0.38115  1.0000
  H   H98       1.0  0.22782999999999992  0.12049999999999998  0.42033999999999994  1.0000
  H   H99       1.0  0.5333  0.64443  0.62029  1.0000
  H   H100      1.0  0.62165  0.75943  0.70465  1.0000
  H   H101      1.0  0.91051  0.65154  0.77083  1.0000
  H   H102      1.0  0.8101799999999998  0.54081  0.6821  1.0000
  H   H103      1.0  0.69197  0.76348  0.02567  1.0000
  H   H104      1.0  0.7433699999999994  0.84373  0.9547199999999998  1.0000
  H   H105      1.0  0.8743699999999998  0.60828  0.95426  1.0000
  H   H106      1.0  0.8225199999999999  0.53831  0.02599  1.0000
  H   H107      1.0  0.8045  0.8434899999999999  0.79378  1.0000
  H   H108      1.0  0.9155399999999998  0.7891199999999999  0.82374  1.0000
  H   H109      1.0  0.80952  0.65608  0.85302  1.0000
  H   H110      1.0  0.70518  0.71675  0.82692  1.0000
  H   H111      1.0  0.9387199999999999  0.78896  0.9261399999999999  1.0000
  H   H112      1.0  0.8373199999999998  0.85263  0.9005799999999999  1.0000
  H   H113      1.0  0.48198999999999986  0.58976  0.90545  1.0000
  H   H114      1.0  0.5020299999999999  0.60114  0.8159999999999998  1.0000
  H   H115      1.0  0.67891  0.3808  0.88158  1.0000
  H   H116      1.0  0.65215  0.37786  0.96748  1.0000
  H   H117      1.0  0.13879999999999998  0.24547  0.55734  1.0000
  H   H118      1.0  0.26969  0.37663  0.62603  1.0000
  H   H119      1.0  0.5234099999999999  0.25817999999999997  0.6368899999999998  1.0000
  H   H120      1.0  0.38084  0.12942  0.56697  1.0000
  H   H121      1.0  0.5838  0.5545200000000002  0.76206  1.0000
  H   H122      1.0  0.67162  0.47631  0.79177  1.0000
  H   H123      1.0  0.5171199999999999  0.34049000000000007  0.7584  1.0000
  H   H124      1.0  0.42543000000000003  0.41399  0.73501  1.0000
  H   H125      1.0  0.5721699999999998  0.41098  0.68292  1.0000
  H   H126      1.0  0.47365  0.47753  0.65918  1.0000
  H   H127      1.0  0.42089  0.51776  0.05763  1.0000
  H   H128      1.0  0.36276999999999987  0.44878  0.12884  1.0000
  H   H129      1.0  0.5354  0.23315999999999998  0.15218  1.0000
  H   H130      1.0  0.5758399999999998  0.3036400000000001  0.07525  1.0000
  H   H131      1.0  0.3973299999999999  0.55307  0.39405999999999997  1.0000
  H   H132      1.0  0.3087699999999999  0.44001  0.30797  1.0000
  H   H133      1.0  0.6045400000000002  0.33974  0.3853  1.0000
  H   H134      1.0  0.6817399999999997  0.45484  0.46870999999999996  1.0000
  H   H135      1.0  0.3207399999999999  0.27647  0.16675  1.0000
  H   H136      1.0  0.4350799999999999  0.22548  0.20406  1.0000
  H   H137      1.0  0.54005  0.3704  0.27092  1.0000
  H   H138      1.0  0.43063  0.42468  0.23093  1.0000
  H   H139      1.0  0.4230599999999999  0.2466  0.29809  1.0000
  H   H140      1.0  0.3156199999999999  0.3042  0.25859  1.0000
  H   H141      1.0  0.5980799999999997  0.67884  0.12063999999999997  1.0000
  H   H142      1.0  0.57425  0.6802800000000001  0.2074  1.0000
  H   H143      1.0  0.7599599999999996  0.46628  0.27818  1.0000
  H   H144      1.0  0.7773899999999998  0.47269  0.18856  1.0000
  H   H145      1.0  0.852  0.9644  0.51206  1.0000
  H   H146      1.0  0.70631  0.84528  0.43623  1.0000
  H   H147      1.0  0.9486999999999998  0.69611  0.46423  1.0000
  H   H148      1.0  0.0871699999999999  0.8272199999999998  0.53422  1.0000
  H   H149      1.0  0.5797099999999998  0.5826  0.29625  1.0000
  H   H150      1.0  0.68241  0.51945  0.3336  1.0000
  H   H151      1.0  0.72503  0.73144  0.31996  1.0000
  H   H152      1.0  0.82352  0.6658700000000001  0.35977  1.0000
  H   H153      1.0  0.74161  0.61515  0.42489  1.0000
  H   H154      1.0  0.6493199999999998  0.68894  0.38777  1.0000
  H   H155      1.0  0.3060099999999999  0.04129000000000001  0.68502  1.0000
  H   H156      1.0  0.4039899999999998  0.15088  0.7742999999999999  1.0000
  H   H157      1.0  0.11795999999999993  0.26410999999999996  0.70376  1.0000
  H   H158      1.0  0.03180000000000007  0.15076  0.61877  1.0000
  H   H159      1.0  0.33792  0.02841  0.025899999999999996  1.0000
  H   H160      1.0  0.3827499999999998  0.10704000000000001  0.9542099999999999  1.0000
  H   H161      1.0  0.25122  0.33547  0.96564  1.0000
  H   H162      1.0  0.20576  0.247  0.03611  1.0000
  H   H163      1.0  0.4092  0.29357  0.82426  1.0000
  H   H164      1.0  0.29511999999999994  0.3441  0.7947699999999999  1.0000
  H   H165      1.0  0.30807999999999985  0.15698  0.85448  1.0000
  H   H166      1.0  0.20293999999999984  0.21605  0.8307699999999999  1.0000
  H   H167      1.0  0.3349  0.35091  0.90486  1.0000
  H   H168      1.0  0.4384599999999997  0.29064  0.9268399999999999  1.0000
  H   H169      1.0  0.9293799999999997  0.052149999999999995  0.40301999999999993  1.0000
  H   H170      1.0  0.82455  0.9499  0.3112  1.0000
  H   H171      1.0  0.09128999999999995  0.81121  0.3790899999999999  1.0000
  H   H172      1.0  0.18654999999999994  0.91957  0.46759999999999996  1.0000
  H   H173      1.0  0.9222399999999997  0.02177  0.05652999999999999  1.0000
  H   H174      1.0  0.86334  0.95127  0.12719  1.0000
  H   H175      1.0  0.025589999999999977  0.7303800000000001  0.1441  1.0000
  H   H176      1.0  0.06783000000000002  0.80359  0.06852  1.0000
  H   H177      1.0  0.8162199999999998  0.77817  0.16206  1.0000
  H   H178      1.0  0.9276599999999998  0.72333  0.19757  1.0000
  H   H179      1.0  0.9362599999999998  0.92387  0.22941  1.0000
  H   H180      1.0  0.03779000000000004  0.86089  0.26849  1.0000
  H   H181      1.0  0.90479  0.74122  0.28825  1.0000
  H   H182      1.0  0.80993  0.81239  0.2528  1.0000
  H   H183      1.0  0.3060099999999998  0.91296  0.4053  1.0000
  H   H184      1.0  0.21006000000000005  0.80088  0.31718  1.0000
  H   H185      1.0  0.50624  0.70544  0.38342  1.0000
  H   H186      1.0  0.58988  0.82061  0.46733  1.0000
  H   H187      1.0  0.2809199999999999  0.92641  0.06162  1.0000
  H   H188      1.0  0.23888  0.84808  0.13453  1.0000
  H   H189      1.0  0.38664  0.62775  0.12976  1.0000
  H   H190      1.0  0.4291799999999999  0.71578  0.05806999999999999  1.0000
  H   H191      1.0  0.1912  0.66286  0.1634  1.0000
  H   H192      1.0  0.30149  0.6097200000000002  0.18919  1.0000
  H   H193      1.0  0.4215699999999999  0.7472399999999999  0.262  1.0000
  H   H194      1.0  0.3125  0.80248  0.23432  1.0000
  H   H195      1.0  0.32532  0.61639  0.29508  1.0000
  H   H196      1.0  0.21154999999999993  0.6673800000000001  0.26435  1.0000
  H   H197      1.0  0.4466599999999998  0.0037000000000000045  0.62082  1.0000
  H   H198      1.0  0.52039  0.12045  0.70272  1.0000
  H   H199      1.0  0.82114  0.027739999999999997  0.78184  1.0000
  H   H200      1.0  0.7359899999999999  0.91305  0.6968699999999999  1.0000
  H   H201      1.0  0.55344  0.16098  0.01561  1.0000
  H   H202      1.0  0.59287  0.23152000000000003  0.93841  1.0000
  H   H203      1.0  0.75919  0.01273  0.95819  1.0000
  H   H204      1.0  0.7015499999999999  0.94358  0.02966  1.0000
  H   H205      1.0  0.8092  0.163  0.83007  1.0000
  H   H206      1.0  0.6984599999999997  0.21676  0.78998  1.0000
  H   H207      1.0  0.69815  0.03908000000000002  0.85827  1.0000
  H   H208      1.0  0.58561  0.08962  0.81777  1.0000
  H   H209      1.0  0.6862799999999999  0.23647999999999997  0.8833999999999999  1.0000
  H   H210      1.0  0.80279  0.1884  0.92143  1.0000
  H   H211      1.0  0.4725399999999999  0.08569  0.12043999999999999  1.0000
  H   H212      1.0  0.4434  0.08206  0.20543  1.0000
  H   H213      1.0  0.61783  0.85997  0.27099  1.0000
  H   H214      1.0  0.6387499999999999  0.87143  0.18175  1.0000
  H   H215      1.0  0.7567199999999998  0.33327  0.52547  1.0000
  H   H216      1.0  0.60749  0.20982  0.45453999999999994  1.0000
  H   H217      1.0  0.84788  0.08135  0.45721  1.0000
  H   H218      1.0  0.98679  0.20672  0.52816  1.0000
  H   H219      1.0  0.45009  0.9888  0.29503  1.0000
  H   H220      1.0  0.53531  0.90845  0.32494  1.0000
  H   H221      1.0  0.6969899999999999  0.04414  0.35352  1.0000
  H   H222      1.0  0.6093999999999999  0.12158  0.32766  1.0000
  H   H223      1.0  0.6396499999999997  0.98769  0.42741999999999997  1.0000
  H   H224      1.0  0.5478399999999999  0.06125  0.40179  1.0000
  C   C1        1.0  0.85635  0.3752  0.39962  1.0000
  C   C2        1.0  0.80148  0.31319  0.35071  1.0000
  C   C3        1.0  0.85205  0.24858  0.34258  1.0000
  C   C4        1.0  0.95882  0.25017  0.38781  1.0000
  C   C5        1.0  0.00975  0.31414  0.43575  1.0000
  C   C6        1.0  0.8218  0.34945  0.0774  1.0000
  C   C7        1.0  0.7886  0.3122  0.11672999999999999  1.0000
  C   C8        1.0  0.8073399999999997  0.22481  0.13985  1.0000
  C   C9        1.0  0.86355  0.18106  0.12196  1.0000
  C   C10       1.0  0.8957499999999998  0.22212  0.08282  1.0000
  C   C11       1.0  0.7990699999999997  0.18849  0.28676  1.0000
  C   C12       1.0  0.83479  0.23466  0.24307  1.0000
  C   C13       1.0  0.77105  0.18197  0.18196  1.0000
  C   C14       1.0  0.12566  0.6363  0.58105  1.0000
  C   C15       1.0  0.20384999999999998  0.70683  0.62124  1.0000
  C   C16       1.0  0.31363  0.70373  0.64901  1.0000
  C   C17       1.0  0.33724999999999977  0.62575  0.63375  1.0000
  C   C18       1.0  0.25527  0.55849  0.59172  1.0000
  C   C19       1.0  0.3841899999999999  0.95087  0.8904099999999999  1.0000
  C   C20       1.0  0.40113999999999994  0.95159  0.84279  1.0000
  C   C21       1.0  0.4594400000000001  0.89065  0.83893  1.0000
  C   C22       1.0  0.50023  0.83197  0.88634  1.0000
  C   C23       1.0  0.4818599999999999  0.8346600000000001  0.93305  1.0000
  C   C24       1.0  0.39886  0.78156  0.6912  1.0000
  C   C25       1.0  0.3885199999999999  0.79492  0.7457299999999999  1.0000
  C   C26       1.0  0.47006  0.88106  0.78553  1.0000
  C   C27       1.0  0.022160000000000037  0.52522  0.65809  1.0000
  C   C28       1.0  0.07237000000000006  0.58632  0.70716  1.0000
  C   C29       1.0  0.17735999999999985  0.58469  0.75355  1.0000
  C   C30       1.0  0.22761999999999985  0.51975  0.74585  1.0000
  C   C31       1.0  0.17350000000000002  0.46001  0.69567  1.0000
  C   C32       1.0  0.09321999999999998  0.6274000000000001  0.00092  1.0000
  C   C33       1.0  0.11912999999999997  0.66653  0.95888  1.0000
  C   C34       1.0  0.1837  0.62802  0.94479  1.0000
  C   C35       1.0  0.2153199999999997  0.54697  0.9734999999999999  1.0000
  C   C36       1.0  0.18447  0.50989  0.013729999999999997  1.0000
  C   C37       1.0  0.22696  0.64474  0.80916  1.0000
  C   C38       1.0  0.17598000000000003  0.60629  0.84748  1.0000
  C   C39       1.0  0.22077  0.67001  0.90293  1.0000
  C   C40       1.0  0.09936999999999997  0.42346  0.19376  1.0000
  C   C41       1.0  0.08627999999999994  0.4192  0.24273  1.0000
  C   C42       1.0  0.02882  0.47808  0.24989  1.0000
  C   C43       1.0  0.9840899999999998  0.5376399999999999  0.20361999999999997  1.0000
  C   C44       1.0  0.9995999999999999  0.53857  0.1555  1.0000
  C   C45       1.0  0.41424999999999995  0.69444  0.51226  1.0000
  C   C46       1.0  0.3284399999999999  0.6285599999999999  0.47179  1.0000
  C   C47       1.0  0.22154999999999994  0.63188  0.45402999999999993  1.0000
  C   C48       1.0  0.20856  0.7074200000000002  0.47828  1.0000
  C   C49       1.0  0.29709  0.77238  0.51806  1.0000
  C   C50       1.0  0.024880000000000034  0.48322  0.30577  1.0000
  C   C51       1.0  0.12073999999999999  0.55775  0.35042  1.0000
  C   C52       1.0  0.12784999999999996  0.55959  0.41111  1.0000
  C   C53       1.0  0.8949599999999999  0.43388  0.8964699999999999  1.0000
  C   C54       1.0  0.90188  0.4393500000000001  0.84532  1.0000
  C   C55       1.0  0.9619799999999998  0.3852  0.83703  1.0000
  C   C56       1.0  0.015870000000000016  0.32951  0.88388  1.0000
  C   C57       1.0  0.006400000000000013  0.32709  0.93398  1.0000
  C   C58       1.0  0.61952  0.13452  0.57774  1.0000
  C   C59       1.0  0.69912  0.204  0.61828  1.0000
  C   C60       1.0  0.8084099999999997  0.20004  0.64499  1.0000
  C   C61       1.0  0.8302699999999997  0.12284  0.62763  1.0000
  C   C62       1.0  0.7469199999999998  0.05675  0.58536  1.0000
  C   C63       1.0  0.8948899999999999  0.27689  0.68763  1.0000
  C   C64       1.0  0.88639  0.29047  0.74276  1.0000
  C   C65       1.0  0.96374  0.37993  0.7804499999999999  1.0000
  C   C66       1.0  0.03177  0.04957000000000001  0.89716  1.0000
  C   C67       1.0  0.046610000000000096  0.05385  0.84874  1.0000
  C   C68       1.0  0.0975300000000001  0.99042  0.83995  1.0000
  C   C69       1.0  0.13495999999999997  0.92641  0.88428  1.0000
  C   C70       1.0  0.11812  0.92569  0.9319  1.0000
  C   C71       1.0  0.71571  0.76866  0.57738  1.0000
  C   C72       1.0  0.8012800000000001  0.83461  0.618  1.0000
  C   C73       1.0  0.9083999999999998  0.82904  0.63815  1.0000
  C   C74       1.0  0.9216799999999998  0.75145  0.61589  1.0000
  C   C75       1.0  0.83337  0.68654  0.57591  1.0000
  C   C76       1.0  0.0020599999999999052  0.90156  0.68099  1.0000
  C   C77       1.0  0.006559999999999898  0.90801  0.7406899999999998  1.0000
  C   C78       1.0  0.10119999999999993  0.98452  0.78405  1.0000
  C   C79       1.0  0.14528  0.12713  0.15613  1.0000
  C   C80       1.0  0.12662999999999996  0.13224  0.20250999999999997  1.0000
  C   C81       1.0  0.16396  0.07283000000000002  0.2498  1.0000
  C   C82       1.0  0.21900999999999995  0.008569999999999996  0.24614999999999998  1.0000
  C   C83       1.0  0.23647999999999994  0.006939999999999998  0.19883999999999996  1.0000
  C   C84       1.0  0.37095999999999996  0.4047899999999999  0.49928999999999996  1.0000
  C   C85       1.0  0.28824999999999995  0.33921000000000007  0.4563  1.0000
  C   C86       1.0  0.31048000000000003  0.26189  0.43939999999999996  1.0000
  C   C87       1.0  0.4197899999999998  0.2576099999999999  0.46698  1.0000
  C   C88       1.0  0.4988699999999999  0.32679  0.50806  1.0000
  C   C89       1.0  0.15221  0.0843  0.30265  1.0000
  C   C90       1.0  0.23608  0.16906  0.34302  1.0000
  C   C91       1.0  0.22382  0.18541  0.39644999999999997  1.0000
  C   C92       1.0  0.6167399999999997  0.6477799999999999  0.6545  1.0000
  C   C93       1.0  0.6672799999999997  0.71212  0.70225  1.0000
  C   C94       1.0  0.77488  0.71556  0.74689  1.0000
  C   C95       1.0  0.82664  0.65243  0.7385  1.0000
  C   C96       1.0  0.7720299999999998  0.59005  0.68974  1.0000
  C   C97       1.0  0.7326899999999997  0.73162  0.00875  1.0000
  C   C98       1.0  0.76178  0.77562  0.9690599999999999  1.0000
  C   C99       1.0  0.8164499999999998  0.7346  0.94872  1.0000
  C   C100      1.0  0.8357699999999998  0.64627  0.96943  1.0000
  C   C101      1.0  0.80638  0.60608  0.0097  1.0000
  C   C102      1.0  0.8271499999999998  0.77524  0.80285  1.0000
  C   C103      1.0  0.7930099999999999  0.72659  0.8465399999999998  1.0000
  C   C104      1.0  0.8510199999999999  0.7812  0.9066999999999998  1.0000
  C   C105      1.0  0.5232  0.54396  0.89746  1.0000
  C   C106      1.0  0.5357  0.54978  0.84827  1.0000
  C   C107      1.0  0.5904499999999999  0.49018  0.8393699999999998  1.0000
  C   C108      1.0  0.6336100000000002  0.42814  0.88429  1.0000
  C   C109      1.0  0.61876  0.42567  0.93271  1.0000
  C   C110      1.0  0.2245499999999999  0.25059  0.57541  1.0000
  C   C111      1.0  0.29915  0.32436  0.61416  1.0000
  C   C112      1.0  0.41027999999999976  0.33113  0.6373  1.0000
  C   C113      1.0  0.43892  0.25795  0.62057  1.0000
  C   C114      1.0  0.36049  0.1855  0.58184  1.0000
  C   C115      1.0  0.5933499999999999  0.48738  0.7830799999999999  1.0000
  C   C116      1.0  0.50275  0.40845  0.73969  1.0000
  C   C117      1.0  0.49353999999999987  0.4109300000000001  0.6784  1.0000
  C   C118      1.0  0.4427299999999999  0.45388000000000006  0.07905  1.0000
  C   C119      1.0  0.4131999999999999  0.41613  0.11965999999999997  1.0000
  C   C120      1.0  0.44489  0.33469  0.14769  1.0000
  C   C121      1.0  0.50734  0.29594  0.13202  1.0000
  C   C122      1.0  0.5316699999999998  0.33559  0.08954  1.0000
  C   C123      1.0  0.4401399999999999  0.50417  0.39068  1.0000
  C   C124      1.0  0.39162  0.44081  0.3426  1.0000
  C   C125      1.0  0.44867  0.37927  0.3381  1.0000
  C   C126      1.0  0.5549799999999999  0.38526  0.38523999999999997  1.0000
  C   C127      1.0  0.59926  0.44925  0.43239  1.0000
  C   C128      1.0  0.4096799999999999  0.29202000000000006  0.19022999999999998  1.0000
  C   C129      1.0  0.45143000000000005  0.35648  0.24494  1.0000
  C   C130      1.0  0.40406999999999993  0.31564  0.28456  1.0000
  C   C131      1.0  0.63258  0.63282  0.15648  1.0000
  C   C132      1.0  0.6203499999999998  0.633  0.20549  1.0000
  C   C133      1.0  0.66729  0.57439  0.25204  1.0000
  C   C134      1.0  0.7233199999999995  0.51494  0.24453  1.0000
  C   C135      1.0  0.7334199999999998  0.51782  0.19448  1.0000
  C   C136      1.0  0.87076  0.90534  0.49918  1.0000
  C   C137      1.0  0.78955  0.83748  0.45724  1.0000
  C   C138      1.0  0.8142399999999999  0.75899  0.44328999999999996  1.0000
  C   C139      1.0  0.92417  0.7559500000000001  0.47218  1.0000
  C   C140      1.0  0.0015200000000000346  0.827  0.51221  1.0000
  C   C141      1.0  0.6623999999999998  0.58103  0.3075  1.0000
  C   C142      1.0  0.7403399999999999  0.6693600000000001  0.34617  1.0000
  C   C143      1.0  0.73076  0.68025  0.40126  1.0000
  C   C144      1.0  0.2675999999999999  0.09097  0.69203  1.0000
  C   C145      1.0  0.32105999999999996  0.15288  0.7409499999999999  1.0000
  C   C146      1.0  0.26940999999999987  0.21733999999999998  0.7482899999999999  1.0000
  C   C147      1.0  0.16323999999999989  0.21567  0.70229  1.0000
  C   C148      1.0  0.11379  0.15197  0.6543  1.0000
  C   C149      1.0  0.31836999999999976  0.09614  0.01164  1.0000
  C   C150      1.0  0.34414999999999996  0.14146  0.9712099999999999  1.0000
  C   C151      1.0  0.32231999999999994  0.23006999999999997  0.95301  1.0000
  C   C152      1.0  0.2701399999999999  0.26685  0.9769799999999998  1.0000
  C   C153      1.0  0.2447599999999999  0.21819  0.01677  1.0000
  C   C154      1.0  0.3208399999999999  0.27716  0.80409  1.0000
  C   C155      1.0  0.29049000000000014  0.22702  0.84891  1.0000
  C   C156      1.0  0.35109999999999986  0.2803999999999999  0.90968  1.0000
  C   C157      1.0  0.9626999999999998  0.99825  0.39592  1.0000
  C   C158      1.0  0.9046899999999998  0.9406  0.34466  1.0000
  C   C159      1.0  0.9491999999999998  0.8716700000000001  0.33579  1.0000
  C   C160      1.0  0.05183000000000001  0.86367  0.38217  1.0000
  C   C161      1.0  0.10583999999999996  0.92312  0.4322699999999999  1.0000
  C   C162      1.0  0.9426199999999998  0.95701  0.07701  1.0000
  C   C163      1.0  0.9123999999999999  0.9181100000000001  0.11716  1.0000
  C   C164      1.0  0.94096  0.83478  0.14326  1.0000
  C   C165      1.0  0.0005000000000000093  0.79499  0.12588  1.0000
  C   C166      1.0  0.025660000000000044  0.8360100000000001  0.084  1.0000
  C   C167      1.0  0.9050999999999996  0.7911799999999999  0.18535  1.0000
  C   C168      1.0  0.94976  0.85312  0.24151999999999998  1.0000
  C   C169      1.0  0.8968899999999999  0.81406  0.27893  1.0000
  C   C170      1.0  0.3468999999999999  0.8662799999999999  0.39777999999999997  1.0000
  C   C171      1.0  0.29476999999999987  0.80328  0.3494  1.0000
  C   C172      1.0  0.34991  0.74357  0.34105  1.0000
  C   C173      1.0  0.4581799999999999  0.75037  0.38561999999999996  1.0000
  C   C174      1.0  0.50608  0.81494  0.43302  1.0000
  C   C175      1.0  0.3049199999999999  0.86068  0.07773  1.0000
  C   C176      1.0  0.28074  0.81558  0.11882999999999999  1.0000
  C   C177      1.0  0.30795  0.72929  0.13909  1.0000
  C   C178      1.0  0.36352  0.69456  0.11662  1.0000
  C   C179      1.0  0.38732  0.74297  0.07621  1.0000
  C   C180      1.0  0.2793499999999999  0.6780799999999999  0.18224999999999997  1.0000
  C   C181      1.0  0.3333399999999999  0.73357  0.24181  1.0000
  C   C182      1.0  0.3000399999999999  0.6835200000000002  0.28546  1.0000
  C   C183      1.0  0.52948  0.011430000000000006  0.6571  1.0000
  C   C184      1.0  0.57191  0.07646  0.7035  1.0000
  C   C185      1.0  0.67852  0.08498  0.75081  1.0000
  C   C186      1.0  0.73795  0.025109999999999997  0.74706  1.0000
  C   C187      1.0  0.6912999999999999  0.96071  0.6996  1.0000
  C   C188      1.0  0.5958899999999998  0.12832  0.00045  1.0000
  C   C189      1.0  0.6197099999999999  0.168  0.9578099999999999  1.0000
  C   C190      1.0  0.6795699999999999  0.12805999999999998  0.9407599999999999  1.0000
  C   C191      1.0  0.7099799999999998  0.04593999999999999  0.9680299999999998  1.0000
  C   C192      1.0  0.6806599999999998  0.00801  0.00874  1.0000
  C   C193      1.0  0.7206  0.14884  0.80396  1.0000
  C   C194      1.0  0.67428  0.10609000000000002  0.84372  1.0000
  C   C195      1.0  0.7138099999999997  0.17091  0.89786  1.0000
  C   C196      1.0  0.5046499999999998  0.03718  0.1549  1.0000
  C   C197      1.0  0.4888499999999999  0.03459  0.203  1.0000
  C   C198      1.0  0.5308  0.972  0.24770999999999999  1.0000
  C   C199      1.0  0.58499  0.91178  0.23889  1.0000
  C   C200      1.0  0.5979699999999998  0.91755  0.18983  1.0000
  C   C201      1.0  0.7730799999999998  0.27637  0.50883  1.0000
  C   C202      1.0  0.6905799999999997  0.207  0.46915  1.0000
  C   C203      1.0  0.7133299999999998  0.13266  0.44954999999999995  1.0000
  C   C204      1.0  0.8230999999999998  0.13501  0.4711699999999999  1.0000
  C   C205      1.0  0.9021399999999998  0.20546  0.51119  1.0000
  C   C206      1.0  0.52764  0.97568  0.30391  1.0000
  C   C207      1.0  0.61987  0.05364000000000001  0.34735  1.0000
  C   C208      1.0  0.6259699999999998  0.05536  0.40774  1.0000
  N   N1        1.0  0.96165  0.37874  0.44238  1.0000
  N   N2        1.0  0.8748  0.3059  0.05956  1.0000
  N   N3        1.0  0.14913999999999997  0.56193  0.56496  1.0000
  N   N4        1.0  0.4224099999999997  0.8923000000000001  0.9357099999999999  1.0000
  N   N5        1.0  0.06998000000000004  0.45983  0.65198  1.0000
  N   N6        1.0  0.12427999999999996  0.54899  0.02865  1.0000
  N   N7        1.0  0.05863  0.48382  0.14985  1.0000
  N   N8        1.0  0.4010699999999998  0.7668899999999998  0.53634  1.0000
  N   N9        1.0  0.9441199999999997  0.37671  0.94063  1.0000
  N   N10       1.0  0.64115  0.06031  0.5603  1.0000
  N   N11       1.0  0.06455000000000007  0.98456  0.93889  1.0000
  N   N12       1.0  0.72933  0.69414  0.55536  1.0000
  N   N13       1.0  0.20194999999999988  0.06644000000000001  0.1538  1.0000
  N   N14       1.0  0.4767999999999999  0.40091  0.52529  1.0000
  N   N15       1.0  0.6661199999999998  0.58486  0.64748  1.0000
  N   N16       1.0  0.7557599999999998  0.64744  0.03043  1.0000
  N   N17       1.0  0.5618199999999998  0.48094  0.93991  1.0000
  N   N18       1.0  0.2528199999999999  0.18103  0.55827  1.0000
  N   N19       1.0  0.50104  0.41464999999999996  0.0627  1.0000
  N   N20       1.0  0.5442599999999999  0.51079  0.43564  1.0000
  N   N21       1.0  0.69119  0.57773  0.15063999999999997  1.0000
  N   N22       1.0  0.97703  0.9019199999999999  0.52696  1.0000
  N   N23       1.0  0.16293  0.08752000000000001  0.64846  1.0000
  N   N24       1.0  0.26887  0.13287  0.03534  1.0000
  N   N25       1.0  0.06416000000000001  0.9923899999999999  0.43957  1.0000
  N   N26       1.0  0.99879  0.91725  0.05939  1.0000
  N   N27       1.0  0.4536499999999999  0.8753  0.43965999999999994  1.0000
  N   N28       1.0  0.35794  0.82586  0.05559  1.0000
  N   N29       1.0  0.58669  0.95134  0.65467  1.0000
  N   N30       1.0  0.62407  0.04793000000000001  0.02596  1.0000
  N   N31       1.0  0.56062  0.98112  0.14763  1.0000
  N   N32       1.0  0.87958  0.27624  0.53112  1.0000
  Cl  Cl1       1.0  0.87567  0.51694  0.50008  1.0000
  Cl  Cl2       1.0  0.14434  0.34079  0.09365  1.0000
  Cl  Cl3       1.0  0.9759799999999998  0.12408  0.99391  1.0000
  Cl  Cl4       1.0  0.7508999999999999  0.44157  0.59362  1.0000
  Cl  Cl5       1.0  0.4822199999999999  0.62362  0.99863  1.0000
  Cl  Cl6       1.0  0.25131  0.94742  0.59236  1.0000
  Cl  Cl7       1.0  0.36766  0.019560000000000008  0.49298  1.0000
  Cl  Cl8       1.0  0.6461099999999997  0.84074  0.09197999999999999  1.0000
