data_image0
_chemical_formula_structural       Co12H124C220O56
_chemical_formula_sum              "Co12 H124 C220 O56"
_cell_length_a       18.36728
_cell_length_b       20.07165
_cell_length_c       27.37069
_cell_angle_alpha    89.89065000000001
_cell_angle_beta     90.01907
_cell_angle_gamma    108.31322

_space_group_name_H-M_alt    "P 1"
_space_group_IT_number       1

loop_
  _space_group_symop_operation_xyz
  'x, y, z'

loop_
  _atom_site_type_symbol
  _atom_site_label
  _atom_site_symmetry_multiplicity
  _atom_site_fract_x
  _atom_site_fract_y
  _atom_site_fract_z
  _atom_site_occupancy
  Co  Co1       1.0  0.44573  0.80561  0.64458  1.0000
  Co  Co2       1.0  0.6667199999999999  0.06216  0.64569  1.0000
  Co  Co3       1.0  0.6201099999999998  0.87835  0.6595  1.0000
  Co  Co4       1.0  0.05630000000000001  0.69373  0.14599  1.0000
  Co  Co5       1.0  0.83587  0.43945000000000006  0.14583  1.0000
  Co  Co6       1.0  0.8820899999999999  0.62312  0.15817000000000003  1.0000
  Co  Co7       1.0  0.55443  0.19364  0.3552  1.0000
  Co  Co8       1.0  0.33463  0.94106  0.35433  1.0000
  Co  Co9       1.0  0.38005  0.12372000000000001  0.34198  1.0000
  Co  Co10      1.0  0.94663  0.30665  0.8546000000000002  1.0000
  Co  Co11      1.0  0.16576  0.56209  0.85432  1.0000
  Co  Co12      1.0  0.12171999999999998  0.37781  0.83955  1.0000
  H   H1        1.0  0.19934  0.79112  0.6353900000000002  1.0000
  H   H2        1.0  0.08020999999999995  0.7988  0.59491  1.0000
  H   H3        1.0  0.021529999999999997  0.8899399999999998  0.56319  1.0000
  H   H4        1.0  0.98396  0.99068  0.5558100000000001  1.0000
  H   H5        1.0  0.89504  0.04127  0.59901  1.0000
  H   H6        1.0  0.68847  0.28967  0.63862  1.0000
  H   H7        1.0  0.68702  0.39946  0.59602  1.0000
  H   H8        1.0  0.60485  0.46210000000000007  0.56151  1.0000
  H   H9        1.0  0.50616  0.52008  0.55011  1.0000
  H   H10       1.0  0.47057999999999994  0.61598  0.59025  1.0000
  H   H11       1.0  0.68685  0.37593  0.4374900000000001  1.0000
  H   H12       1.0  0.86393  0.7662200000000001  0.37289  1.0000
  H   H13       1.0  0.8592299999999998  0.72696  0.28629  1.0000
  H   H14       1.0  0.1051  0.80113  0.27968000000000004  1.0000
  H   H15       1.0  0.11090999999999993  0.84525  0.36429  1.0000
  H   H16       1.0  0.33172  0.8894700000000001  0.51029  1.0000
  H   H17       1.0  0.21327999999999991  0.89384  0.46889  1.0000
  H   H18       1.0  0.10029000000000005  0.8059100000000001  0.4372  1.0000
  H   H19       1.0  0.8892899999999999  0.8565400000000001  0.43043000000000003  1.0000
  H   H20       1.0  0.70215  0.8774899999999999  0.54229  1.0000
  H   H21       1.0  0.7915399999999999  0.82751  0.49725000000000014  1.0000
  H   H22       1.0  0.68355  0.76412  0.54376  1.0000
  H   H23       1.0  0.7174599999999998  0.669  0.50055  1.0000
  H   H24       1.0  0.66831  0.58439  0.4300500000000001  1.0000
  H   H25       1.0  0.58809  0.27777  0.4690200000000001  1.0000
  H   H26       1.0  0.58965  0.16951  0.51132  1.0000
  H   H27       1.0  0.6539499999999999  0.37759  0.35862  1.0000
  H   H28       1.0  0.7082799999999999  0.3869  0.27522  1.0000
  H   H29       1.0  0.8256900000000001  0.6063900000000001  0.29793000000000003  1.0000
  H   H30       1.0  0.77487  0.59698  0.3826  1.0000
  H   H31       1.0  0.44365999999999994  0.95652  0.65396  1.0000
  H   H32       1.0  0.30306000000000005  0.7059300000000001  0.13702  1.0000
  H   H33       1.0  0.42133  0.69802  0.09566000000000002  1.0000
  H   H34       1.0  0.47867  0.60874  0.06353000000000002  1.0000
  H   H35       1.0  0.51505  0.50725  0.05603  1.0000
  H   H36       1.0  0.60231  0.45571000000000006  0.10005  1.0000
  H   H37       1.0  0.8067399999999998  0.20906  0.14178  1.0000
  H   H38       1.0  0.81079  0.10115  0.09838  1.0000
  H   H39       1.0  0.897  0.04196  0.06463  1.0000
  H   H40       1.0  0.99514  0.98283  0.054820000000000015  1.0000
  H   H41       1.0  0.030459999999999956  0.8860599999999998  0.09414000000000003  1.0000
  H   H42       1.0  0.81207  0.126  0.94031  1.0000
  H   H43       1.0  0.6366399999999999  0.73287  0.87284  1.0000
  H   H44       1.0  0.64143  0.7731  0.7864500000000002  1.0000
  H   H45       1.0  0.39553999999999995  0.69826  0.77957  1.0000
  H   H46       1.0  0.38964999999999983  0.65366  0.8640700000000002  1.0000
  H   H47       1.0  0.16954999999999998  0.61378  0.010780000000000003  1.0000
  H   H48       1.0  0.28675  0.6085  0.9690400000000002  1.0000
  H   H49       1.0  0.40042999999999984  0.69291  0.9372  1.0000
  H   H50       1.0  0.61131  0.64186  0.93086  1.0000
  H   H51       1.0  0.79724  0.61999  0.04515  1.0000
  H   H52       1.0  0.70944  0.67081  0.9995000000000002  1.0000
  H   H53       1.0  0.8191899999999999  0.73838  0.04508  1.0000
  H   H54       1.0  0.78508  0.83454  0.00305  1.0000
  H   H55       1.0  0.8333499999999999  0.9186  0.93399  1.0000
  H   H56       1.0  0.9118899999999998  0.22682000000000002  0.9730800000000002  1.0000
  H   H57       1.0  0.9091399999999998  0.3335  0.01615  1.0000
  H   H58       1.0  0.847  0.12316  0.8607  1.0000
  H   H59       1.0  0.7945799999999997  0.1113  0.77649  1.0000
  H   H60       1.0  0.67761  0.89245  0.8016900000000002  1.0000
  H   H61       1.0  0.72594  0.90435  0.88711  1.0000
  H   H62       1.0  0.05652999999999996  0.54102  0.15989  1.0000
  H   H63       1.0  0.80079  0.2067  0.3637600000000001  1.0000
  H   H64       1.0  0.9198199999999999  0.19956  0.40461000000000014  1.0000
  H   H65       1.0  0.97795  0.10997000000000001  0.43672  1.0000
  H   H66       1.0  0.013519999999999999  0.008050000000000002  0.44428  1.0000
  H   H67       1.0  0.10077000000000001  0.95686  0.39988  1.0000
  H   H68       1.0  0.30691  0.71143  0.3581  1.0000
  H   H69       1.0  0.31155  0.60318  0.40107  1.0000
  H   H70       1.0  0.39590999999999993  0.54262  0.43453  1.0000
  H   H71       1.0  0.49452999999999997  0.48238  0.44481  1.0000
  H   H72       1.0  0.52955  0.38468  0.40688000000000013  1.0000
  H   H73       1.0  0.3132499999999999  0.62712  0.55931  1.0000
  H   H74       1.0  0.13644  0.23255  0.6267000000000003  1.0000
  H   H75       1.0  0.14239  0.27247  0.71313  1.0000
  H   H76       1.0  0.8964799999999999  0.1988  0.72105  1.0000
  H   H77       1.0  0.88953  0.15418  0.63655  1.0000
  H   H78       1.0  0.6685699999999998  0.11199000000000002  0.49000000000000005  1.0000
  H   H79       1.0  0.7864499999999999  0.10783999999999999  0.53143  1.0000
  H   H80       1.0  0.89981  0.19352  0.56312  1.0000
  H   H81       1.0  0.11019999999999999  0.1416  0.56946  1.0000
  H   H82       1.0  0.2958399999999999  0.1203  0.4549  1.0000
  H   H83       1.0  0.20822999999999997  0.17073  0.5011100000000002  1.0000
  H   H84       1.0  0.31688  0.23861  0.45587  1.0000
  H   H85       1.0  0.28315  0.33566  0.4966600000000001  1.0000
  H   H86       1.0  0.33355  0.41932  0.56555  1.0000
  H   H87       1.0  0.41236999999999996  0.72762  0.52665  1.0000
  H   H88       1.0  0.4088499999999998  0.8346  0.4840300000000001  1.0000
  H   H89       1.0  0.34669  0.62397  0.63881  1.0000
  H   H90       1.0  0.2942  0.61166  0.72297  1.0000
  H   H91       1.0  0.17936999999999997  0.39244  0.69826  1.0000
  H   H92       1.0  0.22711  0.4048800000000001  0.61275  1.0000
  H   H93       1.0  0.55527  0.04245  0.34032000000000007  1.0000
  H   H94       1.0  0.7004699999999998  0.29187  0.86426  1.0000
  H   H95       1.0  0.58119  0.29925  0.9044300000000002  1.0000
  H   H96       1.0  0.52178  0.38938  0.9361000000000003  1.0000
  H   H97       1.0  0.4849599999999999  0.49118000000000006  0.94389  1.0000
  H   H98       1.0  0.3966199999999999  0.5424700000000001  0.9005100000000001  1.0000
  H   H99       1.0  0.18938999999999998  0.78988  0.8615200000000001  1.0000
  H   H100      1.0  0.18782  0.89971  0.90373  1.0000
  H   H101      1.0  0.10466999999999996  0.96202  0.9379700000000002  1.0000
  H   H102      1.0  0.006439999999999999  0.01954  0.9485  1.0000
  H   H103      1.0  0.9705099999999999  0.11544000000000001  0.9082200000000002  1.0000
  H   H104      1.0  0.18753999999999996  0.87637  0.0622  1.0000
  H   H105      1.0  0.3637299999999999  0.26586  0.12662  1.0000
  H   H106      1.0  0.3585900000000001  0.22670000000000004  0.21332000000000007  1.0000
  H   H107      1.0  0.60434  0.3009  0.22049000000000005  1.0000
  H   H108      1.0  0.61072  0.34489  0.13576  1.0000
  H   H109      1.0  0.8320000000000001  0.38858  0.9899000000000002  1.0000
  H   H110      1.0  0.71341  0.39301  0.030900000000000007  1.0000
  H   H111      1.0  0.60061  0.30598  0.06264  1.0000
  H   H112      1.0  0.38935999999999993  0.35633  0.06879  1.0000
  H   H113      1.0  0.20293  0.37786  0.95591  1.0000
  H   H114      1.0  0.2917100000000001  0.32720000000000005  0.00122  1.0000
  H   H115      1.0  0.18191999999999997  0.26431  0.95603  1.0000
  H   H116      1.0  0.21631  0.16917  0.99926  1.0000
  H   H117      1.0  0.16751  0.08428  0.06914000000000001  1.0000
  H   H118      1.0  0.08795999999999995  0.77791  0.03084  1.0000
  H   H119      1.0  0.0888  0.66956  0.9886400000000002  1.0000
  H   H120      1.0  0.15367999999999998  0.8779099999999999  0.14121  1.0000
  H   H121      1.0  0.20744  0.88765  0.22483000000000006  1.0000
  H   H122      1.0  0.32456  0.10717  0.20133000000000006  1.0000
  H   H123      1.0  0.27436  0.09736  0.11647000000000003  1.0000
  H   H124      1.0  0.94503  0.45695  0.8427  1.0000
  C   C1        1.0  0.8031299999999998  0.50549  0.23133  1.0000
  C   C2        1.0  0.34266  0.83118  0.5974100000000001  1.0000
  C   C3        1.0  0.2725599999999999  0.83881  0.57506  1.0000
  C   C4        1.0  0.20161999999999994  0.81433  0.59926  1.0000
  C   C5        1.0  0.13539  0.8188  0.57659  1.0000
  C   C6        1.0  0.13871  0.84625  0.52903  1.0000
  C   C7        1.0  0.06888999999999998  0.8480399999999999  0.50299  1.0000
  C   C8        1.0  0.013560000000000027  0.87225  0.52544  1.0000
  C   C9        1.0  0.9483499999999999  0.8749  0.49969  1.0000
  C   C10       1.0  0.89393  0.9049200000000001  0.5240300000000001  1.0000
  C   C11       1.0  0.9224  0.9653599999999999  0.5531  1.0000
  C   C12       1.0  0.8727999999999998  0.99412  0.57714  1.0000
  C   C13       1.0  0.7931899999999997  0.96194  0.57357  1.0000
  C   C14       1.0  0.6479699999999999  0.15945  0.60084  1.0000
  C   C15       1.0  0.6405899999999999  0.22319  0.57743  1.0000
  C   C16       1.0  0.66615  0.28801  0.60169  1.0000
  C   C17       1.0  0.66483  0.34894  0.57788  1.0000
  C   C18       1.0  0.6387  0.34627  0.52936  1.0000
  C   C19       1.0  0.6441999999999998  0.41137000000000007  0.50231  1.0000
  C   C20       1.0  0.62603  0.46727  0.5241200000000001  1.0000
  C   C21       1.0  0.6352  0.53006  0.4985300000000001  1.0000
  C   C22       1.0  0.6141199999999998  0.58773  0.52214  1.0000
  C   C23       1.0  0.54498  0.57357  0.5483  1.0000
  C   C24       1.0  0.52465  0.62734  0.5708  1.0000
  C   C25       1.0  0.57436  0.69657  0.56903  1.0000
  C   C26       1.0  0.67088  0.4186099999999999  0.45398  1.0000
  C   C27       1.0  0.55431  0.75361  0.59464  1.0000
  C   C28       1.0  0.98112  0.73081  0.22805  1.0000
  C   C29       1.0  0.9168799999999999  0.77496  0.35238  1.0000
  C   C30       1.0  0.9139199999999998  0.75219  0.30409  1.0000
  C   C31       1.0  0.9819899999999998  0.76028  0.27795  1.0000
  C   C32       1.0  0.05267000000000002  0.79421  0.30028  1.0000
  C   C33       1.0  0.05549000000000003  0.81785  0.34809  1.0000
  C   C34       1.0  0.27653  0.86878  0.52837  1.0000
  C   C35       1.0  0.21013000000000007  0.8715600000000001  0.50536  1.0000
  C   C36       1.0  0.05812  0.82614  0.45425  1.0000
  C   C37       1.0  0.9935999999999999  0.82819  0.42749  1.0000
  C   C38       1.0  0.9383799999999999  0.8521  0.45091  1.0000
  C   C39       1.0  0.76395  0.9017900000000001  0.54459  1.0000
  C   C40       1.0  0.8140299999999999  0.8743000000000001  0.5195700000000001  1.0000
  C   C41       1.0  0.9877699999999999  0.80705  0.37552000000000013  1.0000
  C   C42       1.0  0.74159  0.9928400000000001  0.59968  1.0000
  C   C43       1.0  0.6441699999999998  0.71092  0.54378  1.0000
  C   C44       1.0  0.66308  0.65749  0.51983  1.0000
  C   C45       1.0  0.66311  0.53649  0.45041  1.0000
  C   C46       1.0  0.68071  0.48073000000000005  0.42752000000000007  1.0000
  C   C47       1.0  0.6106499999999999  0.28079  0.50599  1.0000
  C   C48       1.0  0.61115  0.21975000000000003  0.52984  1.0000
  C   C49       1.0  0.71017  0.48675  0.3768800000000001  1.0000
  C   C50       1.0  0.69222  0.42778  0.34586  1.0000
  C   C51       1.0  0.72205  0.43281  0.29873  1.0000
  C   C52       1.0  0.7698500000000001  0.49756000000000006  0.2812  1.0000
  C   C53       1.0  0.7875899999999998  0.55681  0.31163  1.0000
  C   C54       1.0  0.75843  0.55129  0.35884  1.0000
  C   C55       1.0  0.5048699999999998  0.96113  0.6557000000000002  1.0000
  C   C56       1.0  0.70197  0.9940300000000003  0.73319  1.0000
  C   C57       1.0  0.15927999999999998  0.66797  0.09962  1.0000
  C   C58       1.0  0.22908999999999996  0.66081  0.07651000000000001  1.0000
  C   C59       1.0  0.30023999999999995  0.68379  0.10057  1.0000
  C   C60       1.0  0.3660299999999999  0.67923  0.07738  1.0000
  C   C61       1.0  0.36214  0.65315  0.029440000000000004  1.0000
  C   C62       1.0  0.4316  0.65083  0.0032  1.0000
  C   C63       1.0  0.48679999999999995  0.6264  0.02574  1.0000
  C   C64       1.0  0.5520199999999998  0.62353  0.00012  1.0000
  C   C65       1.0  0.60598  0.59316  0.02496  1.0000
  C   C66       1.0  0.57672  0.53241  0.05385  1.0000
  C   C67       1.0  0.6255  0.50308  0.07840000000000003  1.0000
  C   C68       1.0  0.7052999999999997  0.5349  0.07556000000000002  1.0000
  C   C69       1.0  0.8480899999999999  0.33933  0.10674000000000003  1.0000
  C   C70       1.0  0.85628  0.27783  0.08161  1.0000
  C   C71       1.0  0.8302299999999997  0.21216  0.10507  1.0000
  C   C72       1.0  0.8328999999999998  0.1522  0.0808  1.0000
  C   C73       1.0  0.8603699999999997  0.1563  0.03248  1.0000
  C   C74       1.0  0.8560699999999999  0.09161  0.00526  1.0000
  C   C75       1.0  0.8752799999999998  0.03628  0.02737  1.0000
  C   C76       1.0  0.8664800000000001  0.9733800000000001  0.0021800000000000005  1.0000
  C   C77       1.0  0.8877199999999998  0.91567  0.025830000000000006  1.0000
  C   C78       1.0  0.9564099999999999  0.9293600000000001  0.05243000000000001  1.0000
  C   C79       1.0  0.97671  0.8750400000000002  0.07437000000000003  1.0000
  C   C80       1.0  0.92754  0.80569  0.07147  1.0000
  C   C81       1.0  0.82894  0.08386  0.95701  1.0000
  C   C82       1.0  0.94786  0.74775  0.09588000000000002  1.0000
  C   C83       1.0  0.5204  0.76998  0.7280700000000002  1.0000
  C   C84       1.0  0.58367  0.72416  0.8523700000000002  1.0000
  C   C85       1.0  0.58672  0.7474600000000001  0.8041400000000001  1.0000
  C   C86       1.0  0.5187899999999998  0.73962  0.77788  1.0000
  C   C87       1.0  0.44805  0.70524  0.80013  1.0000
  C   C88       1.0  0.44517999999999996  0.68117  0.8479600000000003  1.0000
  C   C89       1.0  0.22459  0.63271  0.02926  1.0000
  C   C90       1.0  0.2906  0.62973  0.00583  1.0000
  C   C91       1.0  0.44252  0.67259  0.9543500000000003  1.0000
  C   C92       1.0  0.50698  0.67034  0.9276100000000003  1.0000
  C   C93       1.0  0.5621599999999999  0.64632  0.9512300000000001  1.0000
  C   C94       1.0  0.73539  0.59558  0.046960000000000016  1.0000
  C   C95       1.0  0.6860699999999997  0.62366  0.02148  1.0000
  C   C96       1.0  0.5128  0.69174  0.87553  1.0000
  C   C97       1.0  0.75624  0.5030600000000001  0.10168000000000003  1.0000
  C   C98       1.0  0.85805  0.79181  0.04593  1.0000
  C   C99       1.0  0.83912  0.84584  0.02268  1.0000
  C   C100      1.0  0.8381300000000002  0.96647  0.9541700000000002  1.0000
  C   C101      1.0  0.81959  0.02156  0.93093  1.0000
  C   C102      1.0  0.88848  0.22252  0.00989  1.0000
  C   C103      1.0  0.88705  0.28288  0.03426  1.0000
  C   C104      1.0  0.7905099999999999  0.01441  0.88015  1.0000
  C   C105      1.0  0.80911  0.07262000000000002  0.8483100000000001  1.0000
  C   C106      1.0  0.7805499999999997  0.06614  0.80082  1.0000
  C   C107      1.0  0.7334999999999999  0.0008999999999999993  0.7836500000000002  1.0000
  C   C108      1.0  0.7150999999999998  0.9425100000000001  0.8149700000000002  1.0000
  C   C109      1.0  0.7428499999999998  0.9493700000000002  0.86262  1.0000
  C   C110      1.0  0.99559  0.5375  0.15949  1.0000
  C   C111      1.0  0.20293  0.49344  0.7666300000000001  1.0000
  C   C112      1.0  0.65753  0.16748  0.40143000000000006  1.0000
  C   C113      1.0  0.72753  0.16038  0.42432  1.0000
  C   C114      1.0  0.7985299999999997  0.18427000000000002  0.4001400000000001  1.0000
  C   C115      1.0  0.8647  0.18017  0.4230700000000001  1.0000
  C   C116      1.0  0.8612699999999999  0.15377  0.4709800000000001  1.0000
  C   C117      1.0  0.93091  0.15172  0.49712  1.0000
  C   C118      1.0  0.98597  0.12731  0.47454000000000013  1.0000
  C   C119      1.0  0.05099000000000001  0.12399000000000002  0.50017  1.0000
  C   C120      1.0  0.10471  0.09360000000000002  0.47532  1.0000
  C   C121      1.0  0.07521  0.03311000000000001  0.44638  1.0000
  C   C122      1.0  0.12389  0.00397  0.42168000000000005  1.0000
  C   C123      1.0  0.20367  0.0358  0.42449  1.0000
  C   C124      1.0  0.34648  0.84095  0.39376  1.0000
  C   C125      1.0  0.35565  0.77949  0.41857  1.0000
  C   C126      1.0  0.33029  0.71414  0.39482  1.0000
  C   C127      1.0  0.33348999999999984  0.65403  0.41881  1.0000
  C   C128      1.0  0.3608599999999999  0.65763  0.46713  1.0000
  C   C129      1.0  0.35632999999999987  0.59262  0.4942  1.0000
  C   C130      1.0  0.3747499999999999  0.53706  0.47194000000000014  1.0000
  C   C131      1.0  0.3658999999999999  0.47409000000000007  0.4972200000000001  1.0000
  C   C132      1.0  0.38655  0.41601  0.47382000000000013  1.0000
  C   C133      1.0  0.45545  0.42905000000000004  0.44752  1.0000
  C   C134      1.0  0.47555  0.37422000000000005  0.4263200000000001  1.0000
  C   C135      1.0  0.42592  0.30504  0.4295700000000001  1.0000
  C   C136      1.0  0.32963000000000003  0.5848400000000001  0.54255  1.0000
  C   C137      1.0  0.44579  0.24664000000000003  0.40568  1.0000
  C   C138      1.0  0.021970000000000007  0.27  0.77184  1.0000
  C   C139      1.0  0.08375  0.22396  0.6474600000000003  1.0000
  C   C140      1.0  0.08745999999999998  0.24705000000000002  0.6956900000000003  1.0000
  C   C141      1.0  0.01980999999999998  0.23945  0.7222  1.0000
  C   C142      1.0  0.94873  0.20547  0.70027  1.0000
  C   C143      1.0  0.9452299999999997  0.18149  0.65247  1.0000
  C   C144      1.0  0.72346  0.13168  0.47141  1.0000
  C   C145      1.0  0.78987  0.12933000000000003  0.49469  1.0000
  C   C146      1.0  0.9418699999999999  0.17324  0.54595  1.0000
  C   C147      1.0  0.006290000000000003  0.17067  0.57263  1.0000
  C   C148      1.0  0.06119999999999999  0.1464  0.54905  1.0000
  C   C149      1.0  0.23396999999999998  0.09605  0.45327  1.0000
  C   C150      1.0  0.18478  0.12390000000000001  0.47894  1.0000
  C   C151      1.0  0.012559999999999997  0.19192  0.6246500000000001  1.0000
  C   C152      1.0  0.25444  0.00418  0.39826000000000006  1.0000
  C   C153      1.0  0.35615  0.29187  0.45474000000000003  1.0000
  C   C154      1.0  0.33740000000000003  0.34637  0.4773100000000001  1.0000
  C   C155      1.0  0.33818  0.46727  0.54539  1.0000
  C   C156      1.0  0.3200399999999999  0.52241  0.5686800000000001  1.0000
  C   C157      1.0  0.3888699999999998  0.72364  0.48988  1.0000
  C   C158      1.0  0.38688999999999996  0.78417  0.4657900000000001  1.0000
  C   C159      1.0  0.29103  0.51512  0.61948  1.0000
  C   C160      1.0  0.30918  0.57324  0.6512500000000002  1.0000
  C   C161      1.0  0.28060999999999997  0.5665  0.69876  1.0000
  C   C162      1.0  0.23424999999999999  0.501  0.7160700000000002  1.0000
  C   C163      1.0  0.2163499999999999  0.44268  0.68485  1.0000
  C   C164      1.0  0.24385999999999997  0.44987  0.63714  1.0000
  C   C165      1.0  0.4942599999999999  0.03872  0.34064000000000005  1.0000
  C   C166      1.0  0.30173  0.00656  0.26843  1.0000
  C   C167      1.0  0.8437199999999998  0.33128  0.9025600000000003  1.0000
  C   C168      1.0  0.77343  0.33872  0.92484  1.0000
  C   C169      1.0  0.7025999999999998  0.31468000000000007  0.90045  1.0000
  C   C170      1.0  0.6362  0.31899  0.9229800000000002  1.0000
  C   C171      1.0  0.6391299999999999  0.34594  0.97061  1.0000
  C   C172      1.0  0.56919  0.3477  0.9965600000000002  1.0000
  C   C173      1.0  0.51384  0.3718  0.97392  1.0000
  C   C174      1.0  0.44867  0.37466  0.99958  1.0000
  C   C175      1.0  0.39449  0.40494  0.97503  1.0000
  C   C176      1.0  0.42332  0.46579  0.9462300000000002  1.0000
  C   C177      1.0  0.37402  0.49494  0.92208  1.0000
  C   C178      1.0  0.29435  0.4628  0.9252  1.0000
  C   C179      1.0  0.14712999999999998  0.65937  0.8992  1.0000
  C   C180      1.0  0.14040999999999998  0.72328  0.9226100000000003  1.0000
  C   C181      1.0  0.16670999999999997  0.7882  0.8983400000000002  1.0000
  C   C182      1.0  0.16537999999999997  0.8491400000000001  0.92194  1.0000
  C   C183      1.0  0.13893000000000005  0.8464400000000001  0.9703900000000002  1.0000
  C   C184      1.0  0.14447000000000004  0.9115300000000001  0.9972900000000002  1.0000
  C   C185      1.0  0.12599000000000002  0.9672700000000001  0.9753200000000002  1.0000
  C   C186      1.0  0.13494  0.02999  0.00077  1.0000
  C   C187      1.0  0.11368  0.08756  0.97706  1.0000
  C   C188      1.0  0.04487  0.07316  0.95051  1.0000
  C   C189      1.0  0.02432  0.12687  0.9279800000000001  1.0000
  C   C190      1.0  0.07349  0.19627  0.9301900000000002  1.0000
  C   C191      1.0  0.17123999999999995  0.91888  0.04559000000000001  1.0000
  C   C192      1.0  0.053159999999999985  0.25319  0.90456  1.0000
  C   C193      1.0  0.4796099999999999  0.23018  0.27203  1.0000
  C   C194      1.0  0.41662  0.27465  0.14722  1.0000
  C   C195      1.0  0.41336  0.25191  0.1956  1.0000
  C   C196      1.0  0.48116999999999993  0.25986  0.22200000000000006  1.0000
  C   C197      1.0  0.55199  0.29385  0.19975000000000007  1.0000
  C   C198      1.0  0.55513  0.31748  0.15182  1.0000
  C   C199      1.0  0.77699  0.3681900000000001  0.9716000000000002  1.0000
  C   C200      1.0  0.7104399999999998  0.37094000000000005  0.9944200000000001  1.0000
  C   C201      1.0  0.55834  0.32600000000000007  0.045420000000000016  1.0000
  C   C202      1.0  0.49369999999999997  0.32796  0.07208000000000002  1.0000
  C   C203      1.0  0.43856  0.3519  0.04844  1.0000
  C   C204      1.0  0.26476  0.40217  0.95386  1.0000
  C   C205      1.0  0.31451  0.37427  0.97905  1.0000
  C   C206      1.0  0.48763  0.30674000000000007  0.12414000000000001  1.0000
  C   C207      1.0  0.24303  0.49447  0.8992500000000002  1.0000
  C   C208      1.0  0.14303999999999997  0.21089  0.9557400000000003  1.0000
  C   C209      1.0  0.16216  0.15747  0.9796800000000001  1.0000
  C   C210      1.0  0.16276  0.03649  0.04889  1.0000
  C   C211      1.0  0.18067999999999995  0.98092  0.07193  1.0000
  C   C212      1.0  0.11050000000000006  0.78095  0.99386  1.0000
  C   C213      1.0  0.11068  0.71985  0.97011  1.0000
  C   C214      1.0  0.20986  0.9870800000000001  0.12262  1.0000
  C   C215      1.0  0.19180000000000005  0.9281900000000001  0.15386  1.0000
  C   C216      1.0  0.22129999999999997  0.93345  0.20109000000000005  1.0000
  C   C217      1.0  0.26883  0.99834  0.21844  1.0000
  C   C218      1.0  0.28667  0.05749  0.18775000000000006  1.0000
  C   C219      1.0  0.25785  0.05177  0.14046  1.0000
  C   C220      1.0  0.0063500000000000145  0.46175000000000005  0.8422600000000002  1.0000
  O   O1        1.0  0.7967899999999999  0.44821000000000005  0.20749000000000006  1.0000
  O   O2        1.0  0.83621  0.56713  0.21587000000000003  1.0000
  O   O3        1.0  0.3381499999999999  0.80146  0.64047  1.0000
  O   O4        1.0  0.40732000000000007  0.85155  0.57637  1.0000
  O   O5        1.0  0.67264  0.16210000000000002  0.6457300000000001  1.0000
  O   O6        1.0  0.63242  0.10113000000000001  0.57844  1.0000
  O   O7        1.0  0.48333999999999994  0.74306  0.6051000000000001  1.0000
  O   O8        1.0  0.9165  0.70321  0.20701  1.0000
  O   O9        1.0  0.046520000000000034  0.73432  0.20960000000000006  1.0000
  O   O10       1.0  0.7637899999999997  0.05815000000000001  0.6099300000000002  1.0000
  O   O11       1.0  0.67251  0.95611  0.612  1.0000
  O   O12       1.0  0.60828  0.81005  0.60488  1.0000
  O   O13       1.0  0.52007  0.9023  0.65491  1.0000
  O   O14       1.0  0.5531299999999998  0.02081  0.6590500000000002  1.0000
  O   O15       1.0  0.7089899999999999  0.050690000000000006  0.7095000000000001  1.0000
  O   O16       1.0  0.6693099999999997  0.9320100000000001  0.7168400000000003  1.0000
  O   O17       1.0  0.16413  0.6971  0.14276000000000003  1.0000
  O   O18       1.0  0.09424  0.64774  0.07893  1.0000
  O   O19       1.0  0.8213899999999998  0.33637000000000006  0.15054  1.0000
  O   O20       1.0  0.86572  0.4012  0.08676  1.0000
  O   O21       1.0  0.018220000000000017  0.75783  0.10692000000000002  1.0000
  O   O22       1.0  0.58539  0.7976500000000001  0.70734  1.0000
  O   O23       1.0  0.45535999999999993  0.76726  0.7093  1.0000
  O   O24       1.0  0.7340999999999999  0.43765  0.11192  1.0000
  O   O25       1.0  0.8257200000000001  0.5390100000000001  0.11414000000000003  1.0000
  O   O26       1.0  0.8934699999999999  0.69043  0.10455000000000002  1.0000
  O   O27       1.0  0.98136  0.59645  0.15732000000000004  1.0000
  O   O28       1.0  0.94715  0.47734  0.16162000000000007  1.0000
  O   O29       1.0  0.20737  0.5494  0.7901100000000001  1.0000
  O   O30       1.0  0.17284000000000002  0.4307500000000001  0.783  1.0000
  O   O31       1.0  0.66265  0.19899  0.35908  1.0000
  O   O32       1.0  0.5921299999999998  0.14509  0.4214700000000001  1.0000
  O   O33       1.0  0.31934999999999997  0.8381  0.35004  1.0000
  O   O34       1.0  0.3639999999999999  0.9026700000000001  0.41378  1.0000
  O   O35       1.0  0.51625  0.25628  0.3949500000000001  1.0000
  O   O36       1.0  0.08706  0.29632  0.79278  1.0000
  O   O37       1.0  0.95729  0.26911  0.7902000000000001  1.0000
  O   O38       1.0  0.23228000000000001  0.9389100000000001  0.38801  1.0000
  O   O39       1.0  0.32398  0.04022  0.3858000000000001  1.0000
  O   O40       1.0  0.39119  0.18953  0.39702  1.0000
  O   O41       1.0  0.4796199999999999  0.09745  0.34273  1.0000
  O   O42       1.0  0.44604999999999995  0.9784500000000002  0.3384800000000001  1.0000
  O   O43       1.0  0.29535000000000006  0.9494400000000001  0.29258  1.0000
  O   O44       1.0  0.33453  0.06822  0.28375  1.0000
  O   O45       1.0  0.83948  0.30305  0.85909  1.0000
  O   O46       1.0  0.9082699999999999  0.35033  0.9237600000000001  1.0000
  O   O47       1.0  0.17488999999999996  0.66302  0.855  1.0000
  O   O48       1.0  0.12825000000000003  0.60029  0.92103  1.0000
  O   O49       1.0  0.98241  0.24173  0.8929800000000002  1.0000
  O   O50       1.0  0.41471  0.20343  0.29309000000000013  1.0000
  O   O51       1.0  0.54462  0.23274  0.29062000000000004  1.0000
  O   O52       1.0  0.2646800000000001  0.5602200000000002  0.8902400000000003  1.0000
  O   O53       1.0  0.17439000000000002  0.4578400000000001  0.8859300000000002  1.0000
  O   O54       1.0  0.10661  0.31038  0.8951900000000003  1.0000
  O   O55       1.0  0.02205000000000001  0.40335  0.8450500000000001  1.0000
  O   O56       1.0  0.05434  0.52161  0.8385600000000002  1.0000
