data_image0
_chemical_formula_structural       Cd12H144C198O72
_chemical_formula_sum              "Cd12 H144 C198 O72"
_cell_length_a       18.06776
_cell_length_b       18.06859
_cell_length_c       18.06929
_cell_angle_alpha    97.34143
_cell_angle_beta     97.35141
_cell_angle_gamma    97.34896

_space_group_name_H-M_alt    "P 1"
_space_group_IT_number       1

loop_
  _space_group_symop_operation_xyz
  'x, y, z'

loop_
  _atom_site_type_symbol
  _atom_site_label
  _atom_site_symmetry_multiplicity
  _atom_site_fract_x
  _atom_site_fract_y
  _atom_site_fract_z
  _atom_site_occupancy
  Cd  Cd1       1.0  0.50825  0.022150000000000003  0.31873  1.0000
  Cd  Cd2       1.0  0.8776500000000003  0.8776600000000002  0.87765  1.0000
  Cd  Cd3       1.0  0.49174999999999985  0.97785  0.68126  1.0000
  Cd  Cd4       1.0  0.31873000000000007  0.50825  0.02214  1.0000
  Cd  Cd5       1.0  0.5  0.0  0.5  1.0000
  Cd  Cd6       1.0  0.6812700000000002  0.49175  0.97786  1.0000
  Cd  Cd7       1.0  0.02213999999999998  0.3187  0.50824  1.0000
  Cd  Cd8       1.0  0.9778600000000002  0.6813  0.4917500000000001  1.0000
  Cd  Cd9       1.0  0.0  0.0  0.0  1.0000
  Cd  Cd10      1.0  0.5  0.5  0.0  1.0000
  Cd  Cd11      1.0  0.12234  0.12234000000000003  0.12233999999999999  1.0000
  Cd  Cd12      1.0  0.0  0.5  0.5  1.0000
  H   H1        1.0  0.52987  0.62352  0.37448  1.0000
  H   H2        1.0  0.07580000000000003  0.08304999999999998  0.84291  1.0000
  H   H3        1.0  0.38071  0.49076  0.42532  1.0000
  H   H4        1.0  0.03575000000000004  0.7209800000000002  0.25925  1.0000
  H   H5        1.0  0.17549  0.72156  0.33979  1.0000
  H   H6        1.0  0.23262000000000002  0.3648400000000001  0.64247  1.0000
  H   H7        1.0  0.39480999999999994  0.09141999999999999  0.85461  1.0000
  H   H8        1.0  0.42529  0.38074000000000013  0.49068  1.0000
  H   H9        1.0  0.47013  0.37648  0.62552  1.0000
  H   H10       1.0  0.20066000000000003  0.67191  0.61703  1.0000
  H   H11       1.0  0.0914  0.85463  0.39476  1.0000
  H   H12       1.0  0.9720000000000001  0.25631  0.23113999999999998  1.0000
  H   H13       1.0  0.8546200000000003  0.39481  0.09146  1.0000
  H   H14       1.0  0.32813  0.3829500000000001  0.79933  1.0000
  H   H15       1.0  0.7689300000000002  0.027999999999999997  0.74375  1.0000
  H   H16       1.0  0.25624  0.23096000000000003  0.97202  1.0000
  H   H17       1.0  0.1299  0.8205500000000001  0.61098  1.0000
  H   H18       1.0  0.96424  0.2790200000000001  0.74075  1.0000
  H   H19       1.0  0.6170100000000002  0.20064  0.67188  1.0000
  H   H20       1.0  0.8040000000000004  0.87225  0.20378  1.0000
  H   H21       1.0  0.10714000000000004  0.42587  0.70961  1.0000
  H   H22       1.0  0.49068  0.4253  0.38076  1.0000
  H   H23       1.0  0.51569  0.66969  0.9027699999999999  1.0000
  H   H24       1.0  0.6601900000000002  0.8245200000000003  0.27845  1.0000
  H   H25       1.0  0.9196200000000002  0.28247  0.10365  1.0000
  H   H26       1.0  0.66968  0.9027300000000001  0.5157  1.0000
  H   H27       1.0  0.3081500000000001  0.6643600000000002  0.15156  1.0000
  H   H28       1.0  0.3356100000000001  0.8484600000000002  0.69185  1.0000
  H   H29       1.0  0.7673700000000002  0.6351600000000002  0.35752  1.0000
  H   H30       1.0  0.212  0.30501  0.8313  1.0000
  H   H31       1.0  0.25926  0.03574  0.72096  1.0000
  H   H32       1.0  0.83576  0.29821  0.46982  1.0000
  H   H33       1.0  0.6718600000000002  0.6170500000000001  0.20066  1.0000
  H   H34       1.0  0.69184  0.33563  0.84844  1.0000
  H   H35       1.0  0.8429  0.07575  0.08302  1.0000
  H   H36       1.0  0.30762  0.80899  0.51927  1.0000
  H   H37       1.0  0.16865000000000008  0.7880100000000002  0.69494  1.0000
  H   H38       1.0  0.8982600000000001  0.45737  0.33306  1.0000
  H   H39       1.0  0.70172  0.5301700000000003  0.16433  1.0000
  H   H40       1.0  0.23106999999999997  0.972  0.25624  1.0000
  H   H41       1.0  0.8928600000000001  0.57413  0.29039  1.0000
  H   H42       1.0  0.8316700000000002  0.43657  0.44546  1.0000
  H   H43       1.0  0.82451  0.2784400000000001  0.66021  1.0000
  H   H44       1.0  0.5301300000000001  0.1643  0.70177  1.0000
  H   H45       1.0  0.8089200000000002  0.51925  0.30761  1.0000
  H   H46       1.0  0.60519  0.90858  0.14539  1.0000
  H   H47       1.0  0.8313500000000001  0.21199000000000007  0.30505  1.0000
  H   H48       1.0  0.09720000000000002  0.4843100000000001  0.33032  1.0000
  H   H49       1.0  0.14537  0.6051900000000001  0.9085300000000001  1.0000
  H   H50       1.0  0.5192100000000001  0.3076  0.80889  1.0000
  H   H51       1.0  0.21114999999999998  0.27835  0.55433  1.0000
  H   H52       1.0  0.7216700000000001  0.44570000000000004  0.78882  1.0000
  H   H53       1.0  0.5545099999999998  0.72261  0.60933  1.0000
  H   H54       1.0  0.43665  0.44553000000000004  0.83165  1.0000
  H   H55       1.0  0.2699800000000001  0.92264  0.14145  1.0000
  H   H56       1.0  0.9169500000000002  0.15710000000000005  0.92424  1.0000
  H   H57       1.0  0.027989999999999998  0.74369  0.76886  1.0000
  H   H58       1.0  0.72158  0.33977999999999997  0.17549  1.0000
  H   H59       1.0  0.61928  0.50924  0.57468  1.0000
  H   H60       1.0  0.27833  0.5543  0.21118  1.0000
  H   H61       1.0  0.7226400000000002  0.60927  0.55446  1.0000
  H   H62       1.0  0.08305000000000003  0.8429  0.07576  1.0000
  H   H63       1.0  0.12776  0.79624  0.19596  1.0000
  H   H64       1.0  0.15153  0.30814  0.66439  1.0000
  H   H65       1.0  0.60936  0.55451  0.7226  1.0000
  H   H66       1.0  0.37647  0.62559  0.47013999999999995  1.0000
  H   H67       1.0  0.63513  0.35753000000000007  0.76734  1.0000
  H   H68       1.0  0.27842  0.66022  0.82451  1.0000
  H   H69       1.0  0.14144000000000004  0.2699600000000001  0.92263  1.0000
  H   H70       1.0  0.61095  0.12994000000000003  0.82053  1.0000
  H   H71       1.0  0.71753  0.8964600000000001  0.0804  1.0000
  H   H72       1.0  0.6669800000000001  0.10173000000000001  0.54266  1.0000
  H   H73       1.0  0.07735000000000004  0.85857  0.73006  1.0000
  H   H74       1.0  0.08038000000000001  0.71753  0.89635  1.0000
  H   H75       1.0  0.3648600000000001  0.6424700000000002  0.23265  1.0000
  H   H76       1.0  0.7529100000000002  0.8071300000000002  0.54678  1.0000
  H   H77       1.0  0.38299  0.79936  0.32811  1.0000
  H   H78       1.0  0.8722300000000001  0.20376  0.80403  1.0000
  H   H79       1.0  0.46986000000000006  0.8357  0.29823  1.0000
  H   H80       1.0  0.66439  0.15153  0.30814  1.0000
  H   H81       1.0  0.45731  0.33299  0.89826  1.0000
  H   H82       1.0  0.33981000000000017  0.17548000000000005  0.72155  1.0000
  H   H83       1.0  0.19108  0.48075000000000007  0.69238  1.0000
  H   H84       1.0  0.16424  0.70179  0.53018  1.0000
  H   H85       1.0  0.2903  0.8929100000000001  0.57412  1.0000
  H   H86       1.0  0.7300100000000002  0.07736000000000001  0.85855  1.0000
  H   H87       1.0  0.5741  0.29039  0.89283  1.0000
  H   H88       1.0  0.2790200000000001  0.7407600000000002  0.96428  1.0000
  H   H89       1.0  0.45320000000000005  0.24711000000000002  0.19283  1.0000
  H   H90       1.0  0.37447  0.52986  0.62349  1.0000
  H   H91       1.0  0.19280000000000005  0.45320000000000005  0.24712000000000003  1.0000
  H   H92       1.0  0.9226400000000001  0.14143  0.26994  1.0000
  H   H93       1.0  0.5747  0.6192600000000001  0.50932  1.0000
  H   H94       1.0  0.78799  0.69498  0.1687  1.0000
  H   H95       1.0  0.44568  0.78882  0.72164  1.0000
  H   H96       1.0  0.44549  0.83165  0.43661  1.0000
  H   H97       1.0  0.10172999999999999  0.54262  0.66694  1.0000
  H   H98       1.0  0.35751000000000005  0.76739  0.63514  1.0000
  H   H99       1.0  0.38905  0.8700600000000002  0.17947  1.0000
  H   H100      1.0  0.30506  0.8313300000000003  0.212  1.0000
  H   H101      1.0  0.15709999999999996  0.9242500000000001  0.9169799999999999  1.0000
  H   H102      1.0  0.4843  0.33030000000000004  0.09722  1.0000
  H   H103      1.0  0.5468  0.7528900000000002  0.80717  1.0000
  H   H104      1.0  0.5093200000000001  0.57469  0.61924  1.0000
  H   H105      1.0  0.6424800000000002  0.2326  0.36486  1.0000
  H   H106      1.0  0.82049  0.61101  0.12992  1.0000
  H   H107      1.0  0.55431  0.21118  0.27835  1.0000
  H   H108      1.0  0.8701000000000001  0.17944000000000002  0.38902  1.0000
  H   H109      1.0  0.28246  0.10354000000000001  0.9196000000000001  1.0000
  H   H110      1.0  0.69493  0.16866  0.78799  1.0000
  H   H111      1.0  0.9242000000000002  0.91695  0.15709  1.0000
  H   H112      1.0  0.7437600000000002  0.76903  0.02798  1.0000
  H   H113      1.0  0.62353  0.37441  0.52985  1.0000
  H   H114      1.0  0.48078  0.6923900000000002  0.19111  1.0000
  H   H115      1.0  0.16833  0.56343  0.55453  1.0000
  H   H116      1.0  0.33302  0.8982700000000001  0.45734  1.0000
  H   H117      1.0  0.84846  0.69186  0.33561  1.0000
  H   H118      1.0  0.54268  0.6670100000000002  0.10174  1.0000
  H   H119      1.0  0.27735  0.39072  0.44553  1.0000
  H   H120      1.0  0.8072  0.5468000000000001  0.75288  1.0000
  H   H121      1.0  0.62552  0.47013  0.37651  1.0000
  H   H122      1.0  0.5545000000000002  0.16834  0.56339  1.0000
  H   H123      1.0  0.196  0.12774  0.79622  1.0000
  H   H124      1.0  0.10358000000000005  0.91961  0.28241  1.0000
  H   H125      1.0  0.42589  0.70961  0.10716  1.0000
  H   H126      1.0  0.7888400000000002  0.7216400000000002  0.44567  1.0000
  H   H127      1.0  0.7993300000000002  0.32808000000000015  0.38296  1.0000
  H   H128      1.0  0.5633500000000001  0.55447  0.16835  1.0000
  H   H129      1.0  0.29827000000000004  0.46983000000000014  0.83567  1.0000
  H   H130      1.0  0.79624  0.19594  0.12772  1.0000
  H   H131      1.0  0.85855  0.73004  0.07736  1.0000
  H   H132      1.0  0.44549  0.27738  0.39067  1.0000
  H   H133      1.0  0.70969  0.10708  0.42588  1.0000
  H   H134      1.0  0.39064  0.44549  0.2774  1.0000
  H   H135      1.0  0.24709  0.19287  0.45322  1.0000
  H   H136      1.0  0.8964200000000001  0.08038  0.71759  1.0000
  H   H137      1.0  0.17950000000000008  0.38899000000000006  0.87007  1.0000
  H   H138      1.0  0.9085900000000001  0.14537000000000003  0.60524  1.0000
  H   H139      1.0  0.33031  0.09727000000000002  0.4843  1.0000
  H   H140      1.0  0.6923700000000002  0.191  0.48072  1.0000
  H   H141      1.0  0.72098  0.2592400000000001  0.03572  1.0000
  H   H142      1.0  0.9027900000000002  0.51569  0.66968  1.0000
  H   H143      1.0  0.20375  0.80405  0.87228  1.0000
  H   H144      1.0  0.74074  0.9642600000000002  0.27904  1.0000
  C   C1        1.0  0.61641  0.85346  0.12149999999999998  1.0000
  C   C2        1.0  0.8207499999999999  0.64989  0.18198  1.0000
  C   C3        1.0  0.56606  0.78903  0.12744  1.0000
  C   C4        1.0  0.3553200000000001  0.7271200000000002  0.76787  1.0000
  C   C5        1.0  0.5284  0.31364  0.13545  1.0000
  C   C6        1.0  0.91667  0.74516  0.10477  1.0000
  C   C7        1.0  0.78902  0.12744  0.56607  1.0000
  C   C8        1.0  0.3902  0.07345  0.61785  1.0000
  C   C9        1.0  0.3913  0.7573  0.2121  1.0000
  C   C10       1.0  0.3956800000000001  0.6605400000000001  0.86952  1.0000
  C   C11       1.0  0.52831  0.49861000000000005  0.78235  1.0000
  C   C12       1.0  0.13047000000000006  0.60431  0.33946  1.0000
  C   C13       1.0  0.52694  0.2153400000000001  0.54818  1.0000
  C   C14       1.0  0.10347000000000003  0.044270000000000025  0.80873  1.0000
  C   C15       1.0  0.96361  0.34018  0.36625  1.0000
  C   C16       1.0  0.00012999999999996876  0.94324  0.81996  1.0000
  C   C17       1.0  0.24267000000000002  0.78793  0.6087  1.0000
  C   C18       1.0  0.77494  0.05629000000000001  0.69471  1.0000
  C   C19       1.0  0.21765  0.47176000000000007  0.50146  1.0000
  C   C20       1.0  0.07064000000000001  0.96842  0.78988  1.0000
  C   C21       1.0  0.80873  0.10343  0.04424  1.0000
  C   C22       1.0  0.45004000000000005  0.46503  0.27716  1.0000
  C   C23       1.0  0.9998600000000001  0.056760000000000005  0.18004  1.0000
  C   C24       1.0  0.9293500000000001  0.03158  0.21011  1.0000
  C   C25       1.0  0.06876000000000004  0.7829200000000002  0.1707  1.0000
  C   C26       1.0  0.41938999999999993  0.28227  0.90148  1.0000
  C   C27       1.0  0.38359  0.14654  0.8785  1.0000
  C   C28       1.0  0.82662  0.05825000000000001  0.27805  1.0000
  C   C29       1.0  0.4271  0.7858000000000003  0.29437  1.0000
  C   C30       1.0  0.8695200000000002  0.39569  0.66053  1.0000
  C   C31       1.0  0.07344  0.61784  0.3902  1.0000
  C   C32       1.0  0.51137  0.15349  0.41578  1.0000
  C   C33       1.0  0.20623  0.017870000000000004  0.74061  1.0000
  C   C34       1.0  0.58423  0.48861  0.84651  1.0000
  C   C35       1.0  0.03638000000000004  0.6598100000000002  0.63374  1.0000
  C   C36       1.0  0.72193  0.17337  0.94172  1.0000
  C   C37       1.0  0.24680999999999997  0.23707  0.56938  1.0000
  C   C38       1.0  0.16486  0.45165  0.73433  1.0000
  C   C39       1.0  0.51521  0.27238  0.60323  1.0000
  C   C40       1.0  0.7878900000000002  0.60872  0.2427  1.0000
  C   C41       1.0  0.05630000000000002  0.6946600000000003  0.77488  1.0000
  C   C42       1.0  0.23704000000000003  0.56936  0.24682  1.0000
  C   C43       1.0  0.17925  0.35011  0.81801  1.0000
  C   C44       1.0  0.60432  0.33945  0.13048  1.0000
  C   C45       1.0  0.17337000000000002  0.94174  0.72194  1.0000
  C   C46       1.0  0.9362800000000001  0.3548100000000001  0.28927  1.0000
  C   C47       1.0  0.26755  0.18856  0.51156  1.0000
  C   C48       1.0  0.84653  0.5841900000000002  0.48864  1.0000
  C   C49       1.0  0.15347  0.4158100000000001  0.51136  1.0000
  C   C50       1.0  0.9146300000000002  0.32056  0.15399  1.0000
  C   C51       1.0  0.21533000000000005  0.54822  0.52698  1.0000
  C   C52       1.0  0.29439  0.42707  0.78578  1.0000
  C   C53       1.0  0.6657400000000002  0.49406  0.54584  1.0000
  C   C54       1.0  0.28230000000000005  0.9014900000000002  0.4194  1.0000
  C   C55       1.0  0.81148  0.48845  0.73243  1.0000
  C   C56       1.0  0.8351400000000002  0.5483500000000001  0.26566  1.0000
  C   C57       1.0  0.5058600000000002  0.45413000000000003  0.33429  1.0000
  C   C58       1.0  0.6098  0.9265500000000001  0.38215  1.0000
  C   C59       1.0  0.81804  0.17922000000000002  0.35013  1.0000
  C   C60       1.0  0.48863  0.8464999999999999  0.58421  1.0000
  C   C61       1.0  0.5481600000000002  0.52692  0.21535  1.0000
  C   C62       1.0  0.45183  0.47308000000000006  0.78465  1.0000
  C   C63       1.0  0.18851  0.51154  0.26757  1.0000
  C   C64       1.0  0.2780600000000001  0.8266300000000002  0.05827  1.0000
  C   C65       1.0  0.33707000000000015  0.6807900000000001  0.82147  1.0000
  C   C66       1.0  0.7056000000000002  0.57292  0.21422  1.0000
  C   C67       1.0  0.20989  0.3349  0.68565  1.0000
  C   C68       1.0  0.6794600000000002  0.84609  0.08536  1.0000
  C   C69       1.0  0.45168  0.7343400000000001  0.16487  1.0000
  C   C70       1.0  0.25938  0.79379  0.98215  1.0000
  C   C71       1.0  0.21708000000000005  0.82931  0.93127  1.0000
  C   C72       1.0  0.5349500000000003  0.72284  0.54994  1.0000
  C   C73       1.0  0.9265600000000002  0.3821500000000001  0.6098  1.0000
  C   C74       1.0  0.03157999999999996  0.21013  0.92936  1.0000
  C   C75       1.0  0.54996  0.53496  0.72284  1.0000
  C   C76       1.0  0.12150000000000001  0.6163800000000001  0.85339  1.0000
  C   C77       1.0  0.21098000000000008  0.8725500000000003  0.43393  1.0000
  C   C78       1.0  0.6650700000000003  0.31435  0.79009  1.0000
  C   C79       1.0  0.21211  0.39128  0.7573  1.0000
  C   C80       1.0  0.6605300000000001  0.8695000000000003  0.39569  1.0000
  C   C81       1.0  0.30529  0.22501000000000002  0.9437199999999999  1.0000
  C   C82       1.0  0.17852000000000007  0.6629  0.31921  1.0000
  C   C83       1.0  0.56937  0.24681  0.23706  1.0000
  C   C84       1.0  0.31922  0.17853  0.6629  1.0000
  C   C85       1.0  0.7573200000000001  0.21207  0.3913  1.0000
  C   C86       1.0  0.51155  0.2675500000000001  0.18853  1.0000
  C   C87       1.0  0.64523  0.71082  0.06372  1.0000
  C   C88       1.0  0.45413000000000003  0.33427  0.50587  1.0000
  C   C89       1.0  0.8725500000000003  0.43397  0.21103  1.0000
  C   C90       1.0  0.27235999999999994  0.6032799999999999  0.51523  1.0000
  C   C91       1.0  0.95573  0.19127000000000002  0.89655  1.0000
  C   C92       1.0  0.017870000000000007  0.74062  0.20622  1.0000
  C   C93       1.0  0.33426  0.50594  0.45415999999999995  1.0000
  C   C94       1.0  0.04427000000000003  0.8087300000000002  0.10345  1.0000
  C   C95       1.0  0.9437  0.30533  0.22511  1.0000
  C   C96       1.0  0.27288  0.23212000000000002  0.64467  1.0000
  C   C97       1.0  0.13544  0.52839  0.31366  1.0000
  C   C98       1.0  0.06372  0.6451900000000002  0.71073  1.0000
  C   C99       1.0  0.4884500000000001  0.7324400000000002  0.81146  1.0000
  C   C100      1.0  0.18005000000000004  0.99987  0.05677999999999999  1.0000
  C   C101      1.0  0.89523  0.08332  0.25483  1.0000
  C   C102      1.0  0.69471  0.7749900000000002  0.05628  1.0000
  C   C103      1.0  0.1707200000000001  0.06875000000000002  0.78291  1.0000
  C   C104      1.0  0.43062000000000006  0.7531800000000001  0.76293  1.0000
  C   C105      1.0  0.93124  0.21708  0.8293  1.0000
  C   C106      1.0  0.10476000000000003  0.9166800000000002  0.74517  1.0000
  C   C107      1.0  0.47875000000000006  0.33234  0.58187  1.0000
  C   C108      1.0  0.9821200000000001  0.25938000000000005  0.79377  1.0000
  C   C109      1.0  0.78986  0.07062000000000003  0.9684  1.0000
  C   C110      1.0  0.78467  0.45177  0.47301  1.0000
  C   C111      1.0  0.09852  0.58056  0.71765  1.0000
  C   C112      1.0  0.14655  0.8785000000000001  0.38356  1.0000
  C   C113      1.0  0.46505  0.27716000000000013  0.45006  1.0000
  C   C114      1.0  0.7228500000000001  0.54988  0.5349  1.0000
  C   C115      1.0  0.8214700000000003  0.33709  0.68078  1.0000
  C   C116      1.0  0.33492  0.68564  0.20991  1.0000
  C   C117      1.0  0.05677  0.18005000000000002  0.9998699999999999  1.0000
  C   C118      1.0  0.4716000000000001  0.6863500000000002  0.86455  1.0000
  C   C119      1.0  0.23211  0.64466  0.27289  1.0000
  C   C120      1.0  0.6498600000000002  0.18198  0.82075  1.0000
  C   C121      1.0  0.72764  0.39671  0.48477  1.0000
  C   C122      1.0  0.94323  0.81995  0.00013  1.0000
  C   C123      1.0  0.31365  0.13548000000000004  0.5284  1.0000
  C   C124      1.0  0.64468  0.27288  0.23212  1.0000
  C   C125      1.0  0.7451400000000001  0.10475000000000001  0.91666  1.0000
  C   C126      1.0  0.38215000000000005  0.6097900000000002  0.9265500000000001  1.0000
  C   C127      1.0  0.49414  0.54587  0.66571  1.0000
  C   C128      1.0  0.96841  0.78987  0.07063  1.0000
  C   C129      1.0  0.5458700000000002  0.66572  0.49413  1.0000
  C   C130      1.0  0.41813  0.52123  0.66763  1.0000
  C   C131      1.0  0.3501400000000002  0.81802  0.17924  1.0000
  C   C132      1.0  0.7629500000000002  0.43064  0.75317  1.0000
  C   C133      1.0  0.7823500000000002  0.52824  0.4985399999999999  1.0000
  C   C134      1.0  0.54831  0.26566  0.83513  1.0000
  C   C135      1.0  0.7901100000000002  0.66509  0.31435  1.0000
  C   C136      1.0  0.8785  0.38361  0.14661  1.0000
  C   C137      1.0  0.35477  0.28918  0.9362799999999999  1.0000
  C   C138      1.0  0.21014  0.92937  0.0316  1.0000
  C   C139      1.0  0.22505000000000003  0.9437000000000001  0.30528  1.0000
  C   C140      1.0  0.7177000000000002  0.09851000000000001  0.5806  1.0000
  C   C141      1.0  0.19127000000000005  0.89656  0.95576  1.0000
  C   C142      1.0  0.72711  0.76787  0.35533  1.0000
  C   C143      1.0  0.82927  0.9312500000000001  0.21709  1.0000
  C   C144      1.0  0.36623000000000017  0.9635900000000001  0.34017  1.0000
  C   C145      1.0  0.74061  0.20621  0.01785  1.0000
  C   C146      1.0  0.50141  0.21765  0.4717100000000001  1.0000
  C   C147      1.0  0.48478  0.72761  0.39677  1.0000
  C   C148      1.0  0.52124  0.66765  0.41813  1.0000
  C   C149      1.0  0.73436  0.16481000000000004  0.45166000000000006  1.0000
  C   C150      1.0  0.6629200000000002  0.3192  0.17853  1.0000
  C   C151      1.0  0.33232  0.58194  0.4787699999999999  1.0000
  C   C152      1.0  0.8534500000000003  0.1215  0.61643  1.0000
  C   C153      1.0  0.9014800000000001  0.4194400000000001  0.28235  1.0000
  C   C154      1.0  0.78292  0.17068  0.06872  1.0000
  C   C155      1.0  0.68635  0.86451  0.4716  1.0000
  C   C156      1.0  0.6856600000000003  0.20988  0.33492  1.0000
  C   C157      1.0  0.27715  0.45012  0.46510000000000007  1.0000
  C   C158      1.0  0.7678800000000002  0.35534000000000004  0.72711  1.0000
  C   C159      1.0  0.7858300000000003  0.29434  0.42709  1.0000
  C   C160      1.0  0.58187  0.47876  0.33237  1.0000
  C   C161      1.0  0.08333000000000004  0.25484  0.89523  1.0000
  C   C162      1.0  0.3394700000000001  0.13049  0.6043  1.0000
  C   C163      1.0  0.28922  0.9362700000000002  0.35477  1.0000
  C   C164      1.0  0.18195000000000003  0.8207700000000001  0.64987  1.0000
  C   C165      1.0  0.6337700000000002  0.03640999999999999  0.65982  1.0000
  C   C166      1.0  0.57289  0.21419  0.70562  1.0000
  C   C167      1.0  0.25486  0.8952400000000001  0.08334  1.0000
  C   C168      1.0  0.41576000000000013  0.5113900000000002  0.15348  1.0000
  C   C169      1.0  0.47306  0.78465  0.45181999999999994  1.0000
  C   C170      1.0  0.84607  0.08536  0.67949  1.0000
  C   C171      1.0  0.8965200000000002  0.9557300000000002  0.19126  1.0000
  C   C172      1.0  0.5806  0.71773  0.09851  1.0000
  C   C173      1.0  0.7107700000000002  0.06372000000000001  0.64523  1.0000
  C   C174      1.0  0.7324500000000003  0.8114400000000003  0.48844  1.0000
  C   C175      1.0  0.12745  0.56603  0.78897  1.0000
  C   C176      1.0  0.9417400000000001  0.72194  0.17338  1.0000
  C   C177      1.0  0.3205400000000001  0.15390000000000006  0.9146400000000001  1.0000
  C   C178      1.0  0.6086900000000003  0.24270000000000005  0.78789  1.0000
  C   C179      1.0  0.05825000000000002  0.2780500000000001  0.82662  1.0000
  C   C180      1.0  0.49858  0.78234  0.52828  1.0000
  C   C181      1.0  0.75319  0.76293  0.43062  1.0000
  C   C182      1.0  0.81994  0.00011999999999999157  0.9432199999999998  1.0000
  C   C183      1.0  0.43394  0.21097  0.87255  1.0000
  C   C184      1.0  0.65977  0.6338  0.03643  1.0000
  C   C185      1.0  0.8645600000000001  0.4716  0.68634  1.0000
  C   C186      1.0  0.26563  0.83518  0.54834  1.0000
  C   C187      1.0  0.79376  0.98213  0.25939  1.0000
  C   C188      1.0  0.39677  0.48477000000000003  0.72758  1.0000
  C   C189      1.0  0.47169  0.50139  0.21765  1.0000
  C   C190      1.0  0.6032200000000002  0.51522  0.27241  1.0000
  C   C191      1.0  0.61785  0.3902  0.07345  1.0000
  C   C192      1.0  0.68077  0.8214700000000003  0.33709  1.0000
  C   C193      1.0  0.15393  0.91464  0.32051  1.0000
  C   C194      1.0  0.66767  0.41806  0.52122  1.0000
  C   C195      1.0  0.34022000000000013  0.3662000000000001  0.9635600000000001  1.0000
  C   C196      1.0  0.08536  0.67944  0.84601  1.0000
  C   C197      1.0  0.21416000000000002  0.70566  0.57291  1.0000
  C   C198      1.0  0.31433000000000005  0.7901200000000004  0.66508  1.0000
  O   O1        1.0  0.31882  0.78549  0.103  1.0000
  O   O2        1.0  0.9405300000000001  0.31435  0.58975  1.0000
  O   O3        1.0  0.62249  0.007750000000000005  0.71898  1.0000
  O   O4        1.0  0.8506900000000002  0.6545699999999999  0.51147  1.0000
  O   O5        1.0  0.61184  0.57674  0.04505  1.0000
  O   O6        1.0  0.7855  0.10298000000000002  0.31882  1.0000
  O   O7        1.0  0.98895  0.8701  0.9775800000000001  1.0000
  O   O8        1.0  0.54434  0.09995000000000002  0.44034  1.0000
  O   O9        1.0  0.45566  0.90005  0.55966  1.0000
  O   O10       1.0  0.8701000000000001  0.97758  0.98895  1.0000
  O   O11       1.0  0.27839  0.70438  0.25538  1.0000
  O   O12       1.0  0.011040000000000005  0.12990000000000002  0.02241  1.0000
  O   O13       1.0  0.4953100000000001  0.19942  0.83728  1.0000
  O   O14       1.0  0.99225  0.28101  0.37752  1.0000
  O   O15       1.0  0.58924  0.9597600000000001  0.44041  1.0000
  O   O16       1.0  0.4404100000000002  0.5892400000000001  0.9597500000000001  1.0000
  O   O17       1.0  0.10298  0.31882  0.78549  1.0000
  O   O18       1.0  0.19940000000000002  0.83728  0.4953  1.0000
  O   O19       1.0  0.04023999999999999  0.55958  0.41076  1.0000
  O   O20       1.0  0.8006000000000003  0.16271000000000005  0.5047  1.0000
  O   O21       1.0  0.67893  0.5368800000000001  0.27484  1.0000
  O   O22       1.0  0.7446200000000001  0.72162  0.2956  1.0000
  O   O23       1.0  0.44032  0.54439  0.09997  1.0000
  O   O24       1.0  0.2955900000000001  0.74462  0.7216  1.0000
  O   O25       1.0  0.37751  0.99225  0.28102  1.0000
  O   O26       1.0  0.6811700000000003  0.2145100000000001  0.897  1.0000
  O   O27       1.0  0.044970000000000024  0.61192  0.57666  1.0000
  O   O28       1.0  0.5114800000000003  0.8506900000000001  0.65459  1.0000
  O   O29       1.0  0.32107  0.46311  0.72516  1.0000
  O   O30       1.0  0.09989999999999999  0.44035  0.54428  1.0000
  O   O31       1.0  0.8773100000000001  0.79581  0.9630300000000002  1.0000
  O   O32       1.0  0.9630300000000003  0.8773200000000002  0.79583  1.0000
  O   O33       1.0  0.12269  0.20418000000000003  0.03697  1.0000
  O   O34       1.0  0.27476  0.6789900000000001  0.53684  1.0000
  O   O35       1.0  0.58974  0.94052  0.31436  1.0000
  O   O36       1.0  0.41026000000000007  0.05947000000000003  0.68564  1.0000
  O   O37       1.0  0.3143400000000001  0.5897300000000002  0.9405099999999998  1.0000
  O   O38       1.0  0.6856500000000001  0.4102700000000001  0.059489999999999994  1.0000
  O   O39       1.0  0.7189400000000001  0.6225  0.0078  1.0000
  O   O40       1.0  0.1299  0.022420000000000002  0.01105  1.0000
  O   O41       1.0  0.7252300000000003  0.32101  0.46316000000000007  1.0000
  O   O42       1.0  0.007740000000000021  0.7189900000000001  0.62248  1.0000
  O   O43       1.0  0.21450000000000005  0.89702  0.68118  1.0000
  O   O44       1.0  0.83729  0.49535000000000007  0.19944  1.0000
  O   O45       1.0  0.5595800000000001  0.41076  0.04025  1.0000
  O   O46       1.0  0.28106  0.3775  0.9922  1.0000
  O   O47       1.0  0.05946  0.68564  0.41024  1.0000
  O   O48       1.0  0.53685  0.2748  0.67893  1.0000
  O   O49       1.0  0.48851000000000006  0.14931  0.34541  1.0000
  O   O50       1.0  0.57669  0.045030000000000014  0.61191  1.0000
  O   O51       1.0  0.46314  0.7252000000000001  0.32107  1.0000
  O   O52       1.0  0.9000900000000001  0.5596400000000004  0.45571  1.0000
  O   O53       1.0  0.7216000000000001  0.29562  0.74462  1.0000
  O   O54       1.0  0.7044000000000001  0.25537  0.2784  1.0000
  O   O55       1.0  0.16271  0.50465  0.80056  1.0000
  O   O56       1.0  0.20419000000000007  0.03697  0.12268999999999998  1.0000
  O   O57       1.0  0.1493  0.34543  0.48852999999999996  1.0000
  O   O58       1.0  0.79581  0.9630300000000002  0.87731  1.0000
  O   O59       1.0  0.65461  0.51151  0.85074  1.0000
  O   O60       1.0  0.022420000000000006  0.011040000000000003  0.1299  1.0000
  O   O61       1.0  0.5596700000000002  0.45560000000000006  0.90002  1.0000
  O   O62       1.0  0.8970100000000001  0.68117  0.21451  1.0000
  O   O63       1.0  0.9550200000000001  0.3880800000000001  0.42333  1.0000
  O   O64       1.0  0.97758  0.9889600000000001  0.8701  1.0000
  O   O65       1.0  0.4233  0.9549700000000001  0.38809  1.0000
  O   O66       1.0  0.5046800000000002  0.80058  0.16272  1.0000
  O   O67       1.0  0.9597500000000001  0.44041000000000013  0.58923  1.0000
  O   O68       1.0  0.38816000000000006  0.42325000000000007  0.95494  1.0000
  O   O69       1.0  0.03696000000000001  0.12267000000000002  0.20417  1.0000
  O   O70       1.0  0.41076  0.04024000000000001  0.55958  1.0000
  O   O71       1.0  0.34538000000000013  0.48849  0.14925  1.0000
  O   O72       1.0  0.25538  0.2783800000000001  0.70439  1.0000
