data_image0
_chemical_formula_structural       Co12H136C216N16O48
_chemical_formula_sum              "Co12 H136 C216 N16 O48"
_cell_length_a       13.92024
_cell_length_b       23.65313
_cell_length_c       25.568040000000003
_cell_angle_alpha    64.58577000000001
_cell_angle_beta     74.10462
_cell_angle_gamma    72.53935

_symmetry_space_group_name_H-M    'P 1'
_symmetry_Int_Tables_number       1

loop_
  _symmetry_equiv_pos_as_xyz
  'x,y,z'

loop_
  _atom_site_type_symbol
  _atom_site_label
  _atom_site_symmetry_multiplicity
  _atom_site_fract_x
  _atom_site_fract_y
  _atom_site_fract_z
  _atom_site_occupancy
  Co  Co1       1.0  0.62285  0.4949  0.75762  1.0000
  Co  Co2       1.0  0.54568  0.5994300000000001  0.83508  1.0000
  Co  Co3       1.0  0.6873700000000004  0.39987999999999996  0.68946  1.0000
  Co  Co4       1.0  0.12235999999999987  0.9955600000000001  0.2582  1.0000
  Co  Co5       1.0  0.01648  0.09995  0.33454  1.0000
  Co  Co6       1.0  0.22599000000000002  0.89932  0.18967  1.0000
  Co  Co7       1.0  0.8778700000000002  0.005069999999999936  0.7423100000000001  1.0000
  Co  Co8       1.0  0.9835999999999998  0.90003  0.66533  1.0000
  Co  Co9       1.0  0.77393  0.10049000000000002  0.81021  1.0000
  Co  Co10      1.0  0.37725  0.5051099999999998  0.24233  1.0000
  Co  Co11      1.0  0.4543499999999999  0.4005200000000001  0.16495  1.0000
  Co  Co12      1.0  0.3127100000000001  0.6002799999999999  0.31045  1.0000
  H   H1        1.0  0.84668  0.45971000000000006  0.7843499999999999  1.0000
  H   H2        1.0  0.03486000000000002  0.4243100000000001  0.77032  1.0000
  H   H3        1.0  0.06039000000000008  0.59  0.7921199999999999  1.0000
  H   H4        1.0  0.8719399999999999  0.62556  0.80465  1.0000
  H   H5        1.0  0.21103999999999984  0.5741000000000002  0.7418200000000001  1.0000
  H   H6        1.0  0.3983899999999996  0.5343000000000002  0.72707  1.0000
  H   H7        1.0  0.35606999999999994  0.34184  0.791  1.0000
  H   H8        1.0  0.16813  0.3803000000000001  0.80902  1.0000
  H   H9        1.0  0.4283100000000002  0.76129  0.69992  1.0000
  H   H10       1.0  0.34922999999999954  0.8471000000000002  0.61534  1.0000
  H   H11       1.0  0.3778899999999998  0.70685  0.54352  1.0000
  H   H12       1.0  0.4618499999999998  0.62251  0.62661  1.0000
  H   H13       1.0  0.21247999999999997  0.89042  0.5727  1.0000
  H   H14       1.0  0.12960999999999998  0.9727  0.4892099999999999  1.0000
  H   H15       1.0  0.31345999999999996  0.8744300000000002  0.37661  1.0000
  H   H16       1.0  0.39842  0.791  0.4600600000000001  1.0000
  H   H17       1.0  0.5304999999999999  0.73487  0.84658  1.0000
  H   H18       1.0  0.39614999999999984  0.7290600000000003  0.030670000000000003  1.0000
  H   H19       1.0  0.2721799999999999  0.9169100000000001  0.05585  1.0000
  H   H20       1.0  0.3927699999999999  0.7655700000000001  0.20108000000000004  1.0000
  H   H21       1.0  0.46195  0.73057  0.10513  1.0000
  H   H22       1.0  0.3914299999999999  0.9311400000000001  0.9629799999999998  1.0000
  H   H23       1.0  0.41236000000000006  0.93653  0.86132  1.0000
  H   H24       1.0  0.4235499999999999  0.8391700000000001  0.84404  1.0000
  H   H25       1.0  0.32193999999999995  0.67209  0.00466  1.0000
  H   H26       1.0  0.3788999999999999  0.5829  0.95141  1.0000
  H   H27       1.0  0.8365899999999996  0.22984000000000002  0.81079  1.0000
  H   H28       1.0  0.9048099999999999  0.1428500000000001  0.89722  1.0000
  H   H29       1.0  0.8607400000000001  0.27943  0.97618  1.0000
  H   H30       1.0  0.7847600000000001  0.3656499999999999  0.89056  1.0000
  H   H31       1.0  0.02869000000000003  0.09585000000000003  0.94587  1.0000
  H   H32       1.0  0.8427199999999999  0.19643000000000005  0.05766  1.0000
  H   H33       1.0  0.10782  0.01232  0.03053  1.0000
  H   H34       1.0  0.92716  0.11361  0.14122  1.0000
  H   H35       1.0  0.90902  0.9597700000000001  0.28535  1.0000
  H   H36       1.0  0.7714900000000001  0.92433  0.27075  1.0000
  H   H37       1.0  0.5546099999999998  0.09022  0.29204  1.0000
  H   H38       1.0  0.6940499999999997  0.12579  0.30491  1.0000
  H   H39       1.0  0.47189000000000003  0.07432000000000001  0.24139  1.0000
  H   H40       1.0  0.33974  0.034519999999999995  0.22668  1.0000
  H   H41       1.0  0.5133999999999997  0.8421000000000001  0.291  1.0000
  H   H42       1.0  0.6443199999999999  0.88049  0.30899  1.0000
  H   H43       1.0  0.11020000000000002  0.26103  0.20029  1.0000
  H   H44       1.0  0.18758999999999998  0.34683  0.11612000000000001  1.0000
  H   H45       1.0  0.37253  0.207  0.04332  1.0000
  H   H46       1.0  0.28983  0.12288000000000003  0.1258  1.0000
  H   H47       1.0  0.32409999999999983  0.3899700000000001  0.07335  1.0000
  H   H48       1.0  0.40736  0.47213  0.98997  1.0000
  H   H49       1.0  0.43473999999999985  0.37478000000000006  0.8769800000000001  1.0000
  H   H50       1.0  0.3504399999999998  0.29156  0.96019  1.0000
  H   H51       1.0  0.88485  0.23591999999999996  0.34663  1.0000
  H   H52       1.0  0.8441799999999999  0.22912  0.53053  1.0000
  H   H53       1.0  0.7563199999999995  0.41700000000000004  0.55523  1.0000
  H   H54       1.0  0.64163  0.2671300000000001  0.70116  1.0000
  H   H55       1.0  0.70144  0.23185  0.60544  1.0000
  H   H56       1.0  0.71391  0.43166999999999994  0.4629400000000001  1.0000
  H   H57       1.0  0.78933  0.43703  0.36125  1.0000
  H   H58       1.0  0.8931999999999995  0.3393800000000001  0.34392  1.0000
  H   H59       1.0  0.003080000000000012  0.17134000000000002  0.50357  1.0000
  H   H60       1.0  0.08579000000000002  0.08214  0.45006  1.0000
  H   H61       1.0  0.12269999999999993  0.73027  0.31027  1.0000
  H   H62       1.0  0.05515999999999996  0.6433700000000001  0.3962  1.0000
  H   H63       1.0  0.8834799999999998  0.7792800000000002  0.47645000000000004  1.0000
  H   H64       1.0  0.9587799999999996  0.8653300000000002  0.39132  1.0000
  H   H65       1.0  0.92992  0.5964100000000002  0.44517000000000007  1.0000
  H   H66       1.0  0.9031499999999996  0.6961600000000001  0.55737  1.0000
  H   H67       1.0  0.8504799999999996  0.5129900000000001  0.52966  1.0000
  H   H68       1.0  0.8182000000000001  0.61364  0.64067  1.0000
  H   H69       1.0  0.09085999999999998  0.04044999999999997  0.7143600000000001  1.0000
  H   H70       1.0  0.22834999999999997  0.07572999999999998  0.72922  1.0000
  H   H71       1.0  0.4450899999999997  0.9097100000000002  0.70808  1.0000
  H   H72       1.0  0.3055099999999996  0.8742  0.69522  1.0000
  H   H73       1.0  0.5279599999999998  0.9256200000000001  0.7584900000000001  1.0000
  H   H74       1.0  0.65989  0.9653400000000002  0.77358  1.0000
  H   H75       1.0  0.4863799999999998  0.15782999999999997  0.7091000000000001  1.0000
  H   H76       1.0  0.35569999999999996  0.11948999999999999  0.69087  1.0000
  H   H77       1.0  0.8898100000000002  0.7391000000000001  0.7996199999999999  1.0000
  H   H78       1.0  0.8124599999999997  0.6532499999999999  0.8837500000000001  1.0000
  H   H79       1.0  0.6273299999999997  0.7929400000000003  0.9566499999999999  1.0000
  H   H80       1.0  0.7100999999999998  0.8771200000000001  0.87418  1.0000
  H   H81       1.0  0.6759599999999999  0.6099700000000001  0.92664  1.0000
  H   H82       1.0  0.5926499999999999  0.52784  0.01002  1.0000
  H   H83       1.0  0.56529  0.62524  0.12296999999999998  1.0000
  H   H84       1.0  0.64963  0.70842  0.03976  1.0000
  H   H85       1.0  0.11475000000000002  0.7640100000000001  0.65348  1.0000
  H   H86       1.0  0.15585999999999997  0.7708900000000001  0.46948  1.0000
  H   H87       1.0  0.24367000000000003  0.58302  0.44477  1.0000
  H   H88       1.0  0.35838999999999965  0.7329000000000006  0.29885  1.0000
  H   H89       1.0  0.2985799999999999  0.7681600000000001  0.39457  1.0000
  H   H90       1.0  0.28608  0.5683300000000001  0.53707  1.0000
  H   H91       1.0  0.21066  0.56298  0.63876  1.0000
  H   H92       1.0  0.10681000000000015  0.6606399999999999  0.65607  1.0000
  H   H93       1.0  0.9970899999999998  0.8286700000000002  0.49634999999999996  1.0000
  H   H94       1.0  0.9138999999999998  0.91775  0.54996  1.0000
  H   H95       1.0  0.8774699999999999  0.2700400000000001  0.68967  1.0000
  H   H96       1.0  0.9448599999999996  0.35708000000000006  0.60361  1.0000
  H   H97       1.0  0.1168  0.22119999999999998  0.52331  1.0000
  H   H98       1.0  0.04138000000000003  0.13516  0.60853  1.0000
  H   H99       1.0  0.07019  0.40392999999999996  0.55463  1.0000
  H   H100      1.0  0.09671999999999994  0.3041  0.44256  1.0000
  H   H101      1.0  0.14975999999999998  0.48729  0.47009  1.0000
  H   H102      1.0  0.18187  0.38650000000000007  0.3592  1.0000
  H   H103      1.0  0.15333  0.54028  0.21564  1.0000
  H   H104      1.0  0.96515  0.57569  0.22968  1.0000
  H   H105      1.0  0.93961  0.41  0.20787  1.0000
  H   H106      1.0  0.12805999999999992  0.3744300000000001  0.19535  1.0000
  H   H107      1.0  0.7889599999999998  0.4259  0.25818  1.0000
  H   H108      1.0  0.6015999999999999  0.4657100000000001  0.27293  1.0000
  H   H109      1.0  0.6439499999999998  0.6581600000000001  0.20899  1.0000
  H   H110      1.0  0.8319  0.6197  0.19097  1.0000
  H   H111      1.0  0.5718499999999997  0.23859000000000002  0.30022  1.0000
  H   H112      1.0  0.65084  0.15282000000000004  0.3848  1.0000
  H   H113      1.0  0.6220699999999998  0.29315000000000013  0.45658  1.0000
  H   H114      1.0  0.5382199999999997  0.37744000000000016  0.37344  1.0000
  H   H115      1.0  0.7875099999999996  0.10939999999999997  0.42769000000000007  1.0000
  H   H116      1.0  0.8703499999999998  0.027290000000000002  0.51122  1.0000
  H   H117      1.0  0.6863899999999998  0.12571000000000002  0.62371  1.0000
  H   H118      1.0  0.6015999999999998  0.20894999999999997  0.54022  1.0000
  H   H119      1.0  0.46952999999999984  0.26511  0.15342  1.0000
  H   H120      1.0  0.6038499999999998  0.27095  0.96932  1.0000
  H   H121      1.0  0.7279  0.08318000000000003  0.9441  1.0000
  H   H122      1.0  0.6072099999999999  0.23449999999999996  0.7989000000000002  1.0000
  H   H123      1.0  0.53796  0.26944  0.89487  1.0000
  H   H124      1.0  0.6085699999999999  0.06888  0.03699  1.0000
  H   H125      1.0  0.5876699999999998  0.06347  0.13866  1.0000
  H   H126      1.0  0.57649  0.16081  0.15595  1.0000
  H   H127      1.0  0.6780700000000003  0.3279100000000001  0.99534  1.0000
  H   H128      1.0  0.6211  0.4171000000000001  0.048600000000000004  1.0000
  H   H129      1.0  0.16340000000000007  0.77015  0.18917  1.0000
  H   H130      1.0  0.09529999999999986  0.8571300000000002  0.1027  1.0000
  H   H131      1.0  0.1393599999999999  0.7205100000000002  0.023759999999999996  1.0000
  H   H132      1.0  0.21526999999999996  0.6343  0.10944  1.0000
  H   H133      1.0  0.9715399999999998  0.90391  0.05435  1.0000
  H   H134      1.0  0.1570599999999999  0.8036100000000003  0.94221  1.0000
  H   H135      1.0  0.8921600000000001  0.98759  0.96987  1.0000
  H   H136      1.0  0.07246999999999997  0.8866200000000002  0.8587899999999999  1.0000
  C   C1        1.0  0.7349099999999998  0.5634600000000001  0.8082  1.0000
  C   C2        1.0  0.8473900000000001  0.54441  0.7963000000000001  1.0000
  C   C3        1.0  0.8941599999999997  0.4879000000000003  0.7859  1.0000
  C   C4        1.0  0.9999400000000002  0.46807000000000004  0.77858  1.0000
  C   C5        1.0  0.062470000000000046  0.5036899999999999  0.7811200000000001  1.0000
  C   C6        1.0  0.014530000000000008  0.56149  0.78964  1.0000
  C   C7        1.0  0.9086900000000001  0.5814  0.79734  1.0000
  C   C8        1.0  0.1745199999999999  0.48054000000000013  0.77489  1.0000
  C   C9        1.0  0.24166000000000007  0.52299  0.7532  1.0000
  C   C10       1.0  0.3472  0.50111  0.74427  1.0000
  C   C11       1.0  0.38867  0.43565000000000004  0.75697  1.0000
  C   C12       1.0  0.49984999999999985  0.4114200000000003  0.7427099999999999  1.0000
  C   C13       1.0  0.3229099999999997  0.3925500000000001  0.78062  1.0000
  C   C14       1.0  0.21766999999999992  0.41459000000000007  0.78976  1.0000
  C   C15       1.0  0.4974600000000002  0.63572  0.71921  1.0000
  C   C16       1.0  0.44997999999999966  0.68679  0.66843  1.0000
  C   C17       1.0  0.4172600000000001  0.7503  0.66508  1.0000
  C   C18       1.0  0.37273  0.79793  0.61786  1.0000
  C   C19       1.0  0.3585199999999999  0.7834400000000001  0.57283  1.0000
  C   C20       1.0  0.39084  0.71944  0.57688  1.0000
  C   C21       1.0  0.43646  0.6718000000000001  0.62377  1.0000
  C   C22       1.0  0.31079  0.83388  0.52284  1.0000
  C   C23       1.0  0.23600999999999994  0.88667  0.52984  1.0000
  C   C24       1.0  0.18896999999999992  0.9330100000000001  0.48295  1.0000
  C   C25       1.0  0.21555999999999997  0.9284500000000001  0.42763  1.0000
  C   C26       1.0  0.16370999999999986  0.9766900000000001  0.3773599999999999  1.0000
  C   C27       1.0  0.2915799999999996  0.8767100000000002  0.42001000000000005  1.0000
  C   C28       1.0  0.33835999999999994  0.83022  0.46687  1.0000
  C   C29       1.0  0.4793899999999995  0.7061700000000002  0.88068  1.0000
  C   C30       1.0  0.41316  0.7780700000000002  0.93635  1.0000
  C   C31       1.0  0.39983  0.77435  0.99377  1.0000
  C   C32       1.0  0.39036999999999983  0.8298900000000002  0.00307  1.0000
  C   C33       1.0  0.31681999999999994  0.8725700000000001  0.08202  1.0000
  C   C34       1.0  0.37897  0.79231  0.15643  1.0000
  C   C35       1.0  0.41420999999999997  0.7743800000000001  0.10916  1.0000
  C   C36       1.0  0.39599  0.88839  0.9555800000000001  1.0000
  C   C37       1.0  0.4083399999999998  0.89125  0.8985100000000001  1.0000
  C   C38       1.0  0.41655999999999993  0.83636  0.88846  1.0000
  C   C39       1.0  0.37186999999999987  0.67148  0.9642  1.0000
  C   C40       1.0  0.40045999999999987  0.6281000000000002  0.93771  1.0000
  C   C41       1.0  0.75889  0.35384  0.79468  1.0000
  C   C42       1.0  0.8050499999999995  0.3029300000000001  0.84573  1.0000
  C   C43       1.0  0.8411  0.24010000000000012  0.84755  1.0000
  C   C44       1.0  0.8802099999999997  0.19148000000000007  0.8962  1.0000
  C   C45       1.0  0.8867099999999999  0.20431000000000002  0.9439799999999999  1.0000
  C   C46       1.0  0.8525899999999996  0.26797000000000004  0.94092  1.0000
  C   C47       1.0  0.8114500000000001  0.31655000000000005  0.89281  1.0000
  C   C48       1.0  0.9304099999999998  0.15309000000000011  0.99506  1.0000
  C   C49       1.0  0.0043500000000000275  0.09971000000000003  0.9886199999999999  1.0000
  C   C50       1.0  0.90185  0.15674  0.05107  1.0000
  C   C51       1.0  0.07726  0.010310000000000001  0.13997  1.0000
  C   C52       1.0  0.023150000000000007  0.05816999999999999  0.09081  1.0000
  C   C53       1.0  0.04970999999999999  0.05295  0.0358  1.0000
  C   C54       1.0  0.94792  0.11029  0.09824  1.0000
  C   C55       1.0  0.8905599999999999  0.06368  0.3085  1.0000
  C   C56       1.0  0.80963  0.04462  0.29665  1.0000
  C   C57       1.0  0.8312599999999999  0.9879800000000001  0.28644  1.0000
  C   C58       1.0  0.7533399999999997  0.9681800000000002  0.27887  1.0000
  C   C59       1.0  0.6520199999999998  0.003920000000000002  0.2811  1.0000
  C   C60       1.0  0.6320800000000001  0.06175000000000002  0.28963  1.0000
  C   C61       1.0  0.70966  0.08167000000000002  0.29753  1.0000
  C   C62       1.0  0.5700699999999996  0.98071  0.27475  1.0000
  C   C63       1.0  0.48166999999999993  0.02321  0.25293  1.0000
  C   C64       1.0  0.4073499999999999  0.0013800000000000112  0.24401  1.0000
  C   C65       1.0  0.41977999999999993  0.9359500000000001  0.25675  1.0000
  C   C66       1.0  0.34801  0.91156  0.2423  1.0000
  C   C67       1.0  0.50552  0.89279  0.28057  1.0000
  C   C68       1.0  0.5791699999999996  0.9147599999999999  0.28973  1.0000
  C   C69       1.0  0.14665  0.13539999999999996  0.21817  1.0000
  C   C70       1.0  0.19465999999999994  0.1867  0.1682  1.0000
  C   C71       1.0  0.16719  0.25003  0.16535  1.0000
  C   C72       1.0  0.21125000000000002  0.29771  0.11841  1.0000
  C   C73       1.0  0.28524999999999995  0.28347  0.07314  1.0000
  C   C74       1.0  0.3133799999999999  0.21959  0.0768  1.0000
  C   C75       1.0  0.26841999999999994  0.17201000000000002  0.12335  1.0000
  C   C76       1.0  0.33214  0.33393  0.023279999999999995  1.0000
  C   C77       1.0  0.34698  0.38642  0.0304  1.0000
  C   C78       1.0  0.39413000000000004  0.43272  0.9835300000000001  1.0000
  C   C79       1.0  0.4271599999999998  0.42835  0.9281200000000001  1.0000
  C   C80       1.0  0.4804399999999999  0.47637  0.87758  1.0000
  C   C81       1.0  0.41083000000000003  0.37687999999999994  0.92044  1.0000
  C   C82       1.0  0.3641  0.3305  0.96722  1.0000
  C   C83       1.0  0.9315300000000001  0.20672  0.38037000000000004  1.0000
  C   C84       1.0  0.8721599999999999  0.27828  0.4362  1.0000
  C   C85       1.0  0.8319299999999996  0.27453  0.49367999999999995  1.0000
  C   C86       1.0  0.77648  0.33023000000000013  0.50301  1.0000
  C   C87       1.0  0.7294199999999996  0.3730900000000001  0.5817  1.0000
  C   C88       1.0  0.67301  0.29357000000000005  0.65641  1.0000
  C   C89       1.0  0.70213  0.27547  0.60925  1.0000
  C   C90       1.0  0.7596699999999997  0.3888100000000001  0.45550999999999997  1.0000
  C   C91       1.0  0.80153  0.39168  0.39842  1.0000
  C   C92       1.0  0.8584200000000001  0.33666  0.38833  1.0000
  C   C93       1.0  0.9927199999999999  0.17107999999999998  0.46331000000000006  1.0000
  C   C94       1.0  0.03278999999999996  0.12775  0.43668  1.0000
  C   C95       1.0  0.09289000000000006  0.85427  0.2955  1.0000
  C   C96       1.0  0.046399999999999976  0.80305  0.3459  1.0000
  C   C97       1.0  0.07126000000000002  0.74047  0.34717  1.0000
  C   C98       1.0  0.03208999999999997  0.69185  0.39557  1.0000
  C   C99       1.0  0.9650599999999996  0.70439  0.44361999999999996  1.0000
  C   C100      1.0  0.93843  0.76787  0.44104  1.0000
  C   C101      1.0  0.9790799999999997  0.8163900000000001  0.39321  1.0000
  C   C102      1.0  0.9217399999999996  0.6531900000000002  0.49453  1.0000
  C   C103      1.0  0.9077599999999997  0.60007  0.48801000000000005  1.0000
  C   C104      1.0  0.89063  0.6567300000000001  0.55058  1.0000
  C   C105      1.0  0.7738799999999998  0.5110700000000002  0.64013  1.0000
  C   C106      1.0  0.8289099999999998  0.5584300000000002  0.5903  1.0000
  C   C107      1.0  0.8623999999999996  0.55332  0.53522  1.0000
  C   C108      1.0  0.8441399999999999  0.61043  0.59765  1.0000
  C   C109      1.0  0.10935999999999979  0.9365000000000006  0.69122  1.0000
  C   C110      1.0  0.19014999999999993  0.9554900000000001  0.70327  1.0000
  C   C111      1.0  0.1685499999999999  0.012129999999999948  0.7134500000000001  1.0000
  C   C112      1.0  0.24647999999999998  0.03187000000000008  0.7211099999999999  1.0000
  C   C113      1.0  0.34776999999999997  0.9960800000000001  0.71891  1.0000
  C   C114      1.0  0.3676399999999999  0.9382100000000001  0.7104500000000001  1.0000
  C   C115      1.0  0.29003999999999996  0.9183300000000001  0.70256  1.0000
  C   C116      1.0  0.42975  0.019249999999999996  0.72525  1.0000
  C   C117      1.0  0.5181  0.97671  0.74711  1.0000
  C   C118      1.0  0.5922499999999999  0.99847  0.75625  1.0000
  C   C119      1.0  0.5797  0.06390000000000005  0.74358  1.0000
  C   C120      1.0  0.65143  0.08816999999999996  0.7581  1.0000
  C   C121      1.0  0.49417999999999984  0.10712999999999998  0.7196  1.0000
  C   C122      1.0  0.42068000000000005  0.08518999999999996  0.71029  1.0000
  C   C123      1.0  0.8531299999999996  0.8649200000000001  0.78183  1.0000
  C   C124      1.0  0.8052399999999997  0.8134000000000002  0.8317500000000001  1.0000
  C   C125      1.0  0.83279  0.7500800000000001  0.83457  1.0000
  C   C126      1.0  0.78877  0.70235  0.8815  1.0000
  C   C127      1.0  0.7147800000000002  0.7165200000000002  0.9268  1.0000
  C   C128      1.0  0.68652  0.7803799999999999  0.92317  1.0000
  C   C129      1.0  0.73145  0.8279899999999998  0.8766400000000001  1.0000
  C   C130      1.0  0.66792  0.6660299999999999  0.9766800000000001  1.0000
  C   C131      1.0  0.6530599999999999  0.6135400000000001  0.96957  1.0000
  C   C132      1.0  0.6058999999999999  0.5672500000000001  0.01645  1.0000
  C   C133      1.0  0.57287  0.57164  0.07186  1.0000
  C   C134      1.0  0.5195899999999999  0.52362  0.12241000000000002  1.0000
  C   C135      1.0  0.5891999999999997  0.62312  0.07952  1.0000
  C   C136      1.0  0.6359499999999998  0.66948  0.03274  1.0000
  C   C137      1.0  0.06811999999999999  0.79319  0.61971  1.0000
  C   C138      1.0  0.12784999999999994  0.7217200000000003  0.5638  1.0000
  C   C139      1.0  0.16810000000000003  0.7254800000000001  0.50632  1.0000
  C   C140      1.0  0.22353999999999996  0.66977  0.497  1.0000
  C   C141      1.0  0.2705899999999999  0.6269300000000002  0.41830000000000006  1.0000
  C   C142      1.0  0.32702000000000003  0.70645  0.3436  1.0000
  C   C143      1.0  0.29789999999999994  0.72454  0.39076000000000005  1.0000
  C   C144      1.0  0.24034000000000008  0.6111899999999999  0.54449  1.0000
  C   C145      1.0  0.1984700000000001  0.60833  0.60158  1.0000
  C   C146      1.0  0.14159000000000002  0.66335  0.61167  1.0000
  C   C147      1.0  0.0072599999999998855  0.8288900000000002  0.53666  1.0000
  C   C148      1.0  0.9669299999999995  0.8721600000000002  0.56334  1.0000
  C   C149      1.0  0.90772  0.14568999999999993  0.7036900000000001  1.0000
  C   C150      1.0  0.9540199999999995  0.1974  0.65386  1.0000
  C   C151      1.0  0.92898  0.2599  0.65275  1.0000
  C   C152      1.0  0.96804  0.30856  0.60431  1.0000
  C   C153      1.0  0.03500999999999996  0.29605000000000004  0.55622  1.0000
  C   C154      1.0  0.061910000000000034  0.2326  0.55873  1.0000
  C   C155      1.0  0.02134999999999998  0.18412000000000003  0.60653  1.0000
  C   C156      1.0  0.07824000000000006  0.34719999999999995  0.50528  1.0000
  C   C157      1.0  0.09233000000000002  0.40028  0.51178  1.0000
  C   C158      1.0  0.10933999999999995  0.3435500000000001  0.44928  1.0000
  C   C159      1.0  0.22622999999999993  0.4890700000000001  0.35966  1.0000
  C   C160      1.0  0.17120999999999995  0.4417700000000001  0.40951  1.0000
  C   C161      1.0  0.13776999999999992  0.44697000000000014  0.46456000000000003  1.0000
  C   C162      1.0  0.15592999999999996  0.38977000000000006  0.40219000000000005  1.0000
  C   C163      1.0  0.2651  0.43653  0.1918  1.0000
  C   C164      1.0  0.15261999999999998  0.4555900000000001  0.20369  1.0000
  C   C165      1.0  0.10584999999999999  0.5121  0.2141  1.0000
  C   C166      1.0  7.000000000000715e-05  0.53193  0.22142  1.0000
  C   C167      1.0  0.937529999999999  0.49631000000000003  0.21888  1.0000
  C   C168      1.0  0.98547  0.4385000000000003  0.21036  1.0000
  C   C169      1.0  0.09131000000000003  0.4186  0.20265  1.0000
  C   C170      1.0  0.82548  0.51946  0.22511  1.0000
  C   C171      1.0  0.75834  0.47701  0.24680000000000002  1.0000
  C   C172      1.0  0.6528099999999999  0.4988900000000002  0.25572  1.0000
  C   C173      1.0  0.6113500000000001  0.56436  0.24301  1.0000
  C   C174      1.0  0.5001699999999999  0.5885900000000001  0.25726  1.0000
  C   C175      1.0  0.6771099999999997  0.6074600000000001  0.21936999999999998  1.0000
  C   C176      1.0  0.78235  0.58541  0.21024  1.0000
  C   C177      1.0  0.5025899999999999  0.36420000000000013  0.28085  1.0000
  C   C178      1.0  0.5501  0.3131399999999999  0.33165  1.0000
  C   C179      1.0  0.5828399999999997  0.24961000000000005  0.33506  1.0000
  C   C180      1.0  0.62731  0.20198000000000005  0.38232  1.0000
  C   C181      1.0  0.6414399999999998  0.21646999999999997  0.42739000000000005  1.0000
  C   C182      1.0  0.6091299999999997  0.28051  0.42325  1.0000
  C   C183      1.0  0.56359  0.32814  0.37631  1.0000
  C   C184      1.0  0.6891799999999996  0.16606999999999997  0.47745000000000004  1.0000
  C   C185      1.0  0.7639899999999997  0.11325000000000003  0.47052  1.0000
  C   C186      1.0  0.8109999999999997  0.06699  0.51745  1.0000
  C   C187      1.0  0.78447  0.07147000000000006  0.57284  1.0000
  C   C188      1.0  0.8364999999999999  0.02271  0.62292  1.0000
  C   C189      1.0  0.7084799999999998  0.12327000000000002  0.58037  1.0000
  C   C190      1.0  0.6617199999999998  0.16972999999999996  0.53344  1.0000
  C   C191      1.0  0.5206299999999998  0.2938200000000001  0.11931999999999998  1.0000
  C   C192      1.0  0.5868399999999996  0.22193  0.06365  1.0000
  C   C193      1.0  0.60016  0.22565  0.00622  1.0000
  C   C194      1.0  0.60961  0.17012000000000002  0.99691  1.0000
  C   C195      1.0  0.6832499999999997  0.1275  0.91791  1.0000
  C   C196      1.0  0.62106  0.20774000000000006  0.84353  1.0000
  C   C197      1.0  0.5857399999999998  0.22565  0.89081  1.0000
  C   C198      1.0  0.6039999999999998  0.11162000000000002  0.0444  1.0000
  C   C199      1.0  0.59166  0.10875  0.10147  1.0000
  C   C200      1.0  0.5834499999999999  0.16364000000000006  0.11153  1.0000
  C   C201      1.0  0.6281399999999999  0.32852  0.0358  1.0000
  C   C202      1.0  0.59955  0.37190000000000006  0.06229  1.0000
  C   C203      1.0  0.24116  0.64616  0.20526  1.0000
  C   C204      1.0  0.19496999999999978  0.6970500000000001  0.15422  1.0000
  C   C205      1.0  0.15894000000000003  0.75989  0.15241  1.0000
  C   C206      1.0  0.11988999999999984  0.8084900000000002  0.10374000000000001  1.0000
  C   C207      1.0  0.11340999999999983  0.7956300000000002  0.05598000000000001  1.0000
  C   C208      1.0  0.14750999999999986  0.73197  0.059030000000000006  1.0000
  C   C209      1.0  0.1885899999999998  0.68341  0.10715000000000001  1.0000
  C   C210      1.0  0.06962999999999994  0.8468600000000001  0.00494  1.0000
  C   C211      1.0  0.9957399999999997  0.9002100000000001  0.01152  1.0000
  C   C212      1.0  0.0980199999999999  0.8433100000000001  0.9488899999999999  1.0000
  C   C213      1.0  0.92241  0.9901400000000001  0.8603  1.0000
  C   C214      1.0  0.9765199999999997  0.94194  0.90933  1.0000
  C   C215      1.0  0.9501999999999996  0.9470200000000001  0.9644199999999999  1.0000
  C   C216      1.0  0.051749999999999956  0.88985  0.9018  1.0000
  N   N1        1.0  0.46757999999999983  0.65014  0.8858300000000001  1.0000
  N   N2        1.0  0.42151000000000005  0.72141  0.92735  1.0000
  N   N3        1.0  0.37555999999999995  0.82607  0.06168  1.0000
  N   N4        1.0  0.31800999999999985  0.8533800000000001  0.13911  1.0000
  N   N5        1.0  0.9939699999999999  0.15038000000000007  0.38516999999999996  1.0000
  N   N6        1.0  0.9290999999999997  0.22152000000000002  0.42695  1.0000
  N   N7        1.0  0.7367399999999998  0.32669  0.56158  1.0000
  N   N8        1.0  0.6907200000000001  0.35433  0.63881  1.0000
  N   N9        1.0  0.00555000000000002  0.8494799999999999  0.61493  1.0000
  N   N10       1.0  0.07083000000000005  0.77845  0.57305  1.0000
  N   N11       1.0  0.26327000000000006  0.67332  0.43842  1.0000
  N   N12       1.0  0.3092999999999999  0.6457000000000003  0.36119000000000007  1.0000
  N   N13       1.0  0.5324299999999997  0.34985  0.11417  1.0000
  N   N14       1.0  0.5785  0.27859000000000006  0.07264  1.0000
  N   N15       1.0  0.6244199999999998  0.17396  0.93828  1.0000
  N   N16       1.0  0.6820899999999995  0.14669000000000001  0.86081  1.0000
  O   O1        1.0  0.67668  0.5374200000000002  0.79849  1.0000
  O   O2        1.0  0.6917  0.60593  0.8310100000000001  1.0000
  O   O3        1.0  0.5586099999999999  0.4540400000000001  0.71496  1.0000
  O   O4        1.0  0.53778  0.35343  0.75238  1.0000
  O   O5        1.0  0.5003399999999999  0.65302  0.76005  1.0000
  O   O6        1.0  0.5283299999999997  0.57954  0.7192  1.0000
  O   O7        1.0  0.18744000000000005  0.96648  0.33022  1.0000
  O   O8        1.0  0.09927999999999997  0.02501000000000003  0.38647  1.0000
  O   O9        1.0  0.71875  0.40901  0.79646  1.0000
  O   O10       1.0  0.7625399999999996  0.33775999999999995  0.7519800000000001  1.0000
  O   O11       1.0  0.05609999999999998  0.01960000000000001  0.18749  1.0000
  O   O12       1.0  0.14287999999999984  0.9627100000000002  0.13004  1.0000
  O   O13       1.0  0.9850299999999996  0.03761  0.29855  1.0000
  O   O14       1.0  0.86748  0.10617000000000006  0.33128  1.0000
  O   O15       1.0  0.27310999999999996  0.95378  0.21492  1.0000
  O   O16       1.0  0.36108999999999986  0.85347  0.25171  1.0000
  O   O17       1.0  0.08507999999999989  0.15193000000000006  0.25947  1.0000
  O   O18       1.0  0.17174999999999987  0.07986000000000003  0.21677  1.0000
  O   O19       1.0  0.5144500000000001  0.4655599999999999  0.83071  1.0000
  O   O20       1.0  0.48640999999999984  0.5247700000000002  0.8865499999999998  1.0000
  O   O21       1.0  0.07597000000000008  0.90858  0.29885  1.0000
  O   O22       1.0  0.14802  0.83907  0.25218  1.0000
  O   O23       1.0  0.7370399999999999  0.5221300000000001  0.68676  1.0000
  O   O24       1.0  0.7670899999999995  0.46267000000000014  0.6313  1.0000
  O   O25       1.0  0.014780000000000152  0.9624499999999999  0.70101  1.0000
  O   O26       1.0  0.1326799999999999  0.8938800000000001  0.66858  1.0000
  O   O27       1.0  0.7257399999999998  0.04583000000000005  0.78583  1.0000
  O   O28       1.0  0.6391600000000001  0.14632000000000006  0.7483099999999999  1.0000
  O   O29       1.0  0.9151700000000002  0.84838  0.74066  1.0000
  O   O30       1.0  0.8275799999999998  0.9202600000000001  0.78367  1.0000
  O   O31       1.0  0.48559  0.53444  0.16927  1.0000
  O   O32       1.0  0.5135999999999996  0.4752000000000001  0.11345000000000001  1.0000
  O   O33       1.0  0.9247899999999997  0.09219999999999999  0.69866  1.0000
  O   O34       1.0  0.8526199999999998  0.15998  0.7474700000000001  1.0000
  O   O35       1.0  0.26315999999999984  0.47790999999999995  0.31308  1.0000
  O   O36       1.0  0.2329  0.5375400000000001  0.36841  1.0000
  O   O37       1.0  0.32333  0.46257  0.2015  1.0000
  O   O38       1.0  0.3083000000000001  0.3940400000000001  0.169  1.0000
  O   O39       1.0  0.4413899999999999  0.54599  0.285  1.0000
  O   O40       1.0  0.46223999999999993  0.64658  0.24762  1.0000
  O   O41       1.0  0.49966000000000005  0.34686  0.24005  1.0000
  O   O42       1.0  0.4717499999999998  0.4204  0.28081  1.0000
  O   O43       1.0  0.81346  0.03154  0.6707  1.0000
  O   O44       1.0  0.9008899999999994  0.9747500000000004  0.61318  1.0000
  O   O45       1.0  0.28132999999999997  0.5909900000000001  0.20347  1.0000
  O   O46       1.0  0.2375  0.66227  0.24793000000000004  1.0000
  O   O47       1.0  0.94323  0.98166  0.8123200000000002  1.0000
  O   O48       1.0  0.85703  0.03765  0.87027  1.0000
