data_image0
_chemical_formula_structural       Zn8H176C192N32O32
_chemical_formula_sum              "Zn8 H176 C192 N32 O32"
_cell_length_a       18.57611
_cell_length_b       18.486900000000002
_cell_length_c       20.15435
_cell_angle_alpha    109.25033999999998
_cell_angle_beta     109.43689
_cell_angle_gamma    106.36859

_space_group_name_H-M_alt    "P 1"
_space_group_IT_number       1

loop_
  _space_group_symop_operation_xyz
  'x, y, z'

loop_
  _atom_site_type_symbol
  _atom_site_label
  _atom_site_symmetry_multiplicity
  _atom_site_fract_x
  _atom_site_fract_y
  _atom_site_fract_z
  _atom_site_occupancy
  Zn  Zn1       1.0  0.11646000000000004  0.11658000000000004  0.23251000000000005  1.0000
  Zn  Zn2       1.0  0.3673700000000001  0.86898  0.7341000000000002  1.0000
  Zn  Zn3       1.0  0.4983000000000002  0.4982100000000001  0.9965900000000001  1.0000
  Zn  Zn4       1.0  0.74877  0.2505800000000001  0.49817000000000006  1.0000
  Zn  Zn5       1.0  0.057970000000000015  0.06512000000000003  0.62611  1.0000
  Zn  Zn6       1.0  0.81175  0.31904000000000005  0.12460000000000002  1.0000
  Zn  Zn7       1.0  0.5674200000000001  0.56055  0.62626  1.0000
  Zn  Zn8       1.0  0.31482999999999994  0.8068299999999999  0.1245  1.0000
  H   H1        1.0  0.15009000000000003  0.21715  0.15338  1.0000
  H   H2        1.0  0.35161  0.96839  0.94948  1.0000
  H   H3        1.0  0.32625  0.04764  0.05932  1.0000
  H   H4        1.0  0.07227000000000006  0.9755600000000001  0.8882000000000002  1.0000
  H   H5        1.0  0.09545999999999999  0.89088  0.77987  1.0000
  H   H6        1.0  0.22605  0.004189999999999997  0.1902  1.0000
  H   H7        1.0  0.22277  0.9545  0.09669  1.0000
  H   H8        1.0  0.12744  0.9300899999999999  0.10462000000000002  1.0000
  H   H9        1.0  0.1003700000000001  0.17625000000000002  0.97301  1.0000
  H   H10       1.0  0.19085000000000013  0.16656000000000012  0.9678000000000001  1.0000
  H   H11       1.0  0.20376  0.25646  0.0476  1.0000
  H   H12       1.0  0.003339999999999979  0.9367999999999999  0.15339  1.0000
  H   H13       1.0  0.5982900000000001  0.98221  0.94868  1.0000
  H   H14       1.0  0.73284  0.011340000000000005  0.05865  1.0000
  H   H15       1.0  0.8155000000000001  0.91189  0.88751  1.0000
  H   H16       1.0  0.6847700000000003  0.8897300000000001  0.7796400000000002  1.0000
  H   H17       1.0  0.96513  0.18626  0.19063000000000005  1.0000
  H   H18       1.0  0.87506  0.14341  0.0971  1.0000
  H   H19       1.0  0.9783800000000001  0.17504  0.10527  1.0000
  H   H20       1.0  0.87323  0.7974800000000001  0.9732100000000001  1.0000
  H   H21       1.0  0.7768600000000001  0.8007499999999999  0.96747  1.0000
  H   H22       1.0  0.8444300000000001  0.79117  0.04748  1.0000
  H   H23       1.0  0.46748  0.9028700000000001  0.65541  1.0000
  H   H24       1.0  0.21805  0.10186  0.44758  1.0000
  H   H25       1.0  0.2975400000000001  0.07699000000000002  0.55814  1.0000
  H   H26       1.0  0.22516000000000003  0.82144  0.3882500000000001  1.0000
  H   H27       1.0  0.14076000000000005  0.84444  0.27923  1.0000
  H   H28       1.0  0.25484999999999997  0.9773799999999999  0.69043  1.0000
  H   H29       1.0  0.2049700000000001  0.97443  0.59704  1.0000
  H   H30       1.0  0.18083  0.8785  0.60463  1.0000
  H   H31       1.0  0.4249800000000002  0.84969  0.4743500000000001  1.0000
  H   H32       1.0  0.41657  0.9405799999999999  0.46781  1.0000
  H   H33       1.0  0.50583  0.9533799999999999  0.54823  1.0000
  H   H34       1.0  0.18860000000000018  0.7548800000000001  0.6545900000000002  1.0000
  H   H35       1.0  0.2312  0.34748  0.44811  1.0000
  H   H36       1.0  0.26178  0.48262  0.55866  1.0000
  H   H37       1.0  0.16397000000000003  0.5683  0.3893  1.0000
  H   H38       1.0  0.13981000000000005  0.4366  0.28022000000000014  1.0000
  H   H39       1.0  0.43689  0.71603  0.69133  1.0000
  H   H40       1.0  0.39354000000000006  0.6255  0.59792  1.0000
  H   H41       1.0  0.42549000000000003  0.72921  0.60581  1.0000
  H   H42       1.0  0.04912000000000006  0.62456  0.4741900000000001  1.0000
  H   H43       1.0  0.052660000000000005  0.52793  0.46858  1.0000
  H   H44       1.0  0.0436000000000001  0.59563  0.5487100000000003  1.0000
  H   H45       1.0  0.60204  0.64586  0.9906  1.0000
  H   H46       1.0  0.762  0.028270000000000056  0.3684100000000001  1.0000
  H   H47       1.0  0.74128  0.89821  0.26008  1.0000
  H   H48       1.0  0.47261  0.7912600000000001  0.18385000000000007  1.0000
  H   H49       1.0  0.49491  0.9199  0.29562  1.0000
  H   H50       1.0  0.4570100000000001  0.66323  0.17313  1.0000
  H   H51       1.0  0.5465500000000001  0.64913  0.22255  1.0000
  H   H52       1.0  0.46398  0.56716  0.12705  1.0000
  H   H53       1.0  0.7395700000000001  0.85407  0.11466  1.0000
  H   H54       1.0  0.65435  0.88299  0.09967000000000002  1.0000
  H   H55       1.0  0.65411  0.808  0.01735  1.0000
  H   H56       1.0  0.38761000000000007  0.3452200000000001  0.9906900000000001  1.0000
  H   H57       1.0  0.60525  0.34225  0.36786000000000013  1.0000
  H   H58       1.0  0.51834  0.36309  0.25827  1.0000
  H   H59       1.0  0.71167  0.3914  0.18358  1.0000
  H   H60       1.0  0.80027  0.37486  0.29617  1.0000
  H   H61       1.0  0.7162000000000001  0.50923  0.17306  1.0000
  H   H62       1.0  0.67635  0.57291  0.22254  1.0000
  H   H63       1.0  0.66393  0.56003  0.12744  1.0000
  H   H64       1.0  0.37485000000000007  0.26086  0.11398  1.0000
  H   H65       1.0  0.44477000000000017  0.21646  0.09905000000000003  1.0000
  H   H66       1.0  0.3626100000000001  0.20907  0.01662  1.0000
  H   H67       1.0  0.8953300000000001  0.35357  0.4914  1.0000
  H   H68       1.0  0.2769400000000001  0.51229  0.86751  1.0000
  H   H69       1.0  0.14670999999999992  0.49091999999999997  0.75873  1.0000
  H   H70       1.0  0.04082000000000002  0.22164  0.68394  1.0000
  H   H71       1.0  0.16906000000000002  0.24440000000000003  0.79628  1.0000
  H   H72       1.0  0.91368  0.20717000000000005  0.67391  1.0000
  H   H73       1.0  0.8995900000000001  0.29672999999999994  0.72337  1.0000
  H   H74       1.0  0.81773  0.21401  0.62785  1.0000
  H   H75       1.0  0.10331999999999998  0.48951999999999996  0.61388  1.0000
  H   H76       1.0  0.13129  0.40342  0.59893  1.0000
  H   H77       1.0  0.056389999999999996  0.40342  0.51664  1.0000
  H   H78       1.0  0.59524  0.13884999999999995  0.49075  1.0000
  H   H79       1.0  0.59078  0.35464  0.86764  1.0000
  H   H80       1.0  0.61171  0.26731  0.75861  1.0000
  H   H81       1.0  0.6424500000000001  0.4625000000000001  0.6847900000000001  1.0000
  H   H82       1.0  0.62577  0.55134  0.79698  1.0000
  H   H83       1.0  0.75931  0.4678800000000001  0.6746  1.0000
  H   H84       1.0  0.82281  0.42776  0.72421  1.0000
  H   H85       1.0  0.8096400000000001  0.41527  0.62896  1.0000
  H   H86       1.0  0.51103  0.12446  0.61372  1.0000
  H   H87       1.0  0.46721000000000024  0.19501000000000013  0.5989000000000002  1.0000
  H   H88       1.0  0.4598  0.11287000000000001  0.51649  1.0000
  H   H89       1.0  0.9930400000000003  0.9213100000000002  0.6549900000000002  1.0000
  H   H90       1.0  0.20002999999999999  0.17219999999999994  0.61769  1.0000
  H   H91       1.0  0.83546  0.52183  0.30098  1.0000
  H   H92       1.0  0.60079  0.33551000000000003  0.9824300000000001  1.0000
  H   H93       1.0  0.8607600000000002  0.6520800000000001  0.4125900000000001  1.0000
  H   H94       1.0  0.4695300000000002  0.3175300000000001  0.8782000000000002  1.0000
  H   H95       1.0  0.10260000000000001  0.78665  0.43083  1.0000
  H   H96       1.0  0.34866  0.053360000000000005  0.82186  1.0000
  H   H97       1.0  0.07676000000000008  0.6554700000000002  0.3186400000000001  1.0000
  H   H98       1.0  0.47885  0.07333  0.92771  1.0000
  H   H99       1.0  0.9833  0.87729  0.38486  1.0000
  H   H100      1.0  0.09389000000000008  0.9172300000000001  0.44424000000000013  1.0000
  H   H101      1.0  0.04323  0.9838800000000001  0.46405  1.0000
  H   H102      1.0  0.16887  0.016290000000000002  0.76641  1.0000
  H   H103      1.0  0.16005000000000005  0.10922  0.81636  1.0000
  H   H104      1.0  0.2556700000000001  0.10005000000000014  0.8580500000000002  1.0000
  H   H105      1.0  0.91609  0.74514  0.60782  1.0000
  H   H106      1.0  0.02424000000000002  0.76271  0.64455  1.0000
  H   H107      1.0  0.94766  0.68264  0.5457  1.0000
  H   H108      1.0  0.4113600000000001  0.3190000000000001  0.7466200000000002  1.0000
  H   H109      1.0  0.3562500000000001  0.24192000000000002  0.6446800000000001  1.0000
  H   H110      1.0  0.43587000000000004  0.23234  0.71603  1.0000
  H   H111      1.0  0.9832600000000001  0.41209  0.15384  1.0000
  H   H112      1.0  0.69652  0.16785000000000003  0.11599000000000002  1.0000
  H   H113      1.0  0.029890000000000097  0.2168600000000001  0.8018800000000003  1.0000
  H   H114      1.0  0.89711  0.13326000000000002  0.48251000000000005  1.0000
  H   H115      1.0  0.010060000000000095  0.30262000000000017  0.9123700000000002  1.0000
  H   H116      1.0  0.81131  0.16033  0.37796  1.0000
  H   H117      1.0  0.89328  0.07664999999999991  0.9286  1.0000
  H   H118      1.0  0.017980000000000034  0.22316999999999998  0.32158  1.0000
  H   H119      1.0  0.9133000000000001  0.9909599999999998  0.81721  1.0000
  H   H120      1.0  0.10364  0.19928  0.42794  1.0000
  H   H121      1.0  0.7573300000000001  0.15110000000000012  0.8833600000000003  1.0000
  H   H122      1.0  0.77737  0.09917000000000015  0.9421600000000002  1.0000
  H   H123      1.0  0.7304300000000001  0.16939999999999997  0.9624400000000001  1.0000
  H   H124      1.0  0.0005699999999999976  0.34904  0.26624  1.0000
  H   H125      1.0  0.95798  0.40781  0.31624  1.0000
  H   H126      1.0  0.008360000000000067  0.35307000000000005  0.35751000000000005  1.0000
  H   H127      1.0  0.11188000000000001  0.44234000000000007  0.10797000000000002  1.0000
  H   H128      1.0  0.13095  0.37055  0.14475  1.0000
  H   H129      1.0  0.1129  0.34858  0.04623  1.0000
  H   H130      1.0  0.67824  0.08706999999999997  0.24582  1.0000
  H   H131      1.0  0.6530900000000001  0.03912000000000004  0.14388000000000006  1.0000
  H   H132      1.0  0.7335500000000001  0.030770000000000002  0.21574  1.0000
  H   H133      1.0  0.66024  0.7331700000000001  0.6557000000000002  1.0000
  H   H134      1.0  0.41702000000000017  0.44446000000000013  0.6176700000000003  1.0000
  H   H135      1.0  0.46695000000000003  0.77888  0.30111  1.0000
  H   H136      1.0  0.38272000000000006  0.6462  0.98213  1.0000
  H   H137      1.0  0.55261  0.76031  0.41286  1.0000
  H   H138      1.0  0.40917  0.56028  0.87729  1.0000
  H   H139      1.0  0.3272  0.64298  0.42841  1.0000
  H   H140      1.0  0.47206  0.76835  0.8214100000000002  1.0000
  H   H141      1.0  0.24185000000000004  0.66229  0.31615  1.0000
  H   H142      1.0  0.44811000000000023  0.8540600000000003  0.9279500000000003  1.0000
  H   H143      1.0  0.40066000000000007  0.50683  0.38409  1.0000
  H   H144      1.0  0.3491200000000001  0.5263300000000001  0.44296000000000013  1.0000
  H   H145      1.0  0.41927000000000003  0.47920000000000007  0.463  1.0000
  H   H146      1.0  0.59774  0.75021  0.76676  1.0000
  H   H147      1.0  0.65586  0.70689  0.81683  1.0000
  H   H148      1.0  0.60174  0.75791  0.8579400000000001  1.0000
  H   H149      1.0  0.6914700000000001  0.86126  0.6081  1.0000
  H   H150      1.0  0.6208  0.8816  0.6453100000000002  1.0000
  H   H151      1.0  0.59813  0.86278  0.5465  1.0000
  H   H152      1.0  0.33497  0.42744  0.7464  1.0000
  H   H153      1.0  0.2875599999999999  0.40224  0.64443  1.0000
  H   H154      1.0  0.27974  0.48345  0.71589  1.0000
  H   H155      1.0  0.17253000000000004  0.74268  0.15358  1.0000
  H   H156      1.0  0.42131  0.94971  0.11645  1.0000
  H   H157      1.0  0.77197  0.58599  0.80276  1.0000
  H   H158      1.0  0.58457  0.3505  0.48336  1.0000
  H   H159      1.0  0.9032399999999999  0.61007  0.91215  1.0000
  H   H160      1.0  0.56683  0.22007  0.37804  1.0000
  H   H161      1.0  0.03598  0.85308  0.92927  1.0000
  H   H162      1.0  0.30339999999999995  0.09744999999999997  0.32028  1.0000
  H   H163      1.0  0.90375  0.82774  0.81892  1.0000
  H   H164      1.0  0.32331  0.22681  0.42744  1.0000
  H   H165      1.0  0.12665000000000004  0.7323  0.88263  1.0000
  H   H166      1.0  0.16551000000000013  0.8432000000000002  0.9415400000000003  1.0000
  H   H167      1.0  0.23294000000000004  0.79345  0.96169  1.0000
  H   H168      1.0  0.26628  0.91716  0.26474  1.0000
  H   H169      1.0  0.3589  0.90822  0.31454  1.0000
  H   H170      1.0  0.34975  0.004019999999999991  0.35652  1.0000
  H   H171      1.0  0.9978700000000001  0.66606  0.1078  1.0000
  H   H172      1.0  0.01580999999999999  0.77467  0.14427  1.0000
  H   H173      1.0  0.9348200000000001  0.69769  0.04592  1.0000
  H   H174      1.0  0.56885  0.16152  0.24668  1.0000
  H   H175      1.0  0.49201  0.10723  0.14465  1.0000
  H   H176      1.0  0.48277000000000003  0.18675  0.21645000000000006  1.0000
  C   C1        1.0  0.22580000000000003  0.9257199999999999  0.8572600000000002  1.0000
  C   C2        1.0  0.2906  0.9701499999999998  0.93653  1.0000
  C   C3        1.0  0.18101  0.05241  0.1097  1.0000
  C   C4        1.0  0.27627000000000007  0.014620000000000006  0.9979  1.0000
  C   C5        1.0  0.18360000000000004  0.06801  0.0461  1.0000
  C   C6        1.0  0.19802000000000006  0.018449999999999973  0.98163  1.0000
  C   C7        1.0  0.16810000000000003  0.13999  0.05591  1.0000
  C   C8        1.0  0.13330000000000009  0.9735000000000003  0.9020600000000002  1.0000
  C   C9        1.0  0.14640000000000003  0.92625  0.84099  1.0000
  C   C10       1.0  0.2415200000000001  0.8808900000000001  0.7901100000000002  1.0000
  C   C11       1.0  0.18978999999999996  0.9816599999999999  0.12622  1.0000
  C   C12       1.0  0.16555000000000003  0.18746  0.008760000000000004  1.0000
  C   C13       1.0  0.63196  0.93267  0.85689  1.0000
  C   C14       1.0  0.64639  0.96732  0.93604  1.0000
  C   C15       1.0  0.92869  0.05754000000000001  0.1096  1.0000
  C   C16       1.0  0.72186  0.98364  0.99739  1.0000
  C   C17       1.0  0.86249  0.97817  0.04574  1.0000
  C   C18       1.0  0.7837100000000001  0.96326  0.9811400000000001  1.0000
  C   C19       1.0  0.88756  0.9159999999999999  0.05585000000000001  1.0000
  C   C20       1.0  0.76887  0.92872  0.90164  1.0000
  C   C21       1.0  0.69489  0.9154500000000002  0.8406600000000002  1.0000
  C   C22       1.0  0.54925  0.9112800000000001  0.78997  1.0000
  C   C23       1.0  0.93728  0.14513000000000006  0.12654000000000007  1.0000
  C   C24       1.0  0.84329  0.82127  0.008640000000000004  1.0000
  C   C25       1.0  0.17565000000000008  0.9753500000000002  0.3560700000000001  1.0000
  C   C26       1.0  0.21987  0.040659999999999995  0.43516  1.0000
  C   C27       1.0  0.30271000000000015  0.9327500000000002  0.6101200000000002  1.0000
  C   C28       1.0  0.26431  0.026550000000000056  0.49685  1.0000
  C   C29       1.0  0.3177900000000001  0.9342899999999998  0.54609  1.0000
  C   C30       1.0  0.26805000000000007  0.9479900000000001  0.48103000000000007  1.0000
  C   C31       1.0  0.3899800000000001  0.9195  0.5567400000000002  1.0000
  C   C32       1.0  0.22311000000000003  0.88269  0.40167000000000014  1.0000
  C   C33       1.0  0.17605999999999997  0.8956599999999999  0.34026  1.0000
  C   C34       1.0  0.13084999999999997  0.99078  0.2886  1.0000
  C   C35       1.0  0.23218000000000008  0.9411900000000001  0.62643  1.0000
  C   C36       1.0  0.4369800000000001  0.9156200000000001  0.5094300000000003  1.0000
  C   C37       1.0  0.18163  0.38234  0.35661  1.0000
  C   C38       1.0  0.21656000000000003  0.39605  0.43563  1.0000
  C   C39       1.0  0.3086400000000001  0.6801  0.6104300000000003  1.0000
  C   C40       1.0  0.23376000000000005  0.47182  0.49745000000000006  1.0000
  C   C41       1.0  0.22944  0.61366  0.54674  1.0000
  C   C42       1.0  0.21415000000000003  0.53463  0.48193  1.0000
  C   C43       1.0  0.16767000000000004  0.63905  0.55673  1.0000
  C   C44       1.0  0.17969000000000002  0.52061  0.40267  1.0000
  C   C45       1.0  0.16543  0.44635  0.34116  1.0000
  C   C46       1.0  0.15888  0.29942  0.28883  1.0000
  C   C47       1.0  0.39568  0.68816  0.62726  1.0000
  C   C48       1.0  0.07323000000000002  0.59459  0.5097  1.0000
  C   C49       1.0  0.62946  0.98308  0.33786  1.0000
  C   C50       1.0  0.6988200000000001  0.97626  0.32784  1.0000
  C   C51       1.0  0.54559  0.67414  0.12555  1.0000
  C   C52       1.0  0.6868899999999999  0.9034999999999999  0.26658  1.0000
  C   C53       1.0  0.5917  0.76062  0.14706  1.0000
  C   C54       1.0  0.60508  0.83616  0.21329  1.0000
  C   C55       1.0  0.62228  0.75923  0.09171  1.0000
  C   C56       1.0  0.53617  0.84257  0.22501  1.0000
  C   C57       1.0  0.5482899999999999  0.9147499999999998  0.2869700000000001  1.0000
  C   C58       1.0  0.6404300000000002  0.06306000000000009  0.3999000000000001  1.0000
  C   C59       1.0  0.50078  0.63651  0.16395  1.0000
  C   C60       1.0  0.67041  0.82965  0.08032  1.0000
  C   C61       1.0  0.7077400000000003  0.35578  0.33782  1.0000
  C   C62       1.0  0.62831  0.35297  0.32741  1.0000
  C   C63       1.0  0.58001  0.45115  0.12494000000000001  1.0000
  C   C64       1.0  0.57931  0.36388000000000004  0.2655800000000001  1.0000
  C   C65       1.0  0.55544  0.38591  0.14597  1.0000
  C   C66       1.0  0.60822  0.37696  0.21237  1.0000
  C   C67       1.0  0.46922000000000014  0.33218  0.09091  1.0000
  C   C68       1.0  0.6887900000000002  0.38177000000000005  0.22448000000000007  1.0000
  C   C69       1.0  0.73825  0.37199  0.28686  1.0000
  C   C70       1.0  0.7589800000000002  0.33869  0.40025  1.0000
  C   C71       1.0  0.66352  0.52716  0.16385  1.0000
  C   C72       1.0  0.40949  0.25049  0.07961000000000003  1.0000
  C   C73       1.0  0.23197000000000007  0.3792400000000001  0.8376300000000001  1.0000
  C   C74       1.0  0.22512000000000007  0.44884000000000013  0.8272300000000002  1.0000
  C   C75       1.0  0.9239600000000001  0.29607000000000006  0.6261400000000001  1.0000
  C   C76       1.0  0.15239  0.43665  0.76592  1.0000
  C   C77       1.0  0.009990000000000006  0.34135  0.64689  1.0000
  C   C78       1.0  0.08534  0.35452  0.71298  1.0000
  C   C79       1.0  0.008470000000000052  0.37244000000000005  0.5917000000000001  1.0000
  C   C80       1.0  0.09185999999999998  0.28545  0.725  1.0000
  C   C81       1.0  0.16388000000000005  0.29782000000000003  0.7871300000000001  1.0000
  C   C82       1.0  0.31160000000000004  0.3901200000000001  0.89968  1.0000
  C   C83       1.0  0.88683  0.25101  0.6647  1.0000
  C   C84       1.0  0.07843000000000015  0.4200100000000002  0.5797300000000002  1.0000
  C   C85       1.0  0.6053800000000001  0.4578100000000002  0.8380600000000002  1.0000
  C   C86       1.0  0.60211  0.37788  0.82745  1.0000
  C   C87       1.0  0.70145  0.33115  0.62638  1.0000
  C   C88       1.0  0.61317  0.32879  0.76592  1.0000
  C   C89       1.0  0.6363800000000001  0.30595  0.64706  1.0000
  C   C90       1.0  0.62712  0.35836  0.71326  1.0000
  C   C91       1.0  0.5827000000000001  0.21967000000000017  0.5914200000000002  1.0000
  C   C92       1.0  0.63246  0.43946  0.72557  1.0000
  C   C93       1.0  0.62248  0.48893999999999993  0.78765  1.0000
  C   C94       1.0  0.5874000000000001  0.5087600000000001  0.8997700000000002  1.0000
  C   C95       1.0  0.7771600000000001  0.4149800000000001  0.6655000000000002  1.0000
  C   C96       1.0  0.50108  0.15961  0.57955  1.0000
  C   C97       1.0  0.9546200000000001  0.58026  0.3028  1.0000
  C   C98       1.0  0.5483700000000001  0.20559  0.96135  1.0000
  C   C99       1.0  0.89395  0.5797900000000001  0.32972000000000007  1.0000
  C   C100      1.0  0.5451200000000002  0.2739700000000001  0.94663  1.0000
  C   C101      1.0  0.01857000000000014  0.8875400000000002  0.5013200000000002  1.0000
  C   C102      1.0  0.2375500000000002  0.1259700000000001  0.7592100000000003  1.0000
  C   C103      1.0  0.9084599999999997  0.65265  0.39259  1.0000
  C   C104      1.0  0.47138000000000024  0.2633599999999999  0.88771  1.0000
  C   C105      1.0  0.99683  0.80487  0.49518  1.0000
  C   C106      1.0  0.32252  0.17145  0.77726  1.0000
  C   C107      1.0  0.9836200000000002  0.72835  0.42992  1.0000
  C   C108      1.0  0.39932  0.18389  0.84131  1.0000
  C   C109      1.0  0.98602  0.81036  0.5622  1.0000
  C   C110      1.0  0.3171000000000001  0.1991300000000001  0.7191500000000002  1.0000
  C   C111      1.0  0.044040000000000135  0.7286700000000002  0.4023200000000001  1.0000
  C   C112      1.0  0.4028700000000002  0.11585000000000012  0.8571900000000002  1.0000
  C   C113      1.0  0.029940000000000015  0.65542  0.3398  1.0000
  C   C114      1.0  0.47618000000000005  0.12651000000000004  0.91661  1.0000
  C   C115      1.0  0.93923  0.50074  0.2365  1.0000
  C   C116      1.0  0.6279  0.21536000000000002  0.022370000000000008  1.0000
  C   C117      1.0  0.03570000000000002  0.9183000000000001  0.44592  1.0000
  C   C118      1.0  0.20401  0.08592999999999999  0.8023  1.0000
  C   C119      1.0  0.9671700000000001  0.74664  0.59156  1.0000
  C   C120      1.0  0.38332  0.25046  0.70568  1.0000
  C   C121      1.0  0.9733800000000001  0.09858000000000001  0.80288  1.0000
  C   C122      1.0  0.00548  0.16381  0.46155  1.0000
  C   C123      1.0  0.00039000000000003106  0.18655000000000002  0.83004  1.0000
  C   C124      1.0  0.9227400000000001  0.15268000000000007  0.4466000000000001  1.0000
  C   C125      1.0  0.8636100000000002  0.2323  0.99995  1.0000
  C   C126      1.0  0.8839  0.2725  0.25842  1.0000
  C   C127      1.0  0.98969  0.23459000000000013  0.8923300000000002  1.0000
  C   C128      1.0  0.8745900000000001  0.16746000000000005  0.38746000000000014  1.0000
  C   C129      1.0  0.9399399999999999  0.24799  0.99419  1.0000
  C   C130      1.0  0.85615  0.20554000000000006  0.2766400000000001  1.0000
  C   C131      1.0  0.9511000000000003  0.19599000000000014  0.9289800000000003  1.0000
  C   C132      1.0  0.9074500000000001  0.19271  0.34093  1.0000
  C   C133      1.0  0.0014699999999999854  0.32606  0.061500000000000006  1.0000
  C   C134      1.0  0.77052  0.15281  0.21828  1.0000
  C   C135      1.0  0.9232100000000002  0.10744000000000006  0.9008800000000002  1.0000
  C   C136      1.0  0.99097  0.20459  0.35696  1.0000
  C   C137      1.0  0.93456  0.05935999999999996  0.83886  1.0000
  C   C138      1.0  0.03961000000000001  0.19089  0.41668  1.0000
  C   C139      1.0  0.9873500000000001  0.047970000000000124  0.7372500000000002  1.0000
  C   C140      1.0  0.05684000000000001  0.14580999999999994  0.52314  1.0000
  C   C141      1.0  0.7777000000000002  0.15937000000000012  0.9442600000000002  1.0000
  C   C142      1.0  0.96696  0.34943  0.3019  1.0000
  C   C143      1.0  0.0944  0.3747  0.09163000000000003  1.0000
  C   C144      1.0  0.70546  0.07323  0.20496  1.0000
  C   C145      1.0  0.34909  0.72232  0.3019100000000001  1.0000
  C   C146      1.0  0.41312999999999994  0.7551699999999999  0.9611  1.0000
  C   C147      1.0  0.43679  0.74957  0.32947  1.0000
  C   C148      1.0  0.40197999999999995  0.6721  0.94628  1.0000
  C   C149      1.0  0.48168  0.61297  0.50083  1.0000
  C   C150      1.0  0.5209800000000001  0.63311  0.75877  1.0000
  C   C151      1.0  0.48475  0.7394700000000001  0.3924200000000001  1.0000
  C   C152      1.0  0.4164600000000001  0.6239500000000001  0.8871000000000002  1.0000
  C   C153      1.0  0.4977500000000001  0.68958  0.49477000000000004  1.0000
  C   C154      1.0  0.45402  0.60564  0.7766  1.0000
  C   C155      1.0  0.44628000000000007  0.70086  0.42917  1.0000
  C   C156      1.0  0.44152  0.6572  0.84071  1.0000
  C   C157      1.0  0.57527  0.75125  0.56248  1.0000
  C   C158      1.0  0.4013800000000001  0.51964  0.7186700000000003  1.0000
  C   C159      1.0  0.35799  0.6727299999999999  0.4006  1.0000
  C   C160      1.0  0.45357000000000003  0.7411  0.85673  1.0000
  C   C161      1.0  0.31003000000000003  0.68365  0.33805  1.0000
  C   C162      1.0  0.43996  0.78972  0.91636  1.0000
  C   C163      1.0  0.29886000000000007  0.7366400000000001  0.23620000000000005  1.0000
  C   C164      1.0  0.39496  0.80637  0.02231  1.0000
  C   C165      1.0  0.40905  0.52679  0.4449700000000001  1.0000
  C   C166      1.0  0.5979100000000003  0.7163000000000002  0.8023600000000002  1.0000
  C   C167      1.0  0.6242500000000001  0.8443200000000001  0.5921  1.0000
  C   C168      1.0  0.3218000000000001  0.45485000000000003  0.7054100000000002  1.0000
  C   C169      1.0  0.8294600000000001  0.7054200000000003  0.8042500000000002  1.0000
  C   C170      1.0  0.45516  0.29706  0.46196  1.0000
  C   C171      1.0  0.82988  0.64436  0.83095  1.0000
  C   C172      1.0  0.52326  0.29465  0.44704  1.0000
  C   C173      1.0  0.13747999999999994  0.76786  0.99933  1.0000
  C   C174      1.0  0.37565000000000004  0.98678  0.25792  1.0000
  C   C175      1.0  0.90333  0.65835  0.89258  1.0000
  C   C176      1.0  0.51275  0.2214  0.38741  1.0000
  C   C177      1.0  0.055430000000000035  0.7464600000000001  0.9937400000000001  1.0000
  C   C178      1.0  0.42132  0.07221999999999999  0.27638  1.0000
  C   C179      1.0  0.97873  0.73363  0.92907  1.0000
  C   C180      1.0  0.4335899999999999  0.14899  0.34049  1.0000
  C   C181      1.0  0.06146999999999997  0.7354599999999999  0.06088  1.0000
  C   C182      1.0  0.44916  0.06709  0.21859  1.0000
  C   C183      1.0  0.9782300000000005  0.7944700000000002  0.9015800000000003  1.0000
  C   C184      1.0  0.36567  0.15188  0.35618  1.0000
  C   C185      1.0  0.90436  0.78072  0.84012  1.0000
  C   C186      1.0  0.3763000000000001  0.22468000000000005  0.4163500000000001  1.0000
  C   C187      1.0  0.74931  0.68982  0.73874  1.0000
  C   C188      1.0  0.46496  0.37601  0.52408  1.0000
  C   C189      1.0  0.16739000000000018  0.7851000000000002  0.9435800000000002  1.0000
  C   C190      1.0  0.33568  0.95251  0.30068  1.0000
  C   C191      1.0  0.99894  0.71714  0.0912  1.0000
  C   C192      1.0  0.50062  0.13387  0.20564  1.0000
  N   N1        1.0  0.15694000000000002  0.16362  0.12148  1.0000
  N   N2        1.0  0.16486000000000003  0.11136  0.15514  1.0000
  N   N3        1.0  0.9640600000000001  0.95815  0.12186000000000001  1.0000
  N   N4        1.0  0.9900200000000001  0.04411000000000002  0.15549  1.0000
  N   N5        1.0  0.41427  0.90995  0.62328  1.0000
  N   N6        1.0  0.36219000000000007  0.91797  0.65667  1.0000
  N   N7        1.0  0.2098500000000001  0.71597  0.62253  1.0000
  N   N8        1.0  0.29551000000000005  0.74189  0.65616  1.0000
  N   N9        1.0  0.59601  0.67654  0.04233  1.0000
  N   N10       1.0  0.5495  0.62425  0.06189  1.0000
  N   N11       1.0  0.44586000000000003  0.36591  0.04209  1.0000
  N   N12       1.0  0.51207  0.43786  0.06187  1.0000
  N   N13       1.0  0.9260900000000001  0.34733  0.54315  1.0000
  N   N14       1.0  0.8741600000000002  0.30103  0.56307  1.0000
  N   N15       1.0  0.6163200000000001  0.19682000000000002  0.54267  1.0000
  N   N16       1.0  0.68813  0.26348  0.56294  1.0000
  N   N17       1.0  0.0012699999999999576  0.89182  0.60427  1.0000
  N   N18       1.0  0.23362  0.16915999999999995  0.67037  1.0000
  N   N19       1.0  0.02015999999999998  0.9391499999999999  0.5677300000000001  1.0000
  N   N20       1.0  0.18447  0.12478000000000002  0.69359  1.0000
  N   N21       1.0  0.96218  0.35296  0.10323  1.0000
  N   N22       1.0  0.75208  0.18743  0.16922  1.0000
  N   N23       1.0  0.8784500000000001  0.29737  0.06631  1.0000
  N   N24       1.0  0.81984  0.25993  0.19252000000000005  1.0000
  N   N25       1.0  0.6014  0.71189  0.60479  1.0000
  N   N26       1.0  0.43614  0.50063  0.67013  1.0000
  N   N27       1.0  0.54596  0.62782  0.56775  1.0000
  N   N28       1.0  0.50853  0.56841  0.69342  1.0000
  N   N29       1.0  0.14261000000000007  0.7503000000000001  0.10246000000000002  1.0000
  N   N30       1.0  0.41909  0.98339  0.16953  1.0000
  N   N31       1.0  0.18927  0.7691  0.06556  1.0000
  N   N32       1.0  0.37440000000000007  0.9338100000000001  0.1923  1.0000
  O   O1        1.0  0.17894  0.82651  0.72286  1.0000
  O   O2        1.0  0.3209500000000001  0.90464  0.8073100000000002  1.0000
  O   O3        1.0  0.54476  0.89873  0.72294  1.0000
  O   O4        1.0  0.48711  0.90524  0.80713  1.0000
  O   O5        1.0  0.07630000000000002  0.92782  0.22160000000000002  1.0000
  O   O6        1.0  0.15476  0.07043000000000003  0.30538  1.0000
  O   O7        1.0  0.1466  0.29543  0.22197  1.0000
  O   O8        1.0  0.15143  0.23628  0.30515  1.0000
  O   O9        1.0  0.712  0.12907  0.43018  1.0000
  O   O10       1.0  0.58095  0.061639999999999986  0.41725  1.0000
  O   O11       1.0  0.71756  0.30424  0.43104  1.0000
  O   O12       1.0  0.8357600000000002  0.35673000000000005  0.4175300000000001  1.0000
  O   O13       1.0  0.37761  0.46129000000000003  0.92865  1.0000
  O   O14       1.0  0.3098600000000001  0.33106  0.91829  1.0000
  O   O15       1.0  0.5525200000000002  0.4671400000000001  0.9302100000000001  1.0000
  O   O16       1.0  0.6051  0.58573  0.91665  1.0000
  O   O17       1.0  0.8615500000000001  0.44199  0.19627000000000006  1.0000
  O   O18       1.0  0.62623  0.15414  0.03789  1.0000
  O   O19       1.0  0.0009600000000000047  0.4956  0.22525000000000006  1.0000
  O   O20       1.0  0.69417  0.28715  0.05387  1.0000
  O   O21       1.0  0.006789999999999999  0.08603  0.69776  1.0000
  O   O22       1.0  0.13363000000000017  0.16412000000000013  0.5396600000000003  1.0000
  O   O23       1.0  0.98077  0.9745000000000001  0.7260400000000001  1.0000
  O   O24       1.0  0.01658000000000001  0.11034000000000004  0.55415  1.0000
  O   O25       1.0  0.33677  0.75589  0.1967  1.0000
  O   O26       1.0  0.41132  0.88294  0.03763  1.0000
  O   O27       1.0  0.2259  0.73082  0.22508000000000006  1.0000
  O   O28       1.0  0.3613  0.7661  0.05427000000000001  1.0000
  O   O29       1.0  0.69028  0.61216  0.70003  1.0000
  O   O30       1.0  0.40435  0.37371  0.54008  1.0000
  O   O31       1.0  0.74428  0.75153  0.72672  1.0000
  O   O32       1.0  0.5365100000000002  0.44271  0.55607  1.0000
