data_image0
_chemical_formula_structural       Cd12H120C216O72
_chemical_formula_sum              "Cd12 H120 C216 O72"
_cell_length_a       16.04779
_cell_length_b       19.2779
_cell_length_c       20.41067
_cell_angle_alpha    89.91311
_cell_angle_beta     90.03111
_cell_angle_gamma    99.76815

_space_group_name_H-M_alt    "P 1"
_space_group_IT_number       1

loop_
  _space_group_symop_operation_xyz
  'x, y, z'

loop_
  _atom_site_type_symbol
  _atom_site_label
  _atom_site_symmetry_multiplicity
  _atom_site_fract_x
  _atom_site_fract_y
  _atom_site_fract_z
  _atom_site_occupancy
  Cd  Cd1       1.0  0.4374700000000001  0.55333  0.23004999999999995  1.0000
  Cd  Cd2       1.0  0.45798  0.09747  0.783  1.0000
  Cd  Cd3       1.0  0.56118  0.94708  0.72758  1.0000
  Cd  Cd4       1.0  0.4942399999999999  0.7293799999999998  0.26962  1.0000
  Cd  Cd5       1.0  0.43880999999999987  0.05290999999999999  0.27241  1.0000
  Cd  Cd6       1.0  0.45762  0.59663  0.71729  1.0000
  Cd  Cd7       1.0  0.54238  0.40338  0.28271  1.0000
  Cd  Cd8       1.0  0.5420299999999998  0.9025399999999999  0.217  1.0000
  Cd  Cd9       1.0  0.50576  0.27064  0.73036  1.0000
  Cd  Cd10      1.0  0.56254  0.44668  0.7699499999999999  1.0000
  Cd  Cd11      1.0  0.49416  0.22944999999999996  0.23268  1.0000
  Cd  Cd12      1.0  0.5058399999999998  0.7705499999999998  0.7673199999999999  1.0000
  H   H1        1.0  0.30989  0.9934599999999999  0.8658699999999998  1.0000
  H   H2        1.0  0.99385  0.3959699999999999  0.3592799999999999  1.0000
  H   H3        1.0  0.67858  0.28696999999999995  0.559  1.0000
  H   H4        1.0  0.20926999999999998  0.1939  0.97433  1.0000
  H   H5        1.0  0.16217  0.24653  0.66451  1.0000
  H   H6        1.0  0.29763  0.46052999999999994  0.15534  1.0000
  H   H7        1.0  0.38828  0.7782299999999999  0.12767  1.0000
  H   H8        1.0  0.28983  0.36509999999999987  0.38458  1.0000
  H   H9        1.0  0.9166499999999999  0.7620299999999999  0.15017  1.0000
  H   H10       1.0  0.008430000000000005  0.10414000000000001  0.8604599999999999  1.0000
  H   H11       1.0  0.74595  0.50216  0.61948  1.0000
  H   H12       1.0  0.98961  0.42605  0.8784799999999999  1.0000
  H   H13       1.0  0.6900899999999998  0.50699  0.36694999999999994  1.0000
  H   H14       1.0  0.17063  0.45256  0.58053  1.0000
  H   H15       1.0  0.16258  0.30462  0.48593  1.0000
  H   H16       1.0  0.74362  0.00193  0.87891  1.0000
  H   H17       1.0  0.83798  0.56869  0.90383  1.0000
  H   H18       1.0  0.2563799999999999  0.9980699999999998  0.12107999999999998  1.0000
  H   H19       1.0  0.16215999999999994  0.7470499999999998  0.83524  1.0000
  H   H20       1.0  0.08335  0.23797  0.8498299999999999  1.0000
  H   H21       1.0  0.83782  0.19496  0.98561  1.0000
  H   H22       1.0  0.13839  0.47845  0.46523999999999993  1.0000
  H   H23       1.0  0.15573  0.81207  0.51472  1.0000
  H   H24       1.0  0.8442699999999997  0.18793  0.48527999999999993  1.0000
  H   H25       1.0  0.29785  0.96013  0.34459  1.0000
  H   H26       1.0  0.9915699999999998  0.8958599999999993  0.13954  1.0000
  H   H27       1.0  0.2054699999999999  0.19588999999999998  0.48028999999999994  1.0000
  H   H28       1.0  0.2887099999999999  0.8654  0.11547  1.0000
  H   H29       1.0  0.81529  0.84684  0.16643  1.0000
  H   H30       1.0  0.8616  0.52155  0.5347699999999999  1.0000
  H   H31       1.0  0.30292  0.28644  0.71649  1.0000
  H   H32       1.0  0.18474000000000002  0.65308  0.6669799999999999  1.0000
  H   H33       1.0  0.04825  0.11475999999999999  0.07017  1.0000
  H   H34       1.0  0.9204699999999996  0.7972199999999999  0.6605  1.0000
  H   H35       1.0  0.39407  0.3218999999999999  0.8609799999999999  1.0000
  H   H36       1.0  0.82893  0.04699999999999999  0.08114  1.0000
  H   H37       1.0  0.6732399999999997  0.2665199999999999  0.06126  1.0000
  H   H38       1.0  0.83783  0.7534699999999999  0.33549  1.0000
  H   H39       1.0  0.6760099999999998  0.78676  0.9400899999999998  1.0000
  H   H40       1.0  0.18471  0.15315  0.83358  1.0000
  H   H41       1.0  0.81527  0.34692  0.33302  1.0000
  H   H42       1.0  0.9352799999999998  0.36332  0.07988999999999997  1.0000
  H   H43       1.0  0.95185  0.38539999999999996  0.5688599999999999  1.0000
  H   H44       1.0  0.17072  0.98625  0.5582299999999999  1.0000
  H   H45       1.0  0.6062699999999998  0.17812  0.36168  1.0000
  H   H46       1.0  0.14073  0.71461  0.34397999999999995  1.0000
  H   H47       1.0  0.2924599999999999  0.4063999999999999  0.8777599999999999  1.0000
  H   H48       1.0  0.99092  0.92782  0.62119  1.0000
  H   H49       1.0  0.6901  0.006539999999999999  0.13412999999999997  1.0000
  H   H50       1.0  0.70792  0.09393999999999997  0.37887  1.0000
  H   H51       1.0  0.16901  0.48774999999999996  0.94231  1.0000
  H   H52       1.0  0.2917299999999999  0.02312  0.63664  1.0000
  H   H53       1.0  0.70755  0.59361  0.12223999999999999  1.0000
  H   H54       1.0  0.17858  0.11474  0.32944999999999997  1.0000
  H   H55       1.0  0.72023  0.25676  0.7140699999999999  1.0000
  H   H56       1.0  0.38873  0.27738999999999997  0.37314  1.0000
  H   H57       1.0  0.16217999999999996  0.8050299999999999  0.01439  1.0000
  H   H58       1.0  0.29209  0.9060599999999999  0.6211299999999998  1.0000
  H   H59       1.0  0.8214599999999997  0.88533  0.67057  1.0000
  H   H60       1.0  0.61172  0.22176999999999994  0.87234  1.0000
  H   H61       1.0  0.69707  0.71356  0.28350999999999993  1.0000
  H   H62       1.0  0.2074  0.6934  0.52715  1.0000
  H   H63       1.0  0.9517499999999999  0.8852299999999999  0.92984  1.0000
  H   H64       1.0  0.0789  0.7025  0.16053  1.0000
  H   H65       1.0  0.70828  0.9768799999999999  0.36336  1.0000
  H   H66       1.0  0.39374999999999993  0.8218799999999999  0.6383199999999999  1.0000
  H   H67       1.0  0.84244  0.68654  0.014319999999999998  1.0000
  H   H68       1.0  0.79229  0.30222  0.9811599999999999  1.0000
  H   H69       1.0  0.15757  0.31346  0.9856799999999998  1.0000
  H   H70       1.0  0.30992  0.49300999999999995  0.63305  1.0000
  H   H71       1.0  0.07954  0.20280999999999996  0.3395  1.0000
  H   H72       1.0  0.71972  0.7564899999999999  0.78589  1.0000
  H   H73       1.0  0.048150000000000005  0.6146  0.43116  1.0000
  H   H74       1.0  0.82153  0.385  0.82915  1.0000
  H   H75       1.0  0.8374  0.69539  0.51405  1.0000
  H   H76       1.0  0.006119999999999997  0.60405  0.64073  1.0000
  H   H77       1.0  0.6112699999999998  0.7227499999999998  0.62689  1.0000
  H   H78       1.0  0.7926  0.3066  0.47286  1.0000
  H   H79       1.0  0.17105999999999993  0.953  0.9188699999999997  1.0000
  H   H80       1.0  0.82937  0.54744  0.41945999999999994  1.0000
  H   H81       1.0  0.60593  0.6780899999999999  0.13904  1.0000
  H   H82       1.0  0.30281  0.7868  0.7830999999999999  1.0000
  H   H83       1.0  0.6754  0.7668199999999997  0.4402399999999999  1.0000
  H   H84       1.0  0.25404  0.49783  0.38053  1.0000
  H   H85       1.0  0.69719  0.2132  0.21691  1.0000
  H   H86       1.0  0.32399  0.21322999999999998  0.05989999999999999  1.0000
  H   H87       1.0  0.82928  0.013749999999999998  0.44177  1.0000
  H   H88       1.0  0.16223  0.93114  0.40354999999999996  1.0000
  H   H89       1.0  0.91684  0.26232  0.3495299999999999  1.0000
  H   H90       1.0  0.93581  0.8661199999999999  0.41974999999999996  1.0000
  H   H91       1.0  0.79073  0.8060999999999998  0.02566999999999999  1.0000
  H   H92       1.0  0.28029  0.24352  0.21410999999999997  1.0000
  H   H93       1.0  0.27978  0.74326  0.28593  1.0000
  H   H94       1.0  0.7023699999999999  0.53947  0.84466  1.0000
  H   H95       1.0  0.16202  0.43130999999999997  0.09617  1.0000
  H   H96       1.0  0.8587  0.7852199999999998  0.8443199999999998  1.0000
  H   H97       1.0  0.3245999999999999  0.23318  0.55977  1.0000
  H   H98       1.0  0.71007  0.63496  0.61543  1.0000
  H   H99       1.0  0.2902  0.52276  0.86374  1.0000
  H   H100      1.0  0.70981  0.47724999999999995  0.13625999999999996  1.0000
  H   H101      1.0  0.08317000000000002  0.73767  0.6504699999999999  1.0000
  H   H102      1.0  0.06419  0.13388  0.5802499999999999  1.0000
  H   H103      1.0  0.8309999999999997  0.51226  0.05769  1.0000
  H   H104      1.0  0.7945399999999999  0.80412  0.51972  1.0000
  H   H105      1.0  0.01039999999999999  0.57395  0.12152  1.0000
  H   H106      1.0  0.7021399999999999  0.03988999999999999  0.65541  1.0000
  H   H107      1.0  0.17848  0.615  0.17085  1.0000
  H   H108      1.0  0.7113  0.1346  0.8845399999999999  1.0000
  H   H109      1.0  0.83776  0.06886  0.5964599999999999  1.0000
  H   H110      1.0  0.85929  0.2854  0.6560099999999999  1.0000
  H   H111      1.0  0.32142  0.7130299999999998  0.4409999999999999  1.0000
  H   H112      1.0  0.06472  0.63668  0.9201099999999999  1.0000
  H   H113      1.0  0.9211  0.2975  0.8394699999999999  1.0000
  H   H114      1.0  0.009089999999999999  0.07218  0.37881  1.0000
  H   H115      1.0  0.14131  0.21478  0.15568  1.0000
  H   H116      1.0  0.14045999999999992  0.9788199999999999  0.03649999999999999  1.0000
  H   H117      1.0  0.83784  0.25295  0.16475999999999993  1.0000
  H   H118      1.0  0.32677  0.73348  0.9387399999999999  1.0000
  H   H119      1.0  0.20772  0.69778  0.01884  1.0000
  H   H120      1.0  0.8595399999999997  0.021180000000000004  0.9634999999999999  1.0000
  C   C1        1.0  0.31549  0.6299  0.8965899999999999  1.0000
  C   C2        1.0  0.7013599999999998  0.64622  0.81123  1.0000
  C   C3        1.0  0.37918  0.8694199999999999  0.2753  1.0000
  C   C4        1.0  0.04766999999999997  0.83673  0.4623399999999999  1.0000
  C   C5        1.0  0.3165  0.39207000000000003  0.67786  1.0000
  C   C6        1.0  0.27277  0.06013  0.60173  1.0000
  C   C7        1.0  0.71835  0.33812  0.5527499999999999  1.0000
  C   C8        1.0  0.1825  0.5912  0.98363  1.0000
  C   C9        1.0  0.8175  0.40880999999999995  0.01636  1.0000
  C   C10       1.0  0.7076  0.32021999999999995  0.05995  1.0000
  C   C11       1.0  0.85591  0.17902  0.62306  1.0000
  C   C12       1.0  0.26554999999999995  0.8104399999999999  0.12723999999999996  1.0000
  C   C13       1.0  0.059299999999999985  0.3440599999999999  0.53256  1.0000
  C   C14       1.0  0.28389  0.16217  0.05403999999999999  1.0000
  C   C15       1.0  0.2702  0.35101  0.86755  1.0000
  C   C16       1.0  0.8306400000000002  0.9146  0.9985  1.0000
  C   C17       1.0  0.60105  0.08459  0.21074999999999997  1.0000
  C   C18       1.0  0.29107  0.17919  0.55886  1.0000
  C   C19       1.0  0.26629  0.31017999999999996  0.37298  1.0000
  C   C20       1.0  0.24597  0.04028999999999999  0.08832  1.0000
  C   C21       1.0  0.012669999999999994  0.12492999999999999  0.027029999999999995  1.0000
  C   C22       1.0  0.005969999999999997  0.40057  0.92301  1.0000
  C   C23       1.0  0.25384  0.28432  0.18875  1.0000
  C   C24       1.0  0.92176  0.13014  0.42614  1.0000
  C   C25       1.0  0.89999  0.16307999999999997  0.483  1.0000
  C   C26       1.0  0.96477  0.39384  0.46280999999999994  1.0000
  C   C27       1.0  0.21842  0.65122  0.49473999999999996  1.0000
  C   C28       1.0  0.65167  0.8583399999999999  0.66458  1.0000
  C   C29       1.0  0.14447999999999994  0.32114  0.12301  1.0000
  C   C30       1.0  0.012259999999999988  0.6246399999999999  0.4740999999999999  1.0000
  C   C31       1.0  0.17689999999999997  0.26802999999999993  0.15634  1.0000
  C   C32       1.0  0.18184  0.02936  0.041479999999999996  1.0000
  C   C33       1.0  0.71058  0.8086599999999998  0.64998  1.0000
  C   C34       1.0  0.79244  0.29137  0.34238  1.0000
  C   C35       1.0  0.22016999999999998  0.15166  0.006849999999999999  1.0000
  C   C36       1.0  0.010539999999999994  0.88119  0.09112  1.0000
  C   C37       1.0  0.18826999999999997  0.39049999999999996  0.12191999999999999  1.0000
  C   C38       1.0  0.8404999999999998  0.15261  0.11979999999999998  1.0000
  C   C39       1.0  0.7298  0.64899  0.13246  1.0000
  C   C40       1.0  0.34764  0.64197  0.16593999999999995  1.0000
  C   C41       1.0  0.36056  0.61729  0.35353999999999997  1.0000
  C   C42       1.0  0.75403  0.95971  0.91168  1.0000
  C   C43       1.0  0.24379  0.53998  0.41331999999999997  1.0000
  C   C44       1.0  0.07846  0.3695  0.92602  1.0000
  C   C45       1.0  0.795  0.45925  0.058559999999999994  1.0000
  C   C46       1.0  0.02498999999999999  0.13272999999999996  0.53681  1.0000
  C   C47       1.0  0.10706  0.82995  0.020959999999999996  1.0000
  C   C48       1.0  0.17931  0.78823  0.13834  1.0000
  C   C49       1.0  0.952  0.6639699999999997  0.96257  1.0000
  C   C50       1.0  0.67379  0.6961  0.14146999999999998  1.0000
  C   C51       1.0  0.7941099999999998  0.9604599999999999  0.44134  1.0000
  C   C52       1.0  0.8922899999999999  0.67024  0.5210999999999999  1.0000
  C   C53       1.0  0.85349  0.28194  0.84704  1.0000
  C   C54       1.0  0.04800000000000001  0.33603  0.03743  1.0000
  C   C55       1.0  0.31647  0.8924999999999998  0.82133  1.0000
  C   C56       1.0  0.27189999999999986  0.56038  0.8981999999999998  1.0000
  C   C57       1.0  0.07825  0.86986  0.57386  1.0000
  C   C58       1.0  0.70538  0.39361  0.5938199999999999  1.0000
  C   C59       1.0  0.72723  0.93986  0.39828  1.0000
  C   C60       1.0  0.22619  0.6604399999999999  0.9841399999999999  1.0000
  C   C61       1.0  0.15138  0.25556  0.8515499999999999  1.0000
  C   C62       1.0  0.7031299999999998  0.8933499999999999  0.9047299999999999  1.0000
  C   C63       1.0  0.64522  0.31699999999999995  0.33269  1.0000
  C   C64       1.0  0.8169199999999998  0.17372999999999997  0.36375  1.0000
  C   C65       1.0  0.99403  0.59943  0.07698999999999999  1.0000
  C   C66       1.0  0.7979599999999999  0.8305899999999998  0.65842  1.0000
  C   C67       1.0  0.72122  0.06086  0.14004  1.0000
  C   C68       1.0  0.72614  0.17691999999999997  0.18754  1.0000
  C   C69       1.0  0.64517  0.81692  0.16735  1.0000
  C   C70       1.0  0.82008  0.47105  0.53964  1.0000
  C   C71       1.0  0.35478999999999994  0.6829999999999998  0.66731  1.0000
  C   C72       1.0  0.011990000000000008  0.38142  0.4079999999999999  1.0000
  C   C73       1.0  0.20054  0.41637  0.6096299999999999  1.0000
  C   C74       1.0  0.8206899999999998  0.21177  0.8616599999999999  1.0000
  C   C75       1.0  0.7992199999999998  0.08323  0.11020999999999997  1.0000
  C   C76       1.0  0.27878  0.9391399999999999  0.85996  1.0000
  C   C77       1.0  0.27868  0.43872  0.6391599999999998  1.0000
  C   C78       1.0  0.83199  0.41514  0.49946  1.0000
  C   C79       1.0  0.63944  0.38271  0.6464599999999998  1.0000
  C   C80       1.0  0.7562  0.46002  0.58669  1.0000
  C   C81       1.0  0.91837  0.15113999999999994  0.91708  1.0000
  C   C82       1.0  0.28909  0.69187  0.15073999999999999  1.0000
  C   C83       1.0  0.20168999999999995  0.66984  0.15876999999999997  1.0000
  C   C84       1.0  0.8528  0.78211  0.65287  1.0000
  C   C85       1.0  0.77528  0.84111  0.48493  1.0000
  C   C86       1.0  0.6790499999999998  0.7385699999999998  0.63331  1.0000
  C   C87       1.0  0.32096  0.26151  0.36669  1.0000
  C   C88       1.0  0.6163  0.35074  0.15331  1.0000
  C   C89       1.0  0.18194  0.0893  0.5162  1.0000
  C   C90       1.0  0.9215499999999998  0.6305  0.07398  1.0000
  C   C91       1.0  0.3837  0.6492599999999997  0.84668  1.0000
  C   C92       1.0  0.1472  0.21794  0.34712999999999994  1.0000
  C   C93       1.0  0.10002000000000003  0.83691  0.5169999999999999  1.0000
  C   C94       1.0  0.72132  0.56128  0.36083  1.0000
  C   C95       1.0  0.91734  0.6512899999999999  0.5832299999999999  1.0000
  C   C96       1.0  0.1835  0.32648  0.86365  1.0000
  C   C97       1.0  0.2894599999999999  0.19139999999999996  0.35001  1.0000
  C   C98       1.0  0.79237  0.79129  0.15724  1.0000
  C   C99       1.0  0.29538  0.23264  0.84574  1.0000
  C   C100      1.0  0.08263999999999999  0.34873999999999994  0.41677  1.0000
  C   C101      1.0  0.31528  0.13001  0.6027099999999999  1.0000
  C   C102      1.0  0.73445  0.18956  0.87276  1.0000
  C   C103      1.0  0.18829999999999994  0.8902299999999997  0.37795999999999996  1.0000
  C   C104      1.0  0.98773  0.3753699999999999  0.5259099999999999  1.0000
  C   C105      1.0  0.95428  0.3976  0.9783599999999998  1.0000
  C   C106      1.0  0.16936  0.0854  0.0015  1.0000
  C   C107      1.0  0.89915  0.6630199999999999  0.016949999999999996  1.0000
  C   C108      1.0  0.006580000000000009  0.90202  0.57669  1.0000
  C   C109      1.0  0.20589  0.03954  0.55866  1.0000
  C   C110      1.0  0.71611  0.8378299999999999  0.9459599999999998  1.0000
  C   C111      1.0  0.03521  0.60617  0.53721  1.0000
  C   C112      1.0  0.63742  0.8825099999999999  0.85189  1.0000
  C   C113      1.0  0.14652  0.71806  0.15295999999999998  1.0000
  C   C114      1.0  0.19561  0.30005  0.65809  1.0000
  C   C115      1.0  0.27385999999999977  0.8230799999999998  0.81246  1.0000
  C   C116      1.0  0.67408  0.19618999999999995  0.35891  1.0000
  C   C117      1.0  0.29858  0.85336  0.31127999999999995  1.0000
  C   C118      1.0  0.85552  0.67886  0.8769899999999999  1.0000
  C   C119      1.0  0.044779999999999986  0.10021  0.47881  1.0000
  C   C120      1.0  0.7994699999999999  0.58363  0.39037  1.0000
  C   C121      1.0  0.67948  0.23796  0.8660299999999999  1.0000
  C   C122      1.0  0.70474  0.26738999999999996  0.34559999999999996  1.0000
  C   C123      1.0  0.74662  0.21597  0.6887299999999998  1.0000
  C   C124      1.0  0.04573  0.6024  0.02164  1.0000
  C   C125      1.0  0.7798299999999999  0.84834  0.99315  1.0000
  C   C126      1.0  0.26975  0.8507899999999999  0.63186  1.0000
  C   C127      1.0  0.26477  0.4064499999999999  0.15527999999999995  1.0000
  C   C128      1.0  0.26487  0.9060599999999999  0.34467  1.0000
  C   C129      1.0  0.32622  0.3039  0.85853  1.0000
  C   C130      1.0  0.6845099999999997  0.37011  0.10340999999999997  1.0000
  C   C131      1.0  0.94069  0.65594  0.4674399999999999  1.0000
  C   C132      1.0  0.80439  0.69995  0.34192  1.0000
  C   C133      1.0  0.60072  0.5848  0.2906  1.0000
  C   C134      1.0  0.68353  0.1075  0.17867999999999998  1.0000
  C   C135      1.0  0.18008999999999997  0.28803999999999996  0.3616599999999999  1.0000
  C   C136      1.0  0.15929999999999994  0.34699  0.6194  1.0000
  C   C137      1.0  0.15117  0.75535  0.6486599999999999  1.0000
  C   C138      1.0  0.84884  0.24465  0.35133999999999993  1.0000
  C   C139      1.0  0.32052  0.76204  0.13397  1.0000
  C   C140      1.0  0.20763  0.20871  0.8427599999999997  1.0000
  C   C141      1.0  0.71091  0.30813  0.84926  1.0000
  C   C142      1.0  0.8236599999999998  0.23217  0.6563999999999999  1.0000
  C   C143      1.0  0.34828  0.14163  0.33541  1.0000
  C   C144      1.0  0.68472  0.8699799999999999  0.39728999999999987  1.0000
  C   C145      1.0  0.8407000000000001  0.65301  0.3805999999999999  1.0000
  C   C146      1.0  0.22472  0.15889  0.51507  1.0000
  C   C147      1.0  0.35483  0.18307  0.8326399999999999  1.0000
  C   C148      1.0  0.89294  0.17005  0.9790399999999998  1.0000
  C   C149      1.0  0.95523  0.89979  0.52119  1.0000
  C   C150      1.0  0.79831  0.33016  0.84123  1.0000
  C   C151      1.0  0.7815699999999998  0.34878  0.5052599999999999  1.0000
  C   C152      1.0  0.95234  0.16327  0.53766  1.0000
  C   C153      1.0  0.17991  0.52895  0.46037  1.0000
  C   C154      1.0  0.19573  0.80051  0.84155  1.0000
  C   C155      1.0  0.98946  0.11880999999999999  0.90888  1.0000
  C   C156      1.0  0.70462  0.7673599999999999  0.15425999999999998  1.0000
  C   C157      1.0  0.36258  0.11749  0.14810999999999996  1.0000
  C   C158      1.0  0.32593  0.80382  0.64109  1.0000
  C   C159      1.0  0.99343  0.09797  0.42331  1.0000
  C   C160      1.0  0.8180699999999997  0.9107  0.4837999999999999  1.0000
  C   C161      1.0  0.72811  0.43963  0.10178999999999998  1.0000
  C   C162      1.0  0.62075  0.63003  0.77527  1.0000
  C   C163      1.0  0.2952699999999999  0.7326099999999999  0.6544  1.0000
  C   C164      1.0  0.62082  0.13059999999999997  0.7246999999999999  1.0000
  C   C165      1.0  0.10084999999999997  0.33698  0.9830399999999999  1.0000
  C   C166      1.0  0.8198999999999999  0.71201  0.6383399999999999  1.0000
  C   C167      1.0  0.39895  0.91541  0.7892499999999999  1.0000
  C   C168      1.0  0.8486199999999999  0.74444  0.14845999999999998  1.0000
  C   C169      1.0  0.08163999999999995  0.8488499999999999  0.08291999999999998  1.0000
  C   C170      1.0  0.29688  0.10664999999999998  0.09527  1.0000
  C   C171      1.0  0.97445  0.36528  0.03639  1.0000
  C   C172      1.0  0.20499999999999993  0.5407599999999999  0.9414299999999999  1.0000
  C   C173      1.0  0.0362  0.10656999999999997  0.9641799999999999  1.0000
  C   C174      1.0  0.7302499999999997  0.14921  0.36814  1.0000
  C   C175      1.0  0.18308999999999997  0.8262699999999997  0.63625  1.0000
  C   C176      1.0  0.9408999999999997  0.15599  0.03309999999999999  1.0000
  C   C177      1.0  0.20077999999999996  0.9167699999999999  0.8898  1.0000
  C   C178      1.0  0.7089299999999998  0.8208099999999999  0.44114  1.0000
  C   C179      1.0  0.025550000000000024  0.63472  0.9636099999999997  1.0000
  C   C180      1.0  0.27385  0.3227  0.68705  1.0000
  C   C181      1.0  0.38366  0.15067  0.65223  1.0000
  C   C182      1.0  0.15949999999999998  0.8473899999999999  0.8802  1.0000
  C   C183      1.0  0.73523  0.59355  0.8447099999999998  1.0000
  C   C184      1.0  0.25339  0.78405  0.31126999999999994  1.0000
  C   C185      1.0  0.72615  0.6773  0.3129499999999999  1.0000
  C   C186      1.0  0.73369  0.68987  0.6270299999999998  1.0000
  C   C187      1.0  0.20757000000000003  0.70863  0.65762  1.0000
  C   C188      1.0  0.61634  0.8493199999999999  0.34777  1.0000
  C   C189      1.0  0.29865  0.35379  0.18877  1.0000
  C   C190      1.0  0.28163999999999995  0.6618699999999998  0.44725  1.0000
  C   C191      1.0  0.74617  0.71568  0.8112499999999999  1.0000
  C   C192      1.0  0.6835  0.60792  0.3221399999999999  1.0000
  C   C193      1.0  0.70142  0.14666  0.6887299999999998  1.0000
  C   C194      1.0  0.8231  0.73197  0.84366  1.0000
  C   C195      1.0  0.77382  0.3395599999999999  0.01585  1.0000
  C   C196      1.0  0.20207  0.16949  0.34157999999999994  1.0000
  C   C197      1.0  0.98734  0.8750699999999999  0.9729799999999998  1.0000
  C   C198      1.0  0.9638  0.89343  0.03582  1.0000
  C   C199      1.0  0.80427  0.19948999999999995  0.15845  1.0000
  C   C200      1.0  0.29461  0.60639  0.40618  1.0000
  C   C201      1.0  0.65236  0.35803  0.8340599999999999  1.0000
  C   C202      1.0  0.98799  0.6186  0.5920099999999999  1.0000
  C   C203      1.0  0.73513  0.09394999999999999  0.6553299999999997  1.0000
  C   C204      1.0  0.168  0.58486  0.50055  1.0000
  C   C205      1.0  0.8181700000000001  0.97063  0.95851  1.0000
  C   C206      1.0  0.17634999999999995  0.76784  0.34359999999999996  1.0000
  C   C207      1.0  0.10768999999999998  0.3297799999999999  0.4789  1.0000
  C   C208      1.0  0.8165  0.67352  0.13636  1.0000
  C   C209      1.0  0.81173  0.6095  0.8780799999999999  1.0000
  C   C210      1.0  0.39928  0.41519999999999996  0.7094  1.0000
  C   C211      1.0  0.9750199999999998  0.86727  0.46319  1.0000
  C   C212      1.0  0.05909999999999997  0.84401  0.9668999999999999  1.0000
  C   C213      1.0  0.8116899999999998  0.10977999999999999  0.62204  1.0000
  C   C214      1.0  0.1441  0.82099  0.37694  1.0000
  C   C215      1.0  0.37925  0.36997  0.22472999999999996  1.0000
  C   C216      1.0  0.2924  0.67978  0.94005  1.0000
  O   O1        1.0  0.32061  0.5760599999999999  0.16678  1.0000
  O   O2        1.0  0.6252  0.93785  0.8217699999999998  1.0000
  O   O3        1.0  0.1286  0.375  0.87011  1.0000
  O   O4        1.0  0.07951999999999994  0.82271  0.9046899999999999  1.0000
  O   O5        1.0  0.67122  0.88282  0.16881  1.0000
  O   O6        1.0  0.40774  0.21657  0.66213  1.0000
  O   O7        1.0  0.57363  0.8335299999999998  0.67829  1.0000
  O   O8        1.0  0.06594  0.30182  0.09445999999999997  1.0000
  O   O9        1.0  0.93458  0.19798999999999994  0.59445  1.0000
  O   O10       1.0  0.9208199999999997  0.67731  0.4050199999999999  1.0000
  O   O11       1.0  0.56146  0.52129  0.29571  1.0000
  O   O12       1.0  0.43788999999999995  0.9791499999999999  0.79264  1.0000
  O   O13       1.0  0.5621099999999998  0.020849999999999994  0.20736999999999994  1.0000
  O   O14       1.0  0.87192  0.12524  0.37007999999999996  1.0000
  O   O15       1.0  0.56626  0.7915799999999998  0.17887999999999998  1.0000
  O   O16       1.0  0.07918  0.32269  0.5949799999999998  1.0000
  O   O17       1.0  0.43374  0.20841999999999994  0.82111  1.0000
  O   O18       1.0  0.8713999999999998  0.6249999999999998  0.12988  1.0000
  O   O19       1.0  0.43378  0.3713099999999999  0.74355  1.0000
  O   O20       1.0  0.12549  0.3372299999999999  0.36004  1.0000
  O   O21       1.0  0.67908  0.92416  0.6666  1.0000
  O   O22       1.0  0.5921899999999998  0.28519  0.16498  1.0000
  O   O23       1.0  0.3208099999999999  0.07582  0.3334  1.0000
  O   O24       1.0  0.8841999999999995  0.43031999999999987  0.9730199999999999  1.0000
  O   O25       1.0  0.11580999999999997  0.5696799999999999  0.02698  1.0000
  O   O26       1.0  0.87448  0.6627899999999999  0.63996  1.0000
  O   O27       1.0  0.06542999999999996  0.8020099999999998  0.40555  1.0000
  O   O28       1.0  0.87502  0.1623  0.8603299999999998  1.0000
  O   O29       1.0  0.10527  0.07339999999999999  0.95411  1.0000
  O   O30       1.0  0.4338  0.70825  0.6784099999999998  1.0000
  O   O31       1.0  0.4385399999999998  0.4787099999999999  0.70429  1.0000
  O   O32       1.0  0.42634  0.16637999999999997  0.32169  1.0000
  O   O33       1.0  0.3747999999999999  0.06215  0.17822999999999997  1.0000
  O   O34       1.0  0.11436  0.06673  0.47378999999999993  1.0000
  O   O35       1.0  0.58891  0.40194999999999986  0.18080999999999997  1.0000
  O   O36       1.0  0.41159  0.10054999999999999  0.6809999999999998  1.0000
  O   O37       1.0  0.37471  0.56172  0.32495  1.0000
  O   O38       1.0  0.58721  0.17999999999999994  0.7497899999999998  1.0000
  O   O39       1.0  0.6793999999999998  0.42394  0.83322  1.0000
  O   O40       1.0  0.89473  0.9266  0.04588999999999999  1.0000
  O   O41       1.0  0.56643  0.12888  0.24399999999999997  1.0000
  O   O42       1.0  0.92048  0.17729  0.09530999999999999  1.0000
  O   O43       1.0  0.5871899999999998  0.67941  0.75001  1.0000
  O   O44       1.0  0.3287  0.6171  0.6689199999999998  1.0000
  O   O45       1.0  0.5884  0.89945  0.3190099999999999  1.0000
  O   O46       1.0  0.12498000000000001  0.8377  0.13966999999999993  1.0000
  O   O47       1.0  0.57486  0.33336  0.8185399999999999  1.0000
  O   O48       1.0  0.56622  0.6286899999999999  0.25645  1.0000
  O   O49       1.0  0.88565  0.9332699999999999  0.52621  1.0000
  O   O50       1.0  0.58299  0.06641  0.7338999999999999  1.0000
  O   O51       1.0  0.60426  0.31953999999999994  0.65874  1.0000
  O   O52       1.0  0.32877  0.11717999999999999  0.8311799999999999  1.0000
  O   O53       1.0  0.39937  0.1805  0.15897  1.0000
  O   O54       1.0  0.41700999999999994  0.9336099999999999  0.2661  1.0000
  O   O55       1.0  0.5662  0.29175  0.32158999999999993  1.0000
  O   O56       1.0  0.40781000000000006  0.71481  0.83501  1.0000
  O   O57       1.0  0.4335799999999999  0.87112  0.7559999999999998  1.0000
  O   O58       1.0  0.12809  0.87476  0.6299199999999998  1.0000
  O   O59       1.0  0.41706  0.43409999999999993  0.23376999999999998  1.0000
  O   O60       1.0  0.58294  0.5659  0.7662299999999999  1.0000
  O   O61       1.0  0.3957399999999999  0.68046  0.34124999999999994  1.0000
  O   O62       1.0  0.93407  0.69818  0.90554  1.0000
  O   O63       1.0  0.41282  0.3205899999999999  0.24999999999999994  1.0000
  O   O64       1.0  0.6713  0.3829  0.33108  1.0000
  O   O65       1.0  0.4251400000000001  0.66664  0.18145999999999995  1.0000
  O   O66       1.0  0.62529  0.43828  0.6750499999999999  1.0000
  O   O67       1.0  0.8956199999999997  0.42668  0.45164999999999994  1.0000
  O   O68       1.0  0.41279  0.82002  0.25021  1.0000
  O   O69       1.0  0.5922699999999997  0.78343  0.33786  1.0000
  O   O70       1.0  0.10436999999999998  0.57332  0.5483599999999998  1.0000
  O   O71       1.0  0.41109  0.59805  0.81919  1.0000
  O   O72       1.0  0.60063  0.8194899999999998  0.8410299999999999  1.0000
