data_image0
_chemical_formula_structural       Co8H144C212N32O32
_chemical_formula_sum              "Co8 H144 C212 N32 O32"
_cell_length_a       14.18106
_cell_length_b       20.36096
_cell_length_c       21.42242
_cell_angle_alpha    108.42377
_cell_angle_beta     109.45768
_cell_angle_gamma    89.9069

_symmetry_space_group_name_H-M    'P 1'
_symmetry_Int_Tables_number       1

loop_
  _symmetry_equiv_pos_as_xyz
  'x,y,z'

loop_
  _atom_site_type_symbol
  _atom_site_label
  _atom_site_symmetry_multiplicity
  _atom_site_fract_x
  _atom_site_fract_y
  _atom_site_fract_z
  _atom_site_occupancy
  Co  Co1       1.0  0.87961  0.8835199999999997  0.82942  1.0000
  Co  Co2       1.0  0.43605999999999995  0.6646399999999999  0.55674  1.0000
  Co  Co3       1.0  0.050179999999999995  0.61717  0.17012  1.0000
  Co  Co4       1.0  0.87922  0.83346  0.44316  1.0000
  Co  Co5       1.0  0.12039000000000001  0.11647999999999997  0.17058000000000004  1.0000
  Co  Co6       1.0  0.56394  0.33536  0.44327000000000005  1.0000
  Co  Co7       1.0  0.94982  0.38283  0.82988  1.0000
  Co  Co8       1.0  0.12078  0.16652999999999998  0.55685  1.0000
  H   H1        1.0  0.91471  0.63419  0.84969  1.0000
  H   H2        1.0  0.9101199999999998  0.47487  0.66033  1.0000
  H   H3        1.0  0.88329  0.5631899999999999  0.5988  1.0000
  H   H4        1.0  0.87017  0.6859599999999999  0.66328  1.0000
  H   H5        1.0  0.03670999999999995  0.82383  0.93907  1.0000
  H   H6        1.0  0.25924  0.97946  0.96439  1.0000
  H   H7        1.0  0.07399000000000001  0.9914199999999999  0.87095  1.0000
  H   H8        1.0  0.13557  0.8568899999999999  0.06565  1.0000
  H   H9        1.0  0.26066  0.82763  0.16126  1.0000
  H   H10       1.0  0.49415  0.86518  0.08575  1.0000
  H   H11       1.0  0.36669  0.8897  0.98639  1.0000
  H   H12       1.0  0.8847399999999997  0.71914  0.15802  1.0000
  H   H13       1.0  0.67042  0.55102  0.11630000000000001  1.0000
  H   H14       1.0  0.8540399999999999  0.5018  0.11409999999999998  1.0000
  H   H15       1.0  0.7858299999999998  0.75517  0.25647  1.0000
  H   H16       1.0  0.6644299999999997  0.83708  0.28229  1.0000
  H   H17       1.0  0.45065  0.7339199999999999  0.07415  1.0000
  H   H18       1.0  0.5715  0.65001  0.04974  1.0000
  H   H19       1.0  0.50469  0.73297  0.45946  1.0000
  H   H20       1.0  0.22743  0.62547  0.42439  1.0000
  H   H21       1.0  0.20469999999999997  0.6732700000000001  0.31292  1.0000
  H   H22       1.0  0.48033  0.83224  0.41579  1.0000
  H   H23       1.0  0.52531  0.8863499999999999  0.34188  1.0000
  H   H24       1.0  0.3420099999999999  0.7202899999999998  0.1566  1.0000
  H   H25       1.0  0.2982999999999999  0.66453  0.23156999999999997  1.0000
  H   H26       1.0  0.4662999999999999  0.17609  0.35177  1.0000
  H   H27       1.0  0.7466  0.28473999999999994  0.39773  1.0000
  H   H28       1.0  0.75187  0.14457  0.32853  1.0000
  H   H29       1.0  0.42586  0.06757  0.31334  1.0000
  H   H30       1.0  0.3773  0.9423500000000002  0.26069  1.0000
  H   H31       1.0  0.6527699999999999  0.91504  0.21705000000000002  1.0000
  H   H32       1.0  0.7025200000000001  0.04061999999999999  0.26962  1.0000
  H   H33       1.0  0.3893499999999999  0.45748  0.49218999999999996  1.0000
  H   H34       1.0  0.20360999999999996  0.28183  0.4741  1.0000
  H   H35       1.0  0.09487  0.36254  0.52579  1.0000
  H   H36       1.0  0.13526  0.49153  0.56034  1.0000
  H   H37       1.0  0.06459  0.86638  0.15029  1.0000
  H   H38       1.0  0.25059  0.02481  0.34014  1.0000
  H   H39       1.0  0.28403000000000006  0.9364  0.40151000000000003  1.0000
  H   H40       1.0  0.20503  0.8139799999999999  0.33671  1.0000
  H   H41       1.0  0.09734  0.67633  0.06042000000000001  1.0000
  H   H42       1.0  0.29567  0.52101  0.03608  1.0000
  H   H43       1.0  0.20401  0.50888  0.1291  1.0000
  H   H44       1.0  0.07017000000000004  0.64395  0.93442  1.0000
  H   H45       1.0  0.09968000000000005  0.6729399999999998  0.83903  1.0000
  H   H46       1.0  0.4091  0.63525  0.91524  1.0000
  H   H47       1.0  0.3811  0.61084  0.01441  1.0000
  H   H48       1.0  0.7272200000000001  0.78048  0.8417100000000001  1.0000
  H   H49       1.0  0.55406  0.9484899999999999  0.8839400000000001  1.0000
  H   H50       1.0  0.73936  0.9979199999999998  0.88597  1.0000
  H   H51       1.0  0.52844  0.74444  0.7434400000000001  1.0000
  H   H52       1.0  0.38128  0.66291  0.71815  1.0000
  H   H53       1.0  0.37807  0.7661399999999999  0.9266100000000002  1.0000
  H   H54       1.0  0.52349  0.8496899999999998  0.9507100000000002  1.0000
  H   H55       1.0  0.04470000000000006  0.7663499999999998  0.5409100000000001  1.0000
  H   H56       1.0  0.8029499999999999  0.87504  0.57562  1.0000
  H   H57       1.0  0.89249  0.82785  0.68772  1.0000
  H   H58       1.0  0.06467999999999996  0.66814  0.58477  1.0000
  H   H59       1.0  0.18355999999999995  0.6137  0.65883  1.0000
  H   H60       1.0  0.1862500000000001  0.7800399999999997  0.8439800000000001  1.0000
  H   H61       1.0  0.06720999999999998  0.83599  0.7688  1.0000
  H   H62       1.0  0.11554000000000006  0.32489  0.64926  1.0000
  H   H63       1.0  0.34925  0.2158  0.60254  1.0000
  H   H64       1.0  0.42399  0.35608000000000006  0.67171  1.0000
  H   H65       1.0  0.11297999999999996  0.43294  0.68667  1.0000
  H   H66       1.0  0.11673000000000006  0.55813  0.73966  1.0000
  H   H67       1.0  0.43624999999999997  0.58541  0.78413  1.0000
  H   H68       1.0  0.43374  0.4598  0.73139  1.0000
  H   H69       1.0  0.89932  0.04375999999999999  0.50758  1.0000
  H   H70       1.0  0.7264  0.21717  0.52437  1.0000
  H   H71       1.0  0.56765  0.13501  0.4736  1.0000
  H   H72       1.0  0.57702  0.006230000000000013  0.4395  1.0000
  H   H73       1.0  0.08529  0.36581  0.15032  1.0000
  H   H74       1.0  0.08987999999999995  0.52512  0.33967  1.0000
  H   H75       1.0  0.11671  0.43680999999999987  0.4012  1.0000
  H   H76       1.0  0.12983  0.31404  0.33672  1.0000
  H   H77       1.0  0.96329  0.17617  0.06093  1.0000
  H   H78       1.0  0.74076  0.02054  0.03561  1.0000
  H   H79       1.0  0.9260199999999998  0.008579999999999999  0.12906  1.0000
  H   H80       1.0  0.86443  0.14311000000000007  0.9343500000000001  1.0000
  H   H81       1.0  0.7393400000000001  0.17237000000000002  0.8387400000000002  1.0000
  H   H82       1.0  0.50585  0.13482  0.91425  1.0000
  H   H83       1.0  0.6333099999999999  0.1103  0.013610000000000002  1.0000
  H   H84       1.0  0.11525999999999999  0.28085  0.84198  1.0000
  H   H85       1.0  0.32958000000000004  0.44897999999999993  0.8837000000000002  1.0000
  H   H86       1.0  0.14596000000000003  0.49819999999999987  0.8859  1.0000
  H   H87       1.0  0.21416999999999992  0.24482999999999996  0.74353  1.0000
  H   H88       1.0  0.3355699999999999  0.16290999999999997  0.71771  1.0000
  H   H89       1.0  0.5493499999999998  0.2660799999999999  0.92585  1.0000
  H   H90       1.0  0.42849999999999994  0.3499899999999999  0.95026  1.0000
  H   H91       1.0  0.4953099999999999  0.26702999999999993  0.54054  1.0000
  H   H92       1.0  0.7725699999999998  0.37453  0.57561  1.0000
  H   H93       1.0  0.7953  0.32672  0.68708  1.0000
  H   H94       1.0  0.51967  0.16775  0.58421  1.0000
  H   H95       1.0  0.47468999999999983  0.11365000000000003  0.65812  1.0000
  H   H96       1.0  0.65799  0.27971000000000007  0.8434000000000001  1.0000
  H   H97       1.0  0.7017  0.33546999999999993  0.76843  1.0000
  H   H98       1.0  0.5337  0.8238999999999999  0.64823  1.0000
  H   H99       1.0  0.2534  0.71526  0.60227  1.0000
  H   H100      1.0  0.24812999999999996  0.8554199999999998  0.67147  1.0000
  H   H101      1.0  0.57414  0.93243  0.68666  1.0000
  H   H102      1.0  0.6227  0.05764999999999999  0.73931  1.0000
  H   H103      1.0  0.34723  0.08495  0.78296  1.0000
  H   H104      1.0  0.29748  0.9593799999999999  0.73038  1.0000
  H   H105      1.0  0.61065  0.5425199999999999  0.50781  1.0000
  H   H106      1.0  0.79639  0.71817  0.52591  1.0000
  H   H107      1.0  0.9051299999999999  0.6374499999999999  0.47421  1.0000
  H   H108      1.0  0.86474  0.50847  0.43966  1.0000
  H   H109      1.0  0.9354100000000001  0.13361000000000003  0.8497100000000001  1.0000
  H   H110      1.0  0.74941  0.97519  0.65986  1.0000
  H   H111      1.0  0.71597  0.06359999999999996  0.59849  1.0000
  H   H112      1.0  0.7949699999999997  0.18602  0.66329  1.0000
  H   H113      1.0  0.9026599999999999  0.32367  0.93959  1.0000
  H   H114      1.0  0.7043300000000002  0.47899  0.9639200000000001  1.0000
  H   H115      1.0  0.79599  0.49110999999999994  0.8709  1.0000
  H   H116      1.0  0.92983  0.3560499999999999  0.06559  1.0000
  H   H117      1.0  0.90032  0.32706  0.16097  1.0000
  H   H118      1.0  0.59091  0.3647500000000001  0.08476  1.0000
  H   H119      1.0  0.6189  0.38915999999999995  0.9855900000000001  1.0000
  H   H120      1.0  0.27278  0.21952  0.15829  1.0000
  H   H121      1.0  0.44594  0.05151  0.11606  1.0000
  H   H122      1.0  0.26064  0.0020800000000000007  0.11403  1.0000
  H   H123      1.0  0.4715599999999999  0.25556  0.25657  1.0000
  H   H124      1.0  0.61873  0.33708  0.28186  1.0000
  H   H125      1.0  0.62193  0.23385999999999996  0.07339  1.0000
  H   H126      1.0  0.47651  0.15029999999999996  0.04929  1.0000
  H   H127      1.0  0.9552999999999998  0.23364999999999997  0.45908999999999994  1.0000
  H   H128      1.0  0.19705  0.12495999999999997  0.42438  1.0000
  H   H129      1.0  0.10751999999999996  0.17213999999999996  0.31229  1.0000
  H   H130      1.0  0.9353299999999998  0.33185999999999993  0.41523  1.0000
  H   H131      1.0  0.8164400000000002  0.38628999999999997  0.34118  1.0000
  H   H132      1.0  0.81376  0.21996  0.15603  1.0000
  H   H133      1.0  0.93279  0.16401  0.2312  1.0000
  H   H134      1.0  0.88446  0.6750999999999999  0.35074000000000005  1.0000
  H   H135      1.0  0.65075  0.7841899999999998  0.39746  1.0000
  H   H136      1.0  0.5760099999999999  0.6439199999999999  0.32829  1.0000
  H   H137      1.0  0.88702  0.56706  0.31333  1.0000
  H   H138      1.0  0.88328  0.44187  0.26035  1.0000
  H   H139      1.0  0.56375  0.41457999999999995  0.21588  1.0000
  H   H140      1.0  0.56627  0.5401999999999999  0.26861  1.0000
  H   H141      1.0  0.10067999999999999  0.95624  0.49241999999999997  1.0000
  H   H142      1.0  0.2736  0.78283  0.47563000000000005  1.0000
  H   H143      1.0  0.43235  0.86498  0.5264  1.0000
  H   H144      1.0  0.42298  0.99377  0.5605  1.0000
  C   C1        1.0  0.88737  0.7420599999999997  0.80156  1.0000
  C   C2        1.0  0.8923  0.6680699999999998  0.76075  1.0000
  C   C3        1.0  0.90817  0.6184499999999998  0.79482  1.0000
  C   C4        1.0  0.91515  0.54911  0.75899  1.0000
  C   C5        1.0  0.93473  0.49801999999999996  0.79746  1.0000
  C   C6        1.0  0.90539  0.52909  0.68786  1.0000
  C   C7        1.0  0.8904000000000001  0.57843  0.6537300000000001  1.0000
  C   C8        1.0  0.8833199999999999  0.64756  0.68983  1.0000
  C   C9        1.0  0.07183  0.86811  0.93395  1.0000
  C   C10       1.0  0.18702999999999997  0.9484699999999999  0.94349  1.0000
  C   C11       1.0  0.09542  0.95413  0.89812  1.0000
  C   C12       1.0  0.24292  0.8733999999999998  0.0192  1.0000
  C   C13       1.0  0.21307999999999996  0.85481  0.06772  1.0000
  C   C14       1.0  0.28491999999999995  0.8393299999999999  0.12248999999999999  1.0000
  C   C15       1.0  0.38683  0.84323  0.13027  1.0000
  C   C16       1.0  0.4150599999999999  0.8611999999999999  0.08018  1.0000
  C   C17       1.0  0.3441699999999999  0.8757899999999998  0.0248  1.0000
  C   C18       1.0  0.4706  0.84043  0.19694000000000003  1.0000
  C   C19       1.0  0.85258  0.6668  0.14712  1.0000
  C   C20       1.0  0.74095  0.57721  0.12264  1.0000
  C   C21       1.0  0.83158  0.55376  0.1223  1.0000
  C   C22       1.0  0.68558  0.69769  0.15164  1.0000
  C   C23       1.0  0.71261  0.75119  0.21652  1.0000
  C   C24       1.0  0.64407  0.7977099999999999  0.23039  1.0000
  C   C25       1.0  0.54921  0.79298  0.17915  1.0000
  C   C26       1.0  0.5239  0.73895  0.11440000000000002  1.0000
  C   C27       1.0  0.59113  0.6912299999999999  0.10041000000000001  1.0000
  C   C28       1.0  0.42673  0.7099999999999999  0.43505  1.0000
  C   C29       1.0  0.28202  0.65338  0.41394  1.0000
  C   C30       1.0  0.26983  0.6759900000000001  0.35822  1.0000
  C   C31       1.0  0.38584  0.74468  0.32857  1.0000
  C   C32       1.0  0.4492699999999999  0.80732  0.35907  1.0000
  C   C33       1.0  0.4735  0.8386899999999999  0.31633  1.0000
  C   C34       1.0  0.43427000000000004  0.8091899999999999  0.24303000000000002  1.0000
  C   C35       1.0  0.37126999999999993  0.7458099999999999  0.21330000000000002  1.0000
  C   C36       1.0  0.3467499999999999  0.71369  0.25536  1.0000
  C   C37       1.0  0.5424499999999998  0.18605999999999992  0.35379  1.0000
  C   C38       1.0  0.69008  0.24004  0.37671  1.0000
  C   C39       1.0  0.69209  0.17128  0.34221000000000007  1.0000
  C   C40       1.0  0.56842  0.06377999999999999  0.29562  1.0000
  C   C41       1.0  0.47653  0.034949999999999995  0.29254  1.0000
  C   C42       1.0  0.44918  0.9633899999999997  0.26273  1.0000
  C   C43       1.0  0.5117  0.91822  0.23546000000000003  1.0000
  C   C44       1.0  0.60242  0.94781  0.23809  1.0000
  C   C45       1.0  0.63093  0.019749999999999997  0.26791  1.0000
  C   C46       1.0  0.29263999999999996  0.5596299999999998  0.54886  1.0000
  C   C47       1.0  0.26655  0.48265999999999987  0.52992  1.0000
  C   C48       1.0  0.32516  0.4366399999999999  0.49977  1.0000
  C   C49       1.0  0.30148  0.36445  0.4785  1.0000
  C   C50       1.0  0.3669  0.3168  0.44671000000000005  1.0000
  C   C51       1.0  0.21917  0.338  0.48925  1.0000
  C   C52       1.0  0.1592899999999999  0.38359999999999994  0.51836  1.0000
  C   C53       1.0  0.18214  0.45577999999999996  0.53829  1.0000
  C   C54       1.0  0.08426999999999997  0.7582999999999998  0.19861  1.0000
  C   C55       1.0  0.13032  0.83224  0.23927999999999996  1.0000
  C   C56       1.0  0.11287  0.88193  0.20522  1.0000
  C   C57       1.0  0.15631  0.95113  0.24127  1.0000
  C   C58       1.0  0.13774  0.0029100000000000033  0.20361  1.0000
  C   C59       1.0  0.21780999999999998  0.9707399999999999  0.31246  1.0000
  C   C60       1.0  0.23624000000000003  0.92134  0.34651  1.0000
  C   C61       1.0  0.19218999999999997  0.8524699999999998  0.31027  1.0000
  C   C62       1.0  0.13793  0.63218  0.06591  1.0000
  C   C63       1.0  0.24406  0.5519  0.05674  1.0000
  C   C64       1.0  0.19785  0.54623  0.10196  1.0000
  C   C65       1.0  0.22412  0.6270599999999998  0.98116  1.0000
  C   C66       1.0  0.14572000000000002  0.6458299999999998  0.9325700000000001  1.0000
  C   C67       1.0  0.16284000000000004  0.66125  0.8779300000000001  1.0000
  C   C68       1.0  0.25707999999999986  0.6572499999999999  0.87039  1.0000
  C   C69       1.0  0.33548000000000006  0.6392300000000001  0.9206200000000001  1.0000
  C   C70       1.0  0.31992999999999994  0.62462  0.97585  1.0000
  C   C71       1.0  0.27412  0.6598799999999999  0.80381  1.0000
  C   C72       1.0  0.70564  0.8327999999999999  0.85252  1.0000
  C   C73       1.0  0.61831  0.9223499999999999  0.8774499999999998  1.0000
  C   C74       1.0  0.70899  0.94587  0.8775800000000001  1.0000
  C   C75       1.0  0.53442  0.80193  0.84857  1.0000
  C   C76       1.0  0.49587  0.7485199999999999  0.78364  1.0000
  C   C77       1.0  0.41346999999999995  0.70223  0.7700300000000001  1.0000
  C   C78       1.0  0.37055  0.7071200000000001  0.82149  1.0000
  C   C79       1.0  0.41064999999999996  0.7610199999999999  0.88626  1.0000
  C   C80       1.0  0.49192999999999987  0.8085099999999997  0.9000499999999999  1.0000
  C   C81       1.0  0.9911800000000001  0.78953  0.5652500000000001  1.0000
  C   C82       1.0  0.86787  0.84685  0.58622  1.0000
  C   C83       1.0  0.91195  0.8247699999999999  0.6423000000000001  1.0000
  C   C84       1.0  0.05760999999999996  0.75569  0.67201  1.0000
  C   C85       1.0  0.09045000000000004  0.69298  0.6415  1.0000
  C   C86       1.0  0.15743999999999994  0.6614999999999999  0.68429  1.0000
  C   C87       1.0  0.19161  0.69108  0.75758  1.0000
  C   C88       1.0  0.15855  0.7545700000000001  0.78727  1.0000
  C   C89       1.0  0.09188000000000002  0.78676  0.74516  1.0000
  C   C90       1.0  0.18952000000000005  0.31477  0.6469700000000002  1.0000
  C   C91       1.0  0.31398  0.26061999999999996  0.62366  1.0000
  C   C92       1.0  0.3506099999999999  0.32935  0.65815  1.0000
  C   C93       1.0  0.2735  0.43680999999999987  0.70501  1.0000
  C   C94       1.0  0.18446999999999994  0.46557  0.70786  1.0000
  C   C95       1.0  0.18673  0.53707  0.73782  1.0000
  C   C96       1.0  0.27663999999999994  0.58213  0.76538  1.0000
  C   C97       1.0  0.36490999999999996  0.5525999999999999  0.76291  1.0000
  C   C98       1.0  0.36379  0.48072  0.733  1.0000
  C   C99       1.0  0.74645  0.93989  0.45148  1.0000
  C   C100      1.0  0.7386700000000002  0.016850000000000014  0.4699900000000001  1.0000
  C   C101      1.0  0.8266899999999999  0.06366000000000001  0.49982  1.0000
  C   C102      1.0  0.82251  0.13577  0.52037  1.0000
  C   C103      1.0  0.9188099999999999  0.18449  0.55135  1.0000
  C   C104      1.0  0.7284499999999999  0.16114  0.50962  1.0000
  C   C105      1.0  0.64028  0.11477999999999997  0.48091999999999996  1.0000
  C   C106      1.0  0.64506  0.04278999999999999  0.46136999999999995  1.0000
  C   C107      1.0  0.11263  0.25793999999999995  0.19844  1.0000
  C   C108      1.0  0.10769999999999999  0.33192000000000005  0.23926000000000003  1.0000
  C   C109      1.0  0.09183  0.38154  0.20518  1.0000
  C   C110      1.0  0.08485  0.4508899999999999  0.24101  1.0000
  C   C111      1.0  0.06528  0.50197  0.20254  1.0000
  C   C112      1.0  0.09461  0.47090999999999994  0.31214  1.0000
  C   C113      1.0  0.1096  0.42155999999999993  0.34627  1.0000
  C   C114      1.0  0.11667999999999995  0.35243999999999986  0.31017  1.0000
  C   C115      1.0  0.92817  0.13189  0.06605  1.0000
  C   C116      1.0  0.8129699999999999  0.05153  0.05652000000000001  1.0000
  C   C117      1.0  0.90458  0.045869999999999994  0.10188  1.0000
  C   C118      1.0  0.75708  0.12658999999999995  0.9808  1.0000
  C   C119      1.0  0.7869199999999998  0.14518999999999999  0.93228  1.0000
  C   C120      1.0  0.7150800000000002  0.16067000000000004  0.8775200000000001  1.0000
  C   C121      1.0  0.6131699999999998  0.15676  0.86973  1.0000
  C   C122      1.0  0.58495  0.13878999999999994  0.91982  1.0000
  C   C123      1.0  0.6558299999999998  0.12420999999999995  0.9751999999999998  1.0000
  C   C124      1.0  0.5294  0.15955999999999998  0.80306  1.0000
  C   C125      1.0  0.1474199999999999  0.3332  0.85288  1.0000
  C   C126      1.0  0.2590600000000001  0.42278999999999994  0.87736  1.0000
  C   C127      1.0  0.16842  0.4462399999999999  0.8777  1.0000
  C   C128      1.0  0.31442  0.3023  0.84836  1.0000
  C   C129      1.0  0.28739  0.24880999999999995  0.78348  1.0000
  C   C130      1.0  0.35593  0.20228  0.76961  1.0000
  C   C131      1.0  0.4507900000000001  0.2070200000000001  0.8208500000000001  1.0000
  C   C132      1.0  0.47611  0.26103999999999994  0.8856  1.0000
  C   C133      1.0  0.40887  0.30877  0.89959  1.0000
  C   C134      1.0  0.57327  0.29  0.56495  1.0000
  C   C135      1.0  0.71798  0.34661  0.58607  1.0000
  C   C136      1.0  0.73017  0.32399999999999995  0.64178  1.0000
  C   C137      1.0  0.61416  0.25531  0.67143  1.0000
  C   C138      1.0  0.55073  0.19267  0.64093  1.0000
  C   C139      1.0  0.5265  0.16131  0.68367  1.0000
  C   C140      1.0  0.5657299999999998  0.19080000000000003  0.7569700000000001  1.0000
  C   C141      1.0  0.62873  0.25418999999999997  0.7867  1.0000
  C   C142      1.0  0.65325  0.2863  0.74464  1.0000
  C   C143      1.0  0.45755  0.81394  0.64621  1.0000
  C   C144      1.0  0.3099199999999999  0.7599499999999998  0.62329  1.0000
  C   C145      1.0  0.30790999999999996  0.82872  0.65779  1.0000
  C   C146      1.0  0.43158  0.9362199999999999  0.70438  1.0000
  C   C147      1.0  0.52347  0.9650499999999997  0.70747  1.0000
  C   C148      1.0  0.55083  0.03659999999999998  0.73727  1.0000
  C   C149      1.0  0.4882999999999998  0.08176999999999997  0.76455  1.0000
  C   C150      1.0  0.39758  0.05219  0.76191  1.0000
  C   C151      1.0  0.36907  0.9802399999999999  0.73209  1.0000
  C   C152      1.0  0.70736  0.4403599999999999  0.45114000000000004  1.0000
  C   C153      1.0  0.73345  0.51734  0.47007999999999994  1.0000
  C   C154      1.0  0.67484  0.56336  0.50023  1.0000
  C   C155      1.0  0.69852  0.63555  0.5215  1.0000
  C   C156      1.0  0.6330999999999999  0.6831899999999999  0.5533  1.0000
  C   C157      1.0  0.78083  0.662  0.51076  1.0000
  C   C158      1.0  0.84071  0.6164  0.48164  1.0000
  C   C159      1.0  0.81786  0.5442199999999999  0.46171  1.0000
  C   C160      1.0  0.9157300000000002  0.24169000000000002  0.8013900000000002  1.0000
  C   C161      1.0  0.8696799999999998  0.1677599999999999  0.76072  1.0000
  C   C162      1.0  0.8871299999999998  0.11806  0.7947800000000002  1.0000
  C   C163      1.0  0.8437  0.04886000000000001  0.75873  1.0000
  C   C164      1.0  0.8622599999999999  0.99709  0.7964  1.0000
  C   C165      1.0  0.78219  0.02925000000000004  0.68754  1.0000
  C   C166      1.0  0.7637599999999998  0.07865  0.65349  1.0000
  C   C167      1.0  0.8078099999999998  0.14753000000000002  0.68973  1.0000
  C   C168      1.0  0.86207  0.36780999999999997  0.9341000000000002  1.0000
  C   C169      1.0  0.75594  0.44808999999999993  0.9432600000000001  1.0000
  C   C170      1.0  0.8021499999999999  0.45376  0.89804  1.0000
  C   C171      1.0  0.77588  0.37294  0.01884  1.0000
  C   C172      1.0  0.85428  0.35416  0.06743  1.0000
  C   C173      1.0  0.83716  0.33874999999999994  0.12208  1.0000
  C   C174      1.0  0.7429199999999999  0.34274999999999994  0.12961  1.0000
  C   C175      1.0  0.6645199999999999  0.36076999999999987  0.07938  1.0000
  C   C176      1.0  0.68007  0.3753799999999999  0.024150000000000005  1.0000
  C   C177      1.0  0.72588  0.34010999999999997  0.19619  1.0000
  C   C178      1.0  0.29435999999999996  0.16718999999999998  0.14748  1.0000
  C   C179      1.0  0.38169  0.07764  0.12255000000000002  1.0000
  C   C180      1.0  0.29101  0.054119999999999994  0.12241999999999999  1.0000
  C   C181      1.0  0.46557999999999994  0.19807  0.15144  1.0000
  C   C182      1.0  0.50413  0.25148  0.21636  1.0000
  C   C183      1.0  0.58653  0.29777  0.22997  1.0000
  C   C184      1.0  0.62945  0.2928799999999999  0.17851  1.0000
  C   C185      1.0  0.5893499999999999  0.23896999999999996  0.11375  1.0000
  C   C186      1.0  0.50807  0.19149  0.09995  1.0000
  C   C187      1.0  0.008819999999999986  0.21046999999999996  0.43475  1.0000
  C   C188      1.0  0.13213  0.15315  0.41379  1.0000
  C   C189      1.0  0.08805000000000003  0.17522999999999994  0.3577  1.0000
  C   C190      1.0  0.94239  0.2443  0.328  1.0000
  C   C191      1.0  0.9095500000000001  0.30702  0.35850000000000004  1.0000
  C   C192      1.0  0.84256  0.3385  0.31571  1.0000
  C   C193      1.0  0.80839  0.30892  0.24243  1.0000
  C   C194      1.0  0.84146  0.24541999999999997  0.21273  1.0000
  C   C195      1.0  0.90812  0.21322999999999998  0.25484  1.0000
  C   C196      1.0  0.8104799999999999  0.6852199999999999  0.35303  1.0000
  C   C197      1.0  0.68602  0.7393799999999997  0.37634  1.0000
  C   C198      1.0  0.64939  0.67064  0.34185  1.0000
  C   C199      1.0  0.7265  0.56318  0.29499  1.0000
  C   C200      1.0  0.8155299999999999  0.5344199999999999  0.29214  1.0000
  C   C201      1.0  0.8132699999999999  0.46293  0.26218  1.0000
  C   C202      1.0  0.72336  0.41787  0.23462  1.0000
  C   C203      1.0  0.63509  0.44739  0.23708999999999997  1.0000
  C   C204      1.0  0.63621  0.5192800000000001  0.267  1.0000
  C   C205      1.0  0.25355  0.0601  0.54852  1.0000
  C   C206      1.0  0.26133  0.98315  0.53001  1.0000
  C   C207      1.0  0.17331  0.9363299999999998  0.50018  1.0000
  C   C208      1.0  0.17749000000000004  0.8642299999999998  0.47963000000000006  1.0000
  C   C209      1.0  0.08120000000000002  0.8155099999999998  0.44866000000000006  1.0000
  C   C210      1.0  0.27155000000000007  0.8388599999999999  0.49039000000000005  1.0000
  C   C211      1.0  0.35972  0.88522  0.51908  1.0000
  C   C212      1.0  0.35494  0.95721  0.53863  1.0000
  N   N1        1.0  0.024479999999999977  0.9035899999999998  0.89227  1.0000
  N   N2        1.0  0.17123  0.89391  0.96637  1.0000
  N   N3        1.0  0.90028  0.60997  0.13736  1.0000
  N   N4        1.0  0.75536  0.64923  0.13874  1.0000
  N   N5        1.0  0.37986  0.6746500000000001  0.46138000000000007  1.0000
  N   N6        1.0  0.36199  0.7118  0.37198  1.0000
  N   N7        1.0  0.59643  0.24857999999999994  0.3835  1.0000
  N   N8        1.0  0.59823  0.13684  0.32747  1.0000
  N   N9        1.0  0.13248  0.59679  0.10765000000000001  1.0000
  N   N10       1.0  0.20509999999999998  0.60643  0.03375  1.0000
  N   N11       1.0  0.76271  0.8897  0.86218  1.0000
  N   N12       1.0  0.61691  0.85033  0.86122  1.0000
  N   N13       1.0  0.9177099999999998  0.8247399999999998  0.53864  1.0000
  N   N14       1.0  0.9901500000000001  0.78857  0.62858  1.0000
  N   N15       1.0  0.21365000000000006  0.25225  0.61709  1.0000
  N   N16       1.0  0.2715999999999999  0.36383  0.6731  1.0000
  N   N17       1.0  0.9755199999999998  0.09639999999999997  0.10773  1.0000
  N   N18       1.0  0.82877  0.10609  0.03363  1.0000
  N   N19       1.0  0.09972000000000002  0.3900199999999999  0.86264  1.0000
  N   N20       1.0  0.24464  0.35076999999999997  0.8612599999999999  1.0000
  N   N21       1.0  0.6201399999999999  0.32535  0.53862  1.0000
  N   N22       1.0  0.63801  0.2882  0.62802  1.0000
  N   N23       1.0  0.40356999999999993  0.7514199999999998  0.61651  1.0000
  N   N24       1.0  0.40177  0.86315  0.67253  1.0000
  N   N25       1.0  0.86752  0.40321  0.8923599999999999  1.0000
  N   N26       1.0  0.7949  0.3935699999999999  0.96625  1.0000
  N   N27       1.0  0.23729  0.1103  0.13782  1.0000
  N   N28       1.0  0.38309  0.14967  0.13878  1.0000
  N   N29       1.0  0.08229  0.17525999999999997  0.46136  1.0000
  N   N30       1.0  0.00985  0.21143  0.37142  1.0000
  N   N31       1.0  0.78635  0.74774  0.38291  1.0000
  N   N32       1.0  0.7284  0.6361599999999998  0.3269  1.0000
  O   O1        1.0  0.87077  0.78603  0.76734  1.0000
  O   O2        1.0  0.8992899999999997  0.7593599999999998  0.8658199999999999  1.0000
  O   O3        1.0  0.91395  0.43212  0.75985  1.0000
  O   O4        1.0  0.97014  0.51844  0.86367  1.0000
  O   O5        1.0  0.38517  0.57717  0.55599  1.0000
  O   O6        1.0  0.22832  0.6009299999999999  0.55551  1.0000
  O   O7        1.0  0.4244799999999999  0.34772  0.42518  1.0000
  O   O8        1.0  0.36661000000000005  0.25462000000000007  0.44433000000000006  1.0000
  O   O9        1.0  0.10014  0.71464  0.23325  1.0000
  O   O10       1.0  0.03323  0.7406  0.13404  1.0000
  O   O11       1.0  0.15675  0.06857  0.24179000000000003  1.0000
  O   O12       1.0  0.10497  0.9837599999999999  0.13737  1.0000
  O   O13       1.0  0.83195  0.92228  0.44465  1.0000
  O   O14       1.0  0.67554  0.89867  0.44495  1.0000
  O   O15       1.0  0.9991799999999998  0.15506  0.57444  1.0000
  O   O16       1.0  0.91903  0.24608999999999998  0.55185  1.0000
  O   O17       1.0  0.12923000000000004  0.21397  0.23266  1.0000
  O   O18       1.0  0.10071  0.24063  0.13418  1.0000
  O   O19       1.0  0.08605  0.5678699999999998  0.24015  1.0000
  O   O20       1.0  0.029860000000000008  0.48155999999999993  0.13633  1.0000
  O   O21       1.0  0.61483  0.42283  0.44402  1.0000
  O   O22       1.0  0.77168  0.39907  0.44449  1.0000
  O   O23       1.0  0.57553  0.65228  0.57482  1.0000
  O   O24       1.0  0.6334  0.74537  0.55567  1.0000
  O   O25       1.0  0.89986  0.2853599999999999  0.76676  1.0000
  O   O26       1.0  0.96677  0.25939  0.8659600000000001  1.0000
  O   O27       1.0  0.84325  0.93143  0.75821  1.0000
  O   O28       1.0  0.8950300000000001  0.01623000000000002  0.8626300000000001  1.0000
  O   O29       1.0  0.16805  0.07772  0.55536  1.0000
  O   O30       1.0  0.32446  0.10132  0.55505  1.0000
  O   O31       1.0  0.0008199999999999766  0.8449299999999998  0.42555999999999994  1.0000
  O   O32       1.0  0.08096999999999997  0.7538999999999999  0.44814999999999994  1.0000
