data_image0
_chemical_formula_structural       Ag16H128C148S68N32O12F12
_chemical_formula_sum              "Ag16 H128 C148 S68 N32 O12 F12"
_cell_length_a       12.4466
_cell_length_b       20.76319
_cell_length_c       26.19776
_cell_angle_alpha    89.7961
_cell_angle_beta     90.6806
_cell_angle_gamma    89.99595000000001

_space_group_name_H-M_alt    "P 1"
_space_group_IT_number       1

loop_
  _space_group_symop_operation_xyz
  'x, y, z'

loop_
  _atom_site_type_symbol
  _atom_site_label
  _atom_site_symmetry_multiplicity
  _atom_site_fract_x
  _atom_site_fract_y
  _atom_site_fract_z
  _atom_site_occupancy
  Ag  Ag1       1.0  0.91579  0.24737999999999996  0.7739  1.0000
  Ag  Ag2       1.0  0.08487  0.24759999999999993  0.2257  1.0000
  Ag  Ag3       1.0  0.379  0.21026  0.6811100000000001  1.0000
  Ag  Ag4       1.0  0.6216  0.21048999999999998  0.31915  1.0000
  Ag  Ag5       1.0  0.08439  0.75223  0.22669  1.0000
  Ag  Ag6       1.0  0.91539  0.75233  0.77427  1.0000
  Ag  Ag7       1.0  0.62108  0.78951  0.31894  1.0000
  Ag  Ag8       1.0  0.37831  0.78955  0.68081  1.0000
  Ag  Ag9       1.0  0.0003499999999999995  0.06481  0.50015  1.0000
  Ag  Ag10      1.0  0.0005899999999999994  0.33662  0.49992  1.0000
  Ag  Ag11      1.0  0.5004  0.43635999999999997  0.9999000000000001  1.0000
  Ag  Ag12      1.0  0.50051  0.13959  0.9998100000000001  1.0000
  Ag  Ag13      1.0  0.9996199999999998  0.93517  0.49995000000000006  1.0000
  Ag  Ag14      1.0  0.9992399999999999  0.66336  0.50006  1.0000
  Ag  Ag15      1.0  0.4994599999999999  0.56246  0.00015  1.0000
  Ag  Ag16      1.0  0.50005  0.85762  3e-05  1.0000
  H   H1        1.0  0.0017300000000000004  0.05639  0.62494  1.0000
  H   H2        1.0  0.14005  0.05093999999999999  0.61104  1.0000
  H   H3        1.0  0.16688  0.08019  0.6974800000000001  1.0000
  H   H4        1.0  0.15836  0.15685  0.66578  1.0000
  H   H5        1.0  0.09456  0.40456  0.6028  1.0000
  H   H6        1.0  0.96826  0.39238  0.63271  1.0000
  H   H7        1.0  0.15154  0.38582  0.692  1.0000
  H   H8        1.0  0.04614  0.32972  0.70159  1.0000
  H   H9        1.0  0.71949  0.09715999999999998  0.6044  1.0000
  H   H10       1.0  0.85625  0.11192999999999999  0.6199000000000001  1.0000
  H   H11       1.0  0.77569  0.13045  0.70028  1.0000
  H   H12       1.0  0.78943  0.20849999999999996  0.67497  1.0000
  H   H13       1.0  0.7698099999999999  0.44321  0.6337100000000001  1.0000
  H   H14       1.0  0.64017  0.43573  0.60597  1.0000
  H   H15       1.0  0.62233  0.41381999999999997  0.6990400000000001  1.0000
  H   H16       1.0  0.59701  0.34253  0.66434  1.0000
  H   H17       1.0  0.9976699999999998  0.056429999999999994  0.3755800000000001  1.0000
  H   H18       1.0  0.8594  0.05139  0.38964  1.0000
  H   H19       1.0  0.83321  0.08037  0.30289  1.0000
  H   H20       1.0  0.84119  0.15708  0.33393000000000006  1.0000
  H   H21       1.0  0.9048199999999998  0.40491  0.39676  1.0000
  H   H22       1.0  0.03145  0.39301  0.36717000000000005  1.0000
  H   H23       1.0  0.84876  0.38618  0.30751000000000006  1.0000
  H   H24       1.0  0.95443  0.33019  0.29844  1.0000
  H   H25       1.0  0.28106  0.09703  0.3959  1.0000
  H   H26       1.0  0.1443  0.11172  0.38029  1.0000
  H   H27       1.0  0.22490999999999997  0.1307  0.2999  1.0000
  H   H28       1.0  0.21111999999999997  0.20864  0.32498  1.0000
  H   H29       1.0  0.22954999999999998  0.44301  0.36567  1.0000
  H   H30       1.0  0.35914999999999997  0.43589  0.39351000000000014  1.0000
  H   H31       1.0  0.37732  0.41399  0.30057  1.0000
  H   H32       1.0  0.40295  0.34272  0.33566  1.0000
  H   H33       1.0  0.553  0.4487  0.8710400000000003  1.0000
  H   H34       1.0  0.68066  0.44344  0.90171  1.0000
  H   H35       1.0  0.70496  0.42088  0.8087  1.0000
  H   H36       1.0  0.73289  0.35101  0.8453700000000002  1.0000
  H   H37       1.0  0.61026  0.10513  0.8873300000000001  1.0000
  H   H38       1.0  0.47192999999999996  0.11478  0.87162  1.0000
  H   H39       1.0  0.5655  0.12644  0.79114  1.0000
  H   H40       1.0  0.51745  0.20304  0.80769  1.0000
  H   H41       1.0  0.21662  0.39589  0.8541100000000001  1.0000
  H   H42       1.0  0.35811  0.38682  0.8512  1.0000
  H   H43       1.0  0.29149999999999987  0.3510599999999999  0.76782  1.0000
  H   H44       1.0  0.33084  0.28173  0.80041  1.0000
  H   H45       1.0  0.24742  0.05222  0.8778  1.0000
  H   H46       1.0  0.11737999999999997  0.07967  0.8932200000000002  1.0000
  H   H47       1.0  0.11546  0.0765  0.80043  1.0000
  H   H48       1.0  0.12854  0.1587  0.81587  1.0000
  H   H49       1.0  0.4467499999999999  0.44849  0.12833  1.0000
  H   H50       1.0  0.31911  0.44311999999999996  0.09772  1.0000
  H   H51       1.0  0.295  0.42058999999999996  0.19092  1.0000
  H   H52       1.0  0.26699  0.35074999999999995  0.15461  1.0000
  H   H53       1.0  0.39  0.10485  0.11288  1.0000
  H   H54       1.0  0.52836  0.11441  0.12868  1.0000
  H   H55       1.0  0.43417  0.12619  0.20887  1.0000
  H   H56       1.0  0.48277  0.20268999999999998  0.19207  1.0000
  H   H57       1.0  0.7836599999999998  0.39557  0.1452  1.0000
  H   H58       1.0  0.64219  0.38645  0.14812  1.0000
  H   H59       1.0  0.70863  0.35102  0.23179  1.0000
  H   H60       1.0  0.6694  0.2815599999999999  0.19974  1.0000
  H   H61       1.0  0.75255  0.051829999999999994  0.12272  1.0000
  H   H62       1.0  0.8826499999999999  0.07901  0.1069  1.0000
  H   H63       1.0  0.88486  0.07632  0.19974  1.0000
  H   H64       1.0  0.87212  0.15846  0.18355  1.0000
  H   H65       1.0  0.9984399999999999  0.94335  0.37525  1.0000
  H   H66       1.0  0.86012  0.94886  0.38911000000000007  1.0000
  H   H67       1.0  0.8332199999999998  0.91964  0.30269  1.0000
  H   H68       1.0  0.84181  0.84294  0.33433000000000007  1.0000
  H   H69       1.0  0.90571  0.59522  0.39718  1.0000
  H   H70       1.0  0.032  0.60751  0.36726  1.0000
  H   H71       1.0  0.84867  0.6139599999999998  0.30798  1.0000
  H   H72       1.0  0.9539999999999998  0.67014  0.29844  1.0000
  H   H73       1.0  0.28069  0.9023099999999998  0.39599  1.0000
  H   H74       1.0  0.14393  0.8876699999999998  0.38042  1.0000
  H   H75       1.0  0.22455  0.86966  0.3  1.0000
  H   H76       1.0  0.21054  0.7914499999999998  0.32497  1.0000
  H   H77       1.0  0.23064  0.55624  0.36662  1.0000
  H   H78       1.0  0.3603199999999999  0.56361  0.39432  1.0000
  H   H79       1.0  0.37794999999999995  0.58626  0.30135  1.0000
  H   H80       1.0  0.40299  0.65734  0.33636000000000005  1.0000
  H   H81       1.0  0.0023600000000000014  0.9435399999999999  0.62442  1.0000
  H   H82       1.0  0.14058  0.9485  0.61027  1.0000
  H   H83       1.0  0.1668  0.9196799999999999  0.69705  1.0000
  H   H84       1.0  0.15894  0.84292  0.6660800000000002  1.0000
  H   H85       1.0  0.09515  0.59498  0.60339  1.0000
  H   H86       1.0  0.96851  0.60695  0.6329500000000002  1.0000
  H   H87       1.0  0.15106  0.61394  0.69267  1.0000
  H   H88       1.0  0.04533999999999999  0.66995  0.70157  1.0000
  H   H89       1.0  0.71896  0.9029199999999998  0.60405  1.0000
  H   H90       1.0  0.85572  0.88825  0.61967  1.0000
  H   H91       1.0  0.7750799999999999  0.86924  0.7000600000000001  1.0000
  H   H92       1.0  0.78887  0.79131  0.67498  1.0000
  H   H93       1.0  0.77039  0.5568  0.6343600000000001  1.0000
  H   H94       1.0  0.64072  0.56409  0.60657  1.0000
  H   H95       1.0  0.62288  0.58576  0.6996000000000002  1.0000
  H   H96       1.0  0.5971  0.65707  0.66458  1.0000
  H   H97       1.0  0.44686999999999993  0.55066  0.1296  1.0000
  H   H98       1.0  0.31927  0.55572  0.09878  1.0000
  H   H99       1.0  0.29481  0.5789299999999998  0.19167  1.0000
  H   H100      1.0  0.26692  0.64856  0.15469  1.0000
  H   H101      1.0  0.38977  0.89422  0.11225  1.0000
  H   H102      1.0  0.52804  0.8847599999999999  0.12818  1.0000
  H   H103      1.0  0.43383  0.8741899999999999  0.20867000000000005  1.0000
  H   H104      1.0  0.48256  0.7975099999999999  0.19287  1.0000
  H   H105      1.0  0.78331  0.60377  0.14609  1.0000
  H   H106      1.0  0.64181  0.61289  0.14905  1.0000
  H   H107      1.0  0.7083599999999998  0.64914  0.2323  1.0000
  H   H108      1.0  0.66948  0.71834  0.19941  1.0000
  H   H109      1.0  0.75234  0.94728  0.12198  1.0000
  H   H110      1.0  0.88246  0.91985  0.10668000000000001  1.0000
  H   H111      1.0  0.88443  0.9236799999999998  0.19946  1.0000
  H   H112      1.0  0.8716199999999998  0.84136  0.18438  1.0000
  H   H113      1.0  0.55332  0.55085  0.87114  1.0000
  H   H114      1.0  0.6809999999999999  0.55595  0.9018  1.0000
  H   H115      1.0  0.7049899999999999  0.57912  0.80869  1.0000
  H   H116      1.0  0.7332199999999998  0.64868  0.84529  1.0000
  H   H117      1.0  0.60975  0.8945  0.8874100000000003  1.0000
  H   H118      1.0  0.47148  0.8848399999999998  0.87149  1.0000
  H   H119      1.0  0.56617  0.8744299999999999  0.7912  1.0000
  H   H120      1.0  0.51732  0.79773  0.8073  1.0000
  H   H121      1.0  0.21654999999999996  0.60418  0.8546700000000003  1.0000
  H   H122      1.0  0.35803  0.6132  0.85165  1.0000
  H   H123      1.0  0.29153  0.64903  0.7681  1.0000
  H   H124      1.0  0.33069  0.71837  0.80033  1.0000
  H   H125      1.0  0.24716999999999995  0.9477699999999998  0.87738  1.0000
  H   H126      1.0  0.11713000000000001  0.9203699999999999  0.89308  1.0000
  H   H127      1.0  0.11507999999999999  0.9236399999999999  0.80024  1.0000
  H   H128      1.0  0.12772  0.84142  0.8161700000000001  1.0000
  C   C1        1.0  0.35499  0.24861999999999998  0.56715  1.0000
  C   C2        1.0  0.16846  0.19722999999999996  0.5936  1.0000
  C   C3        1.0  0.15795  0.26622  0.60532  1.0000
  C   C4        1.0  0.46366999999999997  0.25572  0.56364  1.0000
  C   C5        1.0  0.66826  0.23331  0.57022  1.0000
  C   C6        1.0  0.6571399999999998  0.29862  0.57439  1.0000
  C   C7        1.0  0.07725  0.08351  0.62446  1.0000
  C   C8        1.0  0.11155999999999999  0.11191  0.67607  1.0000
  C   C9        1.0  0.02511  0.13041  0.70851  1.0000
  C   C10       1.0  0.04716000000000001  0.37098  0.6257500000000003  1.0000
  C   C11       1.0  0.10479  0.34725  0.67376  1.0000
  C   C12       1.0  0.18033  0.29066  0.6611400000000001  1.0000
  C   C13       1.0  0.7765099999999999  0.13425  0.61694  1.0000
  C   C14       1.0  0.74711  0.16245  0.6693800000000001  1.0000
  C   C15       1.0  0.63354  0.17325999999999997  0.67743  1.0000
  C   C16       1.0  0.7046599999999998  0.40914  0.62564  1.0000
  C   C17       1.0  0.66033  0.37773  0.6743200000000001  1.0000
  C   C18       1.0  0.74396  0.34478  0.70323  1.0000
  C   C19       1.0  0.64506  0.24856  0.43295  1.0000
  C   C20       1.0  0.83186  0.19749999999999998  0.4068800000000001  1.0000
  C   C21       1.0  0.84217  0.26651  0.39485  1.0000
  C   C22       1.0  0.53635  0.25553  0.43640000000000007  1.0000
  C   C23       1.0  0.33179  0.23303999999999997  0.42986000000000013  1.0000
  C   C24       1.0  0.34281999999999996  0.29838999999999993  0.42556000000000005  1.0000
  C   C25       1.0  0.9223899999999999  0.0838  0.37598  1.0000
  C   C26       1.0  0.88819  0.11222  0.32418  1.0000
  C   C27       1.0  0.97488  0.13067  0.29172  1.0000
  C   C28       1.0  0.9526  0.37144  0.37407  1.0000
  C   C29       1.0  0.89549  0.34766  0.32606000000000007  1.0000
  C   C30       1.0  0.8200099999999999  0.291  0.33888  1.0000
  C   C31       1.0  0.22396  0.13412  0.38323  1.0000
  C   C32       1.0  0.25345  0.16257  0.33072000000000007  1.0000
  C   C33       1.0  0.36708  0.17337  0.32273000000000013  1.0000
  C   C34       1.0  0.29494  0.4091  0.37397  1.0000
  C   C35       1.0  0.33946999999999994  0.37781999999999993  0.32546  1.0000
  C   C36       1.0  0.25601  0.34475999999999996  0.2967  1.0000
  C   C37       1.0  0.85598  0.2603  0.9441500000000003  1.0000
  C   C38       1.0  0.6649399999999999  0.30426  0.9320100000000002  1.0000
  C   C39       1.0  0.65485  0.23808  0.93033  1.0000
  C   C40       1.0  0.9638399999999999  0.25573  0.93677  1.0000
  C   C41       1.0  0.16591  0.27673  0.91622  1.0000
  C   C42       1.0  0.15431  0.21127999999999997  0.91713  1.0000
  C   C43       1.0  0.61927  0.41593  0.88084  1.0000
  C   C44       1.0  0.66815  0.38425999999999993  0.83355  1.0000
  C   C45       1.0  0.58912  0.34826  0.80403  1.0000
  C   C46       1.0  0.55011  0.13931  0.87283  1.0000
  C   C47       1.0  0.57492  0.16531999999999997  0.81938  1.0000
  C   C48       1.0  0.6822499999999999  0.19164  0.81572  1.0000
  C   C49       1.0  0.28153  0.36044  0.8512500000000001  1.0000
  C   C50       1.0  0.27245  0.32136  0.80143  1.0000
  C   C51       1.0  0.16546999999999998  0.29577  0.79292  1.0000
  C   C52       1.0  0.19226  0.09316999999999999  0.87442  1.0000
  C   C53       1.0  0.16977  0.11184  0.81848  1.0000
  C   C54       1.0  0.2693  0.11434  0.79011  1.0000
  C   C55       1.0  0.14429  0.26006  0.05561  1.0000
  C   C56       1.0  0.33534  0.3039899999999999  0.06794  1.0000
  C   C57       1.0  0.34556999999999993  0.23777  0.06934  1.0000
  C   C58       1.0  0.0364  0.25542  0.06291  1.0000
  C   C59       1.0  0.83437  0.27634999999999993  0.0836  1.0000
  C   C60       1.0  0.84586  0.21088999999999997  0.08253  1.0000
  C   C61       1.0  0.38056  0.41565  0.11876  1.0000
  C   C62       1.0  0.33175  0.38397999999999993  0.16625  1.0000
  C   C63       1.0  0.41078  0.3479  0.19592  1.0000
  C   C64       1.0  0.45023  0.139  0.12717  1.0000
  C   C65       1.0  0.42518  0.16512  0.18043000000000003  1.0000
  C   C66       1.0  0.31802  0.19171  0.18396  1.0000
  C   C67       1.0  0.7188  0.3601  0.14829  1.0000
  C   C68       1.0  0.72777  0.3212  0.19843  1.0000
  C   C69       1.0  0.83475  0.29566  0.20719000000000004  1.0000
  C   C70       1.0  0.8078899999999999  0.09271999999999998  0.12565  1.0000
  C   C71       1.0  0.83067  0.11167  0.18141  1.0000
  C   C72       1.0  0.73123  0.11452  0.20983000000000004  1.0000
  C   C73       1.0  0.64508  0.7510299999999999  0.4329  1.0000
  C   C74       1.0  0.83156  0.80251  0.40645  1.0000
  C   C75       1.0  0.8421299999999999  0.73353  0.39471  1.0000
  C   C76       1.0  0.53644  0.74386  0.4365  1.0000
  C   C77       1.0  0.33175999999999994  0.76607  0.42998  1.0000
  C   C78       1.0  0.34302  0.70074  0.42607  1.0000
  C   C79       1.0  0.92288  0.91627  0.3756900000000001  1.0000
  C   C80       1.0  0.88857  0.88792  0.32406  1.0000
  C   C81       1.0  0.9749999999999999  0.86946  0.2916  1.0000
  C   C82       1.0  0.9530499999999998  0.62883  0.37424  1.0000
  C   C83       1.0  0.89535  0.65254  0.32625  1.0000
  C   C84       1.0  0.8197099999999999  0.70909  0.3389  1.0000
  C   C85       1.0  0.22364999999999996  0.8653  0.38332  1.0000
  C   C86       1.0  0.25302  0.83741  0.33076  1.0000
  C   C87       1.0  0.36656  0.82655  0.32266  1.0000
  C   C88       1.0  0.29573  0.59031  0.37481  1.0000
  C   C89       1.0  0.33981  0.6221099999999999  0.32624  1.0000
  C   C90       1.0  0.25596  0.6551  0.29751  1.0000
  C   C91       1.0  0.35484999999999994  0.75138  0.56708  1.0000
  C   C92       1.0  0.16799  0.80241  0.59306  1.0000
  C   C93       1.0  0.15775  0.73342  0.60517  1.0000
  C   C94       1.0  0.46358999999999995  0.74442  0.56373  1.0000
  C   C95       1.0  0.6682  0.76689  0.57019  1.0000
  C   C96       1.0  0.65716  0.7015599999999999  0.57463  1.0000
  C   C97       1.0  0.0776  0.9161299999999999  0.62398  1.0000
  C   C98       1.0  0.11188  0.88776  0.67578  1.0000
  C   C99       1.0  0.025189999999999994  0.8693  0.70824  1.0000
  C   C100      1.0  0.04736  0.6285  0.62603  1.0000
  C   C101      1.0  0.10437999999999999  0.6524  0.67403  1.0000
  C   C102      1.0  0.17986  0.70904  0.6611600000000002  1.0000
  C   C103      1.0  0.77607  0.8658399999999999  0.61673  1.0000
  C   C104      1.0  0.74655  0.83739  0.66924  1.0000
  C   C105      1.0  0.63292  0.82659  0.67721  1.0000
  C   C106      1.0  0.7050499999999997  0.5907699999999999  0.6261200000000002  1.0000
  C   C107      1.0  0.66064  0.62197  0.6747  1.0000
  C   C108      1.0  0.74414  0.65503  0.70343  1.0000
  C   C109      1.0  0.14412  0.73893  0.05591  1.0000
  C   C110      1.0  0.3350199999999999  0.6947999999999999  0.06825  1.0000
  C   C111      1.0  0.34518  0.76097  0.07001  1.0000
  C   C112      1.0  0.03627  0.7435999999999999  0.06327  1.0000
  C   C113      1.0  0.8341799999999999  0.7226499999999999  0.0838  1.0000
  C   C114      1.0  0.84585  0.7880999999999999  0.08298  1.0000
  C   C115      1.0  0.38064  0.58335  0.11957000000000001  1.0000
  C   C116      1.0  0.33165  0.6153799999999999  0.16668  1.0000
  C   C117      1.0  0.4106699999999999  0.6516  0.19605  1.0000
  C   C118      1.0  0.44985  0.8602299999999999  0.1271  1.0000
  C   C119      1.0  0.42487  0.83491  0.18075000000000002  1.0000
  C   C120      1.0  0.31774  0.80832  0.18454  1.0000
  C   C121      1.0  0.71842  0.63923  0.14888  1.0000
  C   C122      1.0  0.7276399999999998  0.67858  0.19857  1.0000
  C   C123      1.0  0.8347299999999999  0.7040199999999999  0.20704  1.0000
  C   C124      1.0  0.80763  0.90639  0.12554  1.0000
  C   C125      1.0  0.83022  0.88815  0.18157  1.0000
  C   C126      1.0  0.73074  0.8857  0.20999  1.0000
  C   C127      1.0  0.8559  0.7390499999999999  0.9442200000000002  1.0000
  C   C128      1.0  0.66502  0.69495  0.93183  1.0000
  C   C129      1.0  0.65474  0.76115  0.93022  1.0000
  C   C130      1.0  0.96379  0.7438199999999999  0.93698  1.0000
  C   C131      1.0  0.16589999999999996  0.7230999999999999  0.9164000000000002  1.0000
  C   C132      1.0  0.15419999999999998  0.78854  0.9173800000000001  1.0000
  C   C133      1.0  0.61954  0.58357  0.8808900000000001  1.0000
  C   C134      1.0  0.66836  0.61558  0.83355  1.0000
  C   C135      1.0  0.58929  0.65192  0.8040900000000001  1.0000
  C   C136      1.0  0.54977  0.86043  0.8727800000000001  1.0000
  C   C137      1.0  0.57496  0.8350999999999998  0.8193  1.0000
  C   C138      1.0  0.68211  0.80851  0.8156900000000001  1.0000
  C   C139      1.0  0.28147  0.6396  0.85159  1.0000
  C   C140      1.0  0.27239  0.6787  0.8015500000000002  1.0000
  C   C141      1.0  0.16536  0.70423  0.79287  1.0000
  C   C142      1.0  0.19193999999999994  0.9068499999999999  0.8743  1.0000
  C   C143      1.0  0.16922  0.88819  0.81848  1.0000
  C   C144      1.0  0.26866  0.88542  0.79005  1.0000
  C   C145      1.0  0.30945  0.49898999999999993  0.51122  1.0000
  C   C146      1.0  0.6908999999999998  0.5003199999999999  0.49022  1.0000
  C   C147      1.0  0.81298  0.99932  0.98738  1.0000
  C   C148      1.0  0.18719  0.99984  0.01259  1.0000
  S   S1        1.0  0.26442  0.3113099999999999  0.5612  1.0000
  S   S2        1.0  0.29864  0.17141  0.58001  1.0000
  S   S3        1.0  0.55099  0.18980999999999998  0.55521  1.0000
  S   S4        1.0  0.5283  0.33093  0.56224  1.0000
  S   S5        1.0  0.06209  0.14817  0.57542  1.0000
  S   S6        1.0  0.023689999999999992  0.29719  0.5893  1.0000
  S   S7        1.0  0.79262  0.19525  0.56719  1.0000
  S   S8        1.0  0.76489  0.35144  0.58223  1.0000
  S   S9        1.0  0.7354  0.31137  0.43870000000000003  1.0000
  S   S10       1.0  0.70179  0.17146  0.42047  1.0000
  S   S11       1.0  0.44913  0.18956  0.44508  1.0000
  S   S12       1.0  0.47159  0.33069  0.43766  1.0000
  S   S13       1.0  0.9384  0.14827999999999997  0.42467000000000005  1.0000
  S   S14       1.0  0.97623  0.29763  0.41086  1.0000
  S   S15       1.0  0.20749999999999996  0.19487  0.43282  1.0000
  S   S16       1.0  0.23506  0.35125  0.41767  1.0000
  S   S17       1.0  0.7691799999999999  0.19352  0.95072  1.0000
  S   S18       1.0  0.7901899999999998  0.33429  0.95353  1.0000
  S   S19       1.0  0.05175  0.32218  0.9338100000000003  1.0000
  S   S20       1.0  0.02934  0.18069  0.93641  1.0000
  S   S21       1.0  0.55814  0.35775  0.92428  1.0000
  S   S22       1.0  0.52911  0.20255  0.9202  1.0000
  S   S23       1.0  0.29084  0.31403  0.9108500000000002  1.0000
  S   S24       1.0  0.25964  0.15641  0.9106100000000003  1.0000
  S   S25       1.0  0.23117999999999994  0.1934  0.04901  1.0000
  S   S26       1.0  0.21005  0.33416  0.04636  1.0000
  S   S27       1.0  0.9485699999999998  0.32191  0.06597  1.0000
  S   S28       1.0  0.9706899999999999  0.18045  0.06304  1.0000
  S   S29       1.0  0.442  0.35749  0.07571  1.0000
  S   S30       1.0  0.47124  0.20202999999999996  0.07925  1.0000
  S   S31       1.0  0.70941  0.31356999999999996  0.08903  1.0000
  S   S32       1.0  0.7406  0.1559  0.08898  1.0000
  S   S33       1.0  0.7357499999999999  0.68839  0.43889  1.0000
  S   S34       1.0  0.7012999999999999  0.82826  0.41997  1.0000
  S   S35       1.0  0.44895999999999997  0.80975  0.4447900000000001  1.0000
  S   S36       1.0  0.47198  0.66862  0.43824000000000013  1.0000
  S   S37       1.0  0.93785  0.8515799999999999  0.42473  1.0000
  S   S38       1.0  0.97646  0.7026499999999999  0.41066  1.0000
  S   S39       1.0  0.20734  0.80408  0.43288  1.0000
  S   S40       1.0  0.23558999999999997  0.64764  0.41856  1.0000
  S   S41       1.0  0.26459  0.68851  0.56144  1.0000
  S   S42       1.0  0.29801  0.8284799999999999  0.57941  1.0000
  S   S43       1.0  0.55084  0.81036  0.55497  1.0000
  S   S44       1.0  0.52835  0.66925  0.56271  1.0000
  S   S45       1.0  0.06139999999999998  0.8516199999999999  0.57534  1.0000
  S   S46       1.0  0.023739999999999997  0.70224  0.58914  1.0000
  S   S47       1.0  0.7924799999999999  0.8050799999999999  0.56713  1.0000
  S   S48       1.0  0.76492  0.64869  0.58248  1.0000
  S   S49       1.0  0.23111999999999994  0.80562  0.04935  1.0000
  S   S50       1.0  0.20977  0.66489  0.04658  1.0000
  S   S51       1.0  0.94827  0.67719  0.06612  1.0000
  S   S52       1.0  0.9708299999999999  0.81868  0.06369  1.0000
  S   S53       1.0  0.44173  0.64123  0.07585  1.0000
  S   S54       1.0  0.47101  0.7963899999999998  0.08024  1.0000
  S   S55       1.0  0.70921  0.68538  0.08915000000000001  1.0000
  S   S56       1.0  0.74041  0.84287  0.08961  1.0000
  S   S57       1.0  0.76881  0.80562  0.95086  1.0000
  S   S58       1.0  0.79031  0.66489  0.95347  1.0000
  S   S59       1.0  0.05186999999999999  0.67744  0.93411  1.0000
  S   S60       1.0  0.029290000000000004  0.81887  0.9368700000000001  1.0000
  S   S61       1.0  0.55834  0.64143  0.92426  1.0000
  S   S62       1.0  0.52888  0.7966199999999999  0.92006  1.0000
  S   S63       1.0  0.29093  0.68596  0.91095  1.0000
  S   S64       1.0  0.25935  0.8435799999999999  0.91082  1.0000
  S   S65       1.0  0.1621  0.49907  0.4957000000000001  1.0000
  S   S66       1.0  0.83895  0.50098  0.50463  1.0000
  S   S67       1.0  0.66526  0.99936  0.99987  1.0000
  S   S68       1.0  0.33464  0.9992899999999999  0.99967  1.0000
  N   N1        1.0  0.95624  0.14698  0.73572  1.0000
  N   N2        1.0  0.24549  0.26838  0.69423  1.0000
  N   N3        1.0  0.54283  0.1802  0.68666  1.0000
  N   N4        1.0  0.8134899999999999  0.31965  0.72592  1.0000
  N   N5        1.0  0.04396  0.14701  0.26446  1.0000
  N   N6        1.0  0.75509  0.26868  0.3058400000000001  1.0000
  N   N7        1.0  0.45788999999999996  0.18028  0.31368  1.0000
  N   N8        1.0  0.18660999999999994  0.31956  0.27411  1.0000
  N   N9        1.0  0.52431  0.3199699999999999  0.78066  1.0000
  N   N10       1.0  0.76914  0.21222  0.8135200000000001  1.0000
  N   N11       1.0  0.07527  0.2803999999999999  0.79425  1.0000
  N   N12       1.0  0.35189999999999994  0.11379  0.76941  1.0000
  N   N13       1.0  0.47555  0.3195  0.2194  1.0000
  N   N14       1.0  0.23137  0.21261999999999998  0.18633  1.0000
  N   N15       1.0  0.9249799999999999  0.28038  0.20586  1.0000
  N   N16       1.0  0.64869  0.11422  0.23057000000000002  1.0000
  N   N17       1.0  0.04383999999999999  0.85291  0.26436  1.0000
  N   N18       1.0  0.75452  0.7313399999999999  0.30581  1.0000
  N   N19       1.0  0.45724  0.81957  0.3134  1.0000
  N   N20       1.0  0.18624  0.68024  0.27496  1.0000
  N   N21       1.0  0.95607  0.85296  0.73547  1.0000
  N   N22       1.0  0.24480000000000002  0.7314  0.6941800000000002  1.0000
  N   N23       1.0  0.54209  0.8196999999999999  0.68625  1.0000
  N   N24       1.0  0.81354  0.68026  0.726  1.0000
  N   N25       1.0  0.47558999999999996  0.68002  0.21924000000000005  1.0000
  N   N26       1.0  0.23106  0.78744  0.18692  1.0000
  N   N27       1.0  0.9249699999999998  0.71932  0.20582  1.0000
  N   N28       1.0  0.6482  0.88623  0.23073  1.0000
  N   N29       1.0  0.52439  0.68048  0.78083  1.0000
  N   N30       1.0  0.76878  0.78765  0.81335  1.0000
  N   N31       1.0  0.07514  0.7195  0.79423  1.0000
  N   N32       1.0  0.35117  0.88572  0.7692900000000001  1.0000
  O   O1        1.0  0.1266  0.43857  0.51984  1.0000
  O   O2        1.0  0.87566  0.44163  0.47962  1.0000
  O   O3        1.0  0.62924  0.05834999999999999  0.9728200000000001  1.0000
  O   O4        1.0  0.37064  0.05864  0.02571  1.0000
  O   O5        1.0  0.87323  0.56154  0.4801000000000001  1.0000
  O   O6        1.0  0.12469999999999999  0.55853  0.52028  1.0000
  O   O7        1.0  0.37019  0.93935  0.02542  1.0000
  O   O8        1.0  0.62968  0.93935  0.97462  1.0000
  O   O9        1.0  0.15869  0.49990999999999997  0.43943  1.0000
  O   O10       1.0  0.84481  0.50021  0.56083  1.0000
  O   O11       1.0  0.65626  0.00016000000000000007  0.05561  1.0000
  O   O12       1.0  0.34346  0.99984  0.9439400000000001  1.0000
  F   F1        1.0  0.35998  0.44761  0.49001  1.0000
  F   F2        1.0  0.64035  0.44780999999999993  0.51008  1.0000
  F   F3        1.0  0.8624099999999998  0.05196  0.00768  1.0000
  F   F4        1.0  0.1377  0.05247  0.9922900000000001  1.0000
  F   F5        1.0  0.64015  0.55248  0.51008  1.0000
  F   F6        1.0  0.35984999999999995  0.55219  0.49254  1.0000
  F   F7        1.0  0.1375  0.94747  0.99234  1.0000
  F   F8        1.0  0.86188  0.9459  0.00744  1.0000
  F   F9        1.0  0.32791  0.49677  0.56268  1.0000
  F   F10       1.0  0.67197  0.4999899999999999  0.43903  1.0000
  F   F11       1.0  0.83088  0.9999899999999999  0.93644  1.0000
  F   F12       1.0  0.16928  0.99995  0.06357  1.0000
