data_image0
_chemical_formula_structural       Cu12H192C216O48
_chemical_formula_sum              "Cu12 H192 C216 O48"
_cell_length_a       21.45615
_cell_length_b       21.44691
_cell_length_c       30.14731
_cell_angle_alpha    96.59903999999999
_cell_angle_beta     96.71293
_cell_angle_gamma    118.18013

_symmetry_space_group_name_H-M    'P 1'
_symmetry_Int_Tables_number       1

loop_
  _symmetry_equiv_pos_as_xyz
  'x,y,z'

loop_
  _atom_site_type_symbol
  _atom_site_label
  _atom_site_symmetry_multiplicity
  _atom_site_fract_x
  _atom_site_fract_y
  _atom_site_fract_z
  _atom_site_occupancy
  Cu  Cu1       1.0  0.24601  0.29663  0.26442  1.0000
  Cu  Cu2       1.0  0.22893  0.17527  0.25861  1.0000
  Cu  Cu3       1.0  0.02774  0.53413  0.47137  1.0000
  Cu  Cu4       1.0  0.70342  0.75385  0.23557  1.0000
  Cu  Cu5       1.0  0.82483  0.77111  0.24133  1.0000
  Cu  Cu6       1.0  0.46618  0.97258  0.02883  1.0000
  Cu  Cu7       1.0  0.754  0.70337  0.73558  1.0000
  Cu  Cu8       1.0  0.7710800000000001  0.8247300000000001  0.7414  1.0000
  Cu  Cu9       1.0  0.9722600000000001  0.46587  0.52863  1.0000
  Cu  Cu10      1.0  0.29659  0.24615  0.76443  1.0000
  Cu  Cu11      1.0  0.17517000000000002  0.22889000000000004  0.75867  1.0000
  Cu  Cu12      1.0  0.53382  0.027420000000000007  0.9711700000000001  1.0000
  H   H1        1.0  0.4498499999999999  0.22077999999999998  0.28825  1.0000
  H   H2        1.0  0.46508  0.42502  0.33452  1.0000
  H   H3        1.0  0.54944  0.20169  0.30451  1.0000
  H   H4        1.0  0.63533  0.27897  0.30887  1.0000
  H   H5        1.0  0.60672  0.24916  0.35857  1.0000
  H   H6        1.0  0.57307  0.52387  0.37867  1.0000
  H   H7        1.0  0.61691  0.49585000000000007  0.41904  1.0000
  H   H8        1.0  0.6555899999999999  0.52668  0.37211  1.0000
  H   H9        1.0  0.74994  0.39943  0.48271  1.0000
  H   H10       1.0  0.84421  0.49055  0.37207  1.0000
  H   H11       1.0  0.5788799999999998  0.3781299999999999  0.4472  1.0000
  H   H12       1.0  0.62399  0.34103  0.4789  1.0000
  H   H13       1.0  0.5703  0.29485  0.42372  1.0000
  H   H14       1.0  0.7717099999999999  0.47928  0.30217  1.0000
  H   H15       1.0  0.6962500000000001  0.48929  0.31078  1.0000
  H   H16       1.0  0.6829300000000001  0.40376  0.28782  1.0000
  H   H17       1.0  0.037419999999999995  0.25416  0.20697  1.0000
  H   H18       1.0  0.99912  0.03911000000000001  0.20779  1.0000
  H   H19       1.0  0.94687  0.27665000000000006  0.17340000000000003  1.0000
  H   H20       1.0  0.88493  0.21089  0.12522  1.0000
  H   H21       1.0  0.85797  0.21304  0.17799999999999996  1.0000
  H   H22       1.0  0.8847399999999999  0.93651  0.17538  1.0000
  H   H23       1.0  0.80885  0.9494699999999999  0.17452  1.0000
  H   H24       1.0  0.84289  0.9472199999999998  0.12443  1.0000
  H   H25       1.0  0.63792  0.01601  0.13796  1.0000
  H   H26       1.0  0.73778  0.0408  0.02118  1.0000
  H   H27       1.0  0.7847599999999999  0.029349999999999987  0.21735  1.0000
  H   H28       1.0  0.7894700000000001  0.11376  0.22026  1.0000
  H   H29       1.0  0.7041  0.03475000000000002  0.21213  1.0000
  H   H30       1.0  0.8894799999999999  0.0362  0.06692  1.0000
  H   H31       1.0  0.86232  0.07894  0.02788  1.0000
  H   H32       1.0  0.9201499999999999  0.12922  0.08141  1.0000
  H   H33       1.0  0.11308999999999997  0.2086  0.61351  1.0000
  H   H34       1.0  0.34374  0.30984  0.63725  1.0000
  H   H35       1.0  0.04330000000000001  0.17622  0.53938  1.0000
  H   H36       1.0  0.08118999999999997  0.15372999999999998  0.49493999999999994  1.0000
  H   H37       1.0  0.08332  0.23736  0.50282  1.0000
  H   H38       1.0  0.36903  0.37042  0.53529  1.0000
  H   H39       1.0  0.36292  0.28525  0.52291  1.0000
  H   H40       1.0  0.4079100000000001  0.34097000000000005  0.5776800000000001  1.0000
  H   H41       1.0  0.22246999999999997  0.14739  0.39487  1.0000
  H   H42       1.0  0.22145  0.34775  0.40253  1.0000
  H   H43       1.0  0.27555  0.15821  0.50886  1.0000
  H   H44       1.0  0.18149  0.1157  0.50429  1.0000
  H   H45       1.0  0.21861  0.093  0.45933  1.0000
  H   H46       1.0  0.22669999999999998  0.41457  0.47345  1.0000
  H   H47       1.0  0.17255  0.3573  0.50769  1.0000
  H   H48       1.0  0.26699  0.40026  0.52353  1.0000
  H   H49       1.0  0.7792999999999999  0.55028  0.21189  1.0000
  H   H50       1.0  0.57499  0.53476  0.1653  1.0000
  H   H51       1.0  0.79849  0.45067  0.19588  1.0000
  H   H52       1.0  0.72128  0.36471  0.19153  1.0000
  H   H53       1.0  0.75102  0.39341  0.14183  1.0000
  H   H54       1.0  0.47616  0.42672  0.12138  1.0000
  H   H55       1.0  0.50418  0.38304  0.08102  1.0000
  H   H56       1.0  0.47339000000000003  0.34417  0.12793  1.0000
  H   H57       1.0  0.60118  0.24877  0.01851  1.0000
  H   H58       1.0  0.51069  0.15586  0.12968  1.0000
  H   H59       1.0  0.6210400000000003  0.41962  0.05284  1.0000
  H   H60       1.0  0.65814  0.37452  0.02131  1.0000
  H   H61       1.0  0.70482  0.42914  0.07619  1.0000
  H   H62       1.0  0.5215  0.22912  0.1991  1.0000
  H   H63       1.0  0.51117  0.30416  0.18966  1.0000
  H   H64       1.0  0.59676  0.31811  0.21314  1.0000
  H   H65       1.0  0.74586  0.9623800000000001  0.29273  1.0000
  H   H66       1.0  0.96084  0.0006900000000000029  0.29218  1.0000
  H   H67       1.0  0.72339  0.052909999999999985  0.32605  1.0000
  H   H68       1.0  0.78911  0.11478  0.37429  1.0000
  H   H69       1.0  0.7869899999999999  0.14192  0.32152  1.0000
  H   H70       1.0  0.0634  0.1151  0.3244  1.0000
  H   H71       1.0  0.05056  0.19109  0.32521  1.0000
  H   H72       1.0  0.05284  0.15696000000000002  0.37531999999999993  1.0000
  H   H73       1.0  0.9823899999999999  0.36184  0.3609  1.0000
  H   H74       1.0  0.95783  0.26217  0.47792  1.0000
  H   H75       1.0  0.97058  0.21506  0.28222  1.0000
  H   H76       1.0  0.88611  0.21023000000000003  0.27855  1.0000
  H   H77       1.0  0.9650900000000001  0.29567  0.28693  1.0000
  H   H78       1.0  0.9642299999999999  0.11134999999999999  0.43255  1.0000
  H   H79       1.0  0.9212900000000003  0.13801000000000002  0.47159  1.0000
  H   H80       1.0  0.8710499999999999  0.07976999999999998  0.4182  1.0000
  H   H81       1.0  0.79134  0.8856900000000001  0.88601  1.0000
  H   H82       1.0  0.69014  0.65504  0.86299  1.0000
  H   H83       1.0  0.82331  0.95586  0.95968  1.0000
  H   H84       1.0  0.8462599999999999  0.91878  0.00453  1.0000
  H   H85       1.0  0.7624000000000001  0.9162  0.9964  1.0000
  H   H86       1.0  0.62961  0.63093  0.96517  1.0000
  H   H87       1.0  0.71458  0.63667  0.97771  1.0000
  H   H88       1.0  0.65862  0.59122  0.92304  1.0000
  H   H89       1.0  0.8526599999999999  0.77768  0.10525  1.0000
  H   H90       1.0  0.65233  0.77869  0.09728  1.0000
  H   H91       1.0  0.84178  0.72432  0.9913  1.0000
  H   H92       1.0  0.8841500000000002  0.8183900000000001  0.9957900000000001  1.0000
  H   H93       1.0  0.90697  0.78135  0.04083  1.0000
  H   H94       1.0  0.58547  0.77322  0.02628  1.0000
  H   H95       1.0  0.6427299999999999  0.82748  0.9921  1.0000
  H   H96       1.0  0.59972  0.73303  0.97621  1.0000
  H   H97       1.0  0.55016  0.77922  0.71175  1.0000
  H   H98       1.0  0.53493  0.57498  0.66548  1.0000
  H   H99       1.0  0.4505700000000001  0.7983  0.69549  1.0000
  H   H100      1.0  0.36467  0.72103  0.69113  1.0000
  H   H101      1.0  0.39329  0.75084  0.6414299999999998  1.0000
  H   H102      1.0  0.42694  0.47612999999999994  0.62133  1.0000
  H   H103      1.0  0.3831  0.50415  0.58096  1.0000
  H   H104      1.0  0.34441000000000005  0.4733200000000001  0.6279  1.0000
  H   H105      1.0  0.25006  0.60057  0.51729  1.0000
  H   H106      1.0  0.1558  0.50945  0.6279400000000002  1.0000
  H   H107      1.0  0.42112  0.62187  0.5528  1.0000
  H   H108      1.0  0.37601  0.65896  0.5211  1.0000
  H   H109      1.0  0.4297  0.70515  0.5762800000000001  1.0000
  H   H110      1.0  0.22829999999999998  0.52071  0.69783  1.0000
  H   H111      1.0  0.30375  0.51071  0.68922  1.0000
  H   H112      1.0  0.31707  0.59623  0.71218  1.0000
  H   H113      1.0  0.96258  0.74583  0.79303  1.0000
  H   H114      1.0  0.0008899999999999496  0.96089  0.79221  1.0000
  H   H115      1.0  0.053140000000000055  0.7233500000000002  0.8266  1.0000
  H   H116      1.0  0.11506999999999994  0.7891099999999999  0.87479  1.0000
  H   H117      1.0  0.14204000000000003  0.78696  0.82201  1.0000
  H   H118      1.0  0.11526000000000003  0.06349000000000005  0.82462  1.0000
  H   H119      1.0  0.19114999999999993  0.050519999999999954  0.82548  1.0000
  H   H120      1.0  0.15712  0.05278000000000002  0.87557  1.0000
  H   H121      1.0  0.36208999999999997  0.9839899999999999  0.86204  1.0000
  H   H122      1.0  0.26222000000000006  0.9592  0.97882  1.0000
  H   H123      1.0  0.21524999999999997  0.97065  0.78265  1.0000
  H   H124      1.0  0.21054  0.88624  0.77974  1.0000
  H   H125      1.0  0.29591  0.96525  0.78787  1.0000
  H   H126      1.0  0.11052000000000016  0.9638  0.93308  1.0000
  H   H127      1.0  0.13769000000000006  0.9210600000000001  0.97212  1.0000
  H   H128      1.0  0.07986000000000003  0.87078  0.91859  1.0000
  H   H129      1.0  0.8869200000000002  0.7914  0.38649  1.0000
  H   H130      1.0  0.65627  0.69015  0.36275  1.0000
  H   H131      1.0  0.9567099999999997  0.8237799999999998  0.46062  1.0000
  H   H132      1.0  0.91882  0.84627  0.50506  1.0000
  H   H133      1.0  0.91669  0.76264  0.49718  1.0000
  H   H134      1.0  0.63098  0.62958  0.46471  1.0000
  H   H135      1.0  0.63709  0.71475  0.47709  1.0000
  H   H136      1.0  0.59209  0.65903  0.42232  1.0000
  H   H137      1.0  0.77753  0.85261  0.60513  1.0000
  H   H138      1.0  0.7785599999999999  0.65225  0.59747  1.0000
  H   H139      1.0  0.72445  0.84179  0.49113999999999997  1.0000
  H   H140      1.0  0.81851  0.88429  0.49571  1.0000
  H   H141      1.0  0.78139  0.9070000000000001  0.54067  1.0000
  H   H142      1.0  0.7732999999999999  0.5854299999999999  0.52656  1.0000
  H   H143      1.0  0.8274500000000001  0.6427  0.49231  1.0000
  H   H144      1.0  0.73302  0.59974  0.47647  1.0000
  H   H145      1.0  0.2207099999999999  0.44971999999999995  0.78811  1.0000
  H   H146      1.0  0.42501  0.46524000000000004  0.8347  1.0000
  H   H147      1.0  0.20152  0.54933  0.80412  1.0000
  H   H148      1.0  0.27872999999999987  0.63529  0.80847  1.0000
  H   H149      1.0  0.24898999999999996  0.60658  0.85817  1.0000
  H   H150      1.0  0.52384  0.57328  0.87862  1.0000
  H   H151      1.0  0.49583  0.61696  0.91898  1.0000
  H   H152      1.0  0.52662  0.65583  0.8720699999999999  1.0000
  H   H153      1.0  0.39881999999999995  0.7512299999999998  0.98149  1.0000
  H   H154      1.0  0.4893199999999999  0.84413  0.87032  1.0000
  H   H155      1.0  0.37895999999999996  0.58038  0.94716  1.0000
  H   H156      1.0  0.34186  0.62548  0.9787  1.0000
  H   H157      1.0  0.29518  0.57086  0.9238199999999999  1.0000
  H   H158      1.0  0.47851000000000005  0.7708800000000001  0.8009000000000001  1.0000
  H   H159      1.0  0.48884  0.69584  0.81034  1.0000
  H   H160      1.0  0.40325000000000016  0.6818900000000002  0.78686  1.0000
  H   H161      1.0  0.25414999999999993  0.03761999999999997  0.70727  1.0000
  H   H162      1.0  0.0391600000000001  0.9993100000000001  0.70782  1.0000
  H   H163      1.0  0.27662  0.9470899999999999  0.67395  1.0000
  H   H164      1.0  0.21089999999999995  0.88522  0.62572  1.0000
  H   H165      1.0  0.2130199999999999  0.8580699999999999  0.67848  1.0000
  H   H166      1.0  0.9365999999999998  0.8848999999999999  0.6756  1.0000
  H   H167      1.0  0.94945  0.8089099999999999  0.67479  1.0000
  H   H168      1.0  0.94716  0.84303  0.62468  1.0000
  H   H169      1.0  0.017619999999999997  0.63816  0.63911  1.0000
  H   H170      1.0  0.04216999999999997  0.73783  0.52208  1.0000
  H   H171      1.0  0.02943000000000003  0.78494  0.71778  1.0000
  H   H172      1.0  0.11389999999999996  0.78977  0.72145  1.0000
  H   H173      1.0  0.034919999999999965  0.70433  0.71307  1.0000
  H   H174      1.0  0.03577999999999996  0.88865  0.5674599999999999  1.0000
  H   H175      1.0  0.07871999999999997  0.86199  0.52841  1.0000
  H   H176      1.0  0.1289599999999999  0.9202299999999999  0.5818  1.0000
  H   H177      1.0  0.20867  0.11431  0.11399  1.0000
  H   H178      1.0  0.30987  0.34496  0.13702  1.0000
  H   H179      1.0  0.1767  0.044140000000000006  0.04032  1.0000
  H   H180      1.0  0.15375  0.08122  0.99547  1.0000
  H   H181      1.0  0.23760999999999996  0.08379  0.0036  1.0000
  H   H182      1.0  0.3704  0.36907  0.03483  1.0000
  H   H183      1.0  0.28543  0.36333  0.02229  1.0000
  H   H184      1.0  0.34138  0.40878  0.07696  1.0000
  H   H185      1.0  0.14735  0.22231999999999996  0.89475  1.0000
  H   H186      1.0  0.34768  0.22131  0.90272  1.0000
  H   H187      1.0  0.15822000000000003  0.27568  0.0087  1.0000
  H   H188      1.0  0.11586  0.18161  0.00421  1.0000
  H   H189      1.0  0.09303999999999998  0.21865  0.95917  1.0000
  H   H190      1.0  0.41454  0.22678000000000004  0.97372  1.0000
  H   H191      1.0  0.35728  0.17252  0.0079  1.0000
  H   H192      1.0  0.40029000000000003  0.26697  0.02379  1.0000
  C   C1        1.0  0.3725299999999999  0.29011  0.28976  1.0000
  C   C2        1.0  0.45018  0.32011  0.30955  1.0000
  C   C3        1.0  0.48199999999999993  0.27623  0.30672  1.0000
  C   C4        1.0  0.55358  0.3028  0.32794  1.0000
  C   C5        1.0  0.59293  0.37423000000000006  0.35312  1.0000
  C   C6        1.0  0.56184  0.41936  0.35541  1.0000
  C   C7        1.0  0.49065  0.39172  0.33303  1.0000
  C   C8        1.0  0.58775  0.25544  0.32475  1.0000
  C   C9        1.0  0.60388  0.49543000000000004  0.38256  1.0000
  C   C10       1.0  0.87668  0.46939  0.45628  1.0000
  C   C11       1.0  0.8039599999999998  0.44716999999999996  0.42989  1.0000
  C   C12       1.0  0.74291  0.41023  0.44866  1.0000
  C   C13       1.0  0.6740599999999999  0.3871799999999999  0.42401  1.0000
  C   C14       1.0  0.66678  0.40086  0.37948  1.0000
  C   C15       1.0  0.7278899999999999  0.43850999999999996  0.36028  1.0000
  C   C16       1.0  0.7961999999999999  0.46163  0.38605  1.0000
  C   C17       1.0  0.60859  0.34822  0.44468  1.0000
  C   C18       1.0  0.71957  0.45349  0.31287  1.0000
  C   C19       1.0  0.10246999999999999  0.17999999999999997  0.23155  1.0000
  C   C20       1.0  0.025689999999999998  0.14952  0.20943  1.0000
  C   C21       1.0  0.000720000000000011  0.19636000000000003  0.19785  1.0000
  C   C22       1.0  0.9304  0.16949  0.17433  1.0000
  C   C23       1.0  0.8849  0.09401  0.16174  1.0000
  C   C24       1.0  0.90856  0.046159999999999986  0.17439  1.0000
  C   C25       1.0  0.9792000000000001  0.07484  0.19833  1.0000
  C   C26       1.0  0.9039899999999998  0.22037999999999996  0.16211  1.0000
  C   C27       1.0  0.8590899999999999  0.96576  0.16159000000000004  1.0000
  C   C28       1.0  0.61327  0.012860000000000003  0.04789  1.0000
  C   C29       1.0  0.68134  0.02682  0.07682  1.0000
  C   C30       1.0  0.68584  0.02874  0.1237  1.0000
  C   C31       1.0  0.75154  0.0496  0.15212  1.0000
  C   C32       1.0  0.8127699999999999  0.06627  0.13254  1.0000
  C   C33       1.0  0.80802  0.06116  0.08495  1.0000
  C   C34       1.0  0.74221  0.04237  0.05764  1.0000
  C   C35       1.0  0.75742  0.05683  0.20297  1.0000
  C   C36       1.0  0.8732999999999999  0.07743  0.06406  1.0000
  C   C37       1.0  0.2308  0.25319  0.67893  1.0000
  C   C38       1.0  0.22864  0.25859  0.63004  1.0000
  C   C39       1.0  0.16253  0.23114999999999997  0.60013  1.0000
  C   C40       1.0  0.15973000000000007  0.23070000000000002  0.55351  1.0000
  C   C41       1.0  0.22486  0.25975  0.53714  1.0000
  C   C42       1.0  0.29199  0.29021  0.56728  1.0000
  C   C43       1.0  0.29292  0.28854  0.61352  1.0000
  C   C44       1.0  0.08812000000000003  0.19786  0.52115  1.0000
  C   C45       1.0  0.3616799999999999  0.32335  0.55001  1.0000
  C   C46       1.0  0.22393999999999997  0.24253000000000002  0.34454  1.0000
  C   C47       1.0  0.22209  0.24706000000000003  0.39399  1.0000
  C   C48       1.0  0.22225  0.19244999999999998  0.41529  1.0000
  C   C49       1.0  0.22278999999999996  0.19593  0.46187  1.0000
  C   C50       1.0  0.22291  0.25561  0.48731  1.0000
  C   C51       1.0  0.22203  0.31074  0.46623  1.0000
  C   C52       1.0  0.22166999999999998  0.30574  0.41949  1.0000
  C   C53       1.0  0.2245  0.13748  0.48458  1.0000
  C   C54       1.0  0.22219  0.37411  0.49393999999999993  1.0000
  C   C55       1.0  0.70987  0.62741  0.21025  1.0000
  C   C56       1.0  0.67992  0.54978  0.19044  1.0000
  C   C57       1.0  0.72387  0.51806  0.1934  1.0000
  C   C58       1.0  0.69735  0.44645  0.17232  1.0000
  C   C59       1.0  0.6259  0.40697  0.14715  1.0000
  C   C60       1.0  0.58072  0.43799  0.14466  1.0000
  C   C61       1.0  0.60834  0.50924  0.1669  1.0000
  C   C62       1.0  0.7447600000000001  0.41234000000000004  0.17564  1.0000
  C   C63       1.0  0.50463  0.39594  0.1175  1.0000
  C   C64       1.0  0.53084  0.12239  0.04554  1.0000
  C   C65       1.0  0.5536400000000001  0.19543  0.07162  1.0000
  C   C66       1.0  0.59036  0.25617  0.05249  1.0000
  C   C67       1.0  0.61309  0.32521  0.07669  1.0000
  C   C68       1.0  0.59946  0.33297  0.12116000000000002  1.0000
  C   C69       1.0  0.56227  0.27217  0.14078  1.0000
  C   C70       1.0  0.53937  0.20368  0.11544  1.0000
  C   C71       1.0  0.65136  0.39032  0.05553  1.0000
  C   C72       1.0  0.54718  0.28102999999999995  0.18808  1.0000
  C   C73       1.0  0.82002  0.89747  0.26827  1.0000
  C   C74       1.0  0.85048  0.97422  0.29035  1.0000
  C   C75       1.0  0.80364  0.99914  0.30183  1.0000
  C   C76       1.0  0.8305099999999999  0.06949  0.32522  1.0000
  C   C77       1.0  0.90597  0.11508  0.33777  1.0000
  C   C78       1.0  0.9538299999999998  0.09138999999999999  0.32533  1.0000
  C   C79       1.0  0.92516  0.020699999999999993  0.30151  1.0000
  C   C80       1.0  0.7796099999999998  0.09582999999999997  0.33738999999999997  1.0000
  C   C81       1.0  0.03423000000000002  0.14082  0.33816  1.0000
  C   C82       1.0  0.98576  0.38665999999999995  0.45113  1.0000
  C   C83       1.0  0.97167  0.31858  0.42216  1.0000
  C   C84       1.0  0.96987  0.314  0.37528  1.0000
  C   C85       1.0  0.9495900000000003  0.24834000000000003  0.34702  1.0000
  C   C86       1.0  0.93337  0.18727  0.36677  1.0000
  C   C87       1.0  0.9382299999999999  0.19208  0.41434  1.0000
  C   C88       1.0  0.9563699999999999  0.25778  0.44147  1.0000
  C   C89       1.0  0.9428600000000003  0.24236999999999997  0.29619  1.0000
  C   C90       1.0  0.92265  0.12701  0.4354  1.0000
  C   C91       1.0  0.7464900000000002  0.7682800000000002  0.82098  1.0000
  C   C92       1.0  0.74122  0.77019  0.86986  1.0000
  C   C93       1.0  0.76874  0.8364  0.89959  1.0000
  C   C94       1.0  0.7692  0.83951  0.9462  1.0000
  C   C95       1.0  0.74011  0.77451  0.96276  1.0000
  C   C96       1.0  0.70973  0.70722  0.93283  1.0000
  C   C97       1.0  0.7113799999999999  0.7059899999999999  0.88656  1.0000
  C   C98       1.0  0.80195  0.91135  0.97823  1.0000
  C   C99       1.0  0.6765099999999998  0.63778  0.95047  1.0000
  C   C100      1.0  0.7571900000000001  0.77581  0.15535  1.0000
  C   C101      1.0  0.7529000000000001  0.77793  0.10595  1.0000
  C   C102      1.0  0.8075299999999999  0.77777  0.08476  1.0000
  C   C103      1.0  0.8039899999999999  0.77706  0.03817000000000001  1.0000
  C   C104      1.0  0.74427  0.77677  0.01261  1.0000
  C   C105      1.0  0.68921  0.77784  0.03359  1.0000
  C   C106      1.0  0.69425  0.77835  0.08035  1.0000
  C   C107      1.0  0.86245  0.77538  0.01553  1.0000
  C   C108      1.0  0.6259  0.77776  0.00582  1.0000
  C   C109      1.0  0.6274800000000001  0.7098800000000001  0.71024  1.0000
  C   C110      1.0  0.54982  0.67989  0.69045  1.0000
  C   C111      1.0  0.518  0.72377  0.69328  1.0000
  C   C112      1.0  0.44643  0.6972  0.67206  1.0000
  C   C113      1.0  0.40707999999999994  0.62577  0.64688  1.0000
  C   C114      1.0  0.43817  0.58064  0.64459  1.0000
  C   C115      1.0  0.50935  0.60827  0.66697  1.0000
  C   C116      1.0  0.41226  0.74456  0.67525  1.0000
  C   C117      1.0  0.39613  0.50457  0.61744  1.0000
  C   C118      1.0  0.12331999999999997  0.5306  0.54372  1.0000
  C   C119      1.0  0.19605  0.55284  0.57011  1.0000
  C   C120      1.0  0.25709  0.58976  0.55134  1.0000
  C   C121      1.0  0.32595  0.61282  0.57599  1.0000
  C   C122      1.0  0.33322000000000007  0.5991400000000001  0.6205200000000001  1.0000
  C   C123      1.0  0.27211  0.56149  0.63972  1.0000
  C   C124      1.0  0.20381000000000002  0.53837  0.61396  1.0000
  C   C125      1.0  0.3914099999999999  0.65178  0.55532  1.0000
  C   C126      1.0  0.28043  0.54651  0.68713  1.0000
  C   C127      1.0  0.89754  0.82  0.76845  1.0000
  C   C128      1.0  0.9743200000000001  0.85048  0.79057  1.0000
  C   C129      1.0  0.99929  0.80364  0.80215  1.0000
  C   C130      1.0  0.06961000000000003  0.8305100000000001  0.82567  1.0000
  C   C131      1.0  0.1151000000000001  0.90599  0.83826  1.0000
  C   C132      1.0  0.09144999999999995  0.9538399999999999  0.82561  1.0000
  C   C133      1.0  0.020810000000000065  0.92516  0.80167  1.0000
  C   C134      1.0  0.09600999999999998  0.77961  0.83789  1.0000
  C   C135      1.0  0.14092000000000002  0.03424000000000002  0.83841  1.0000
  C   C136      1.0  0.38674  0.98714  0.9521  1.0000
  C   C137      1.0  0.31866  0.97317  0.92319  1.0000
  C   C138      1.0  0.31416  0.97126  0.8763  1.0000
  C   C139      1.0  0.24846000000000001  0.9503999999999999  0.84788  1.0000
  C   C140      1.0  0.18723999999999996  0.93373  0.86746  1.0000
  C   C141      1.0  0.19198000000000015  0.93884  0.91505  1.0000
  C   C142      1.0  0.2577999999999998  0.95763  0.94236  1.0000
  C   C143      1.0  0.24258000000000002  0.94317  0.79704  1.0000
  C   C144      1.0  0.12671000000000002  0.92257  0.93594  1.0000
  C   C145      1.0  0.7692  0.74681  0.32106999999999997  1.0000
  C   C146      1.0  0.77137  0.7414099999999999  0.36996  1.0000
  C   C147      1.0  0.83747  0.76885  0.39987  1.0000
  C   C148      1.0  0.8402800000000001  0.76929  0.44649  1.0000
  C   C149      1.0  0.7751399999999999  0.74025  0.46286  1.0000
  C   C150      1.0  0.70802  0.70979  0.43272  1.0000
  C   C151      1.0  0.7070900000000001  0.7114500000000001  0.38648  1.0000
  C   C152      1.0  0.91188  0.80214  0.47885  1.0000
  C   C153      1.0  0.6383299999999998  0.67665  0.44999  1.0000
  C   C154      1.0  0.77607  0.75747  0.65546  1.0000
  C   C155      1.0  0.77792  0.75294  0.6060099999999999  1.0000
  C   C156      1.0  0.77776  0.80755  0.58471  1.0000
  C   C157      1.0  0.77722  0.80406  0.53813  1.0000
  C   C158      1.0  0.77709  0.74439  0.51269  1.0000
  C   C159      1.0  0.77797  0.68925  0.53377  1.0000
  C   C160      1.0  0.7783399999999999  0.69426  0.58051  1.0000
  C   C161      1.0  0.77551  0.8625200000000001  0.51542  1.0000
  C   C162      1.0  0.77782  0.62589  0.50606  1.0000
  C   C163      1.0  0.29014  0.37259  0.78975  1.0000
  C   C164      1.0  0.32009  0.45020999999999994  0.80956  1.0000
  C   C165      1.0  0.27613  0.48194  0.8066  1.0000
  C   C166      1.0  0.30266  0.55354  0.82768  1.0000
  C   C167      1.0  0.37411  0.59303  0.8528499999999999  1.0000
  C   C168      1.0  0.41929  0.562  0.85534  1.0000
  C   C169      1.0  0.3916700000000001  0.49076000000000003  0.8331  1.0000
  C   C170      1.0  0.25525  0.58766  0.82436  1.0000
  C   C171      1.0  0.49538  0.60406  0.8825  1.0000
  C   C172      1.0  0.46917000000000003  0.87762  0.95445  1.0000
  C   C173      1.0  0.44637  0.8045699999999999  0.92838  1.0000
  C   C174      1.0  0.40964999999999996  0.74383  0.94751  1.0000
  C   C175      1.0  0.3869099999999999  0.67479  0.9233099999999999  1.0000
  C   C176      1.0  0.40054  0.66703  0.87884  1.0000
  C   C177      1.0  0.4377400000000001  0.7278199999999999  0.85922  1.0000
  C   C178      1.0  0.46063  0.79632  0.88456  1.0000
  C   C179      1.0  0.34864999999999996  0.60967  0.94447  1.0000
  C   C180      1.0  0.45283  0.71897  0.81192  1.0000
  C   C181      1.0  0.17998999999999998  0.10251999999999992  0.7317299999999999  1.0000
  C   C182      1.0  0.14952  0.025780000000000018  0.70966  1.0000
  C   C183      1.0  0.19636  0.0008599999999999988  0.69817  1.0000
  C   C184      1.0  0.16949999999999993  0.93051  0.6747799999999999  1.0000
  C   C185      1.0  0.09402999999999993  0.8849099999999999  0.66223  1.0000
  C   C186      1.0  0.04617000000000004  0.90861  0.6746699999999999  1.0000
  C   C187      1.0  0.07485000000000007  0.9793  0.69849  1.0000
  C   C188      1.0  0.22039000000000003  0.90417  0.66261  1.0000
  C   C189      1.0  0.96577  0.85918  0.66184  1.0000
  C   C190      1.0  0.01423999999999998  0.61334  0.54888  1.0000
  C   C191      1.0  0.02833999999999997  0.68142  0.57784  1.0000
  C   C192      1.0  0.030139999999999948  0.686  0.62472  1.0000
  C   C193      1.0  0.05042  0.75166  0.65298  1.0000
  C   C194      1.0  0.06663999999999995  0.81273  0.6332300000000001  1.0000
  C   C195      1.0  0.06177999999999994  0.80792  0.58566  1.0000
  C   C196      1.0  0.04364000000000001  0.74222  0.55853  1.0000
  C   C197      1.0  0.05714999999999999  0.75763  0.70381  1.0000
  C   C198      1.0  0.07736000000000001  0.87299  0.5646  1.0000
  C   C199      1.0  0.25351000000000007  0.23172000000000004  0.17902  1.0000
  C   C200      1.0  0.25879  0.22980000000000003  0.13014  1.0000
  C   C201      1.0  0.23126999999999998  0.16359  0.10041  1.0000
  C   C202      1.0  0.2308  0.16049  0.0538  1.0000
  C   C203      1.0  0.2599  0.22549000000000002  0.03724  1.0000
  C   C204      1.0  0.29027  0.29278  0.06717  1.0000
  C   C205      1.0  0.28862  0.29401  0.11344  1.0000
  C   C206      1.0  0.19805  0.08864  0.02177  1.0000
  C   C207      1.0  0.32349  0.36221  0.04952999999999999  1.0000
  C   C208      1.0  0.24281000000000003  0.22419000000000006  0.8446500000000001  1.0000
  C   C209      1.0  0.24711  0.22207000000000002  0.89405  1.0000
  C   C210      1.0  0.19247000000000003  0.22223000000000004  0.91524  1.0000
  C   C211      1.0  0.19601  0.22293999999999997  0.96184  1.0000
  C   C212      1.0  0.25574  0.22322  0.9873900000000001  1.0000
  C   C213      1.0  0.31078999999999996  0.22215999999999994  0.96641  1.0000
  C   C214      1.0  0.3057499999999999  0.22165  0.91965  1.0000
  C   C215      1.0  0.13755999999999996  0.22461999999999996  0.98447  1.0000
  C   C216      1.0  0.37411  0.22224  0.99418  1.0000
  O   O1        1.0  0.34852999999999995  0.33475  0.2901  1.0000
  O   O2        1.0  0.33504  0.22185000000000002  0.27476  1.0000
  O   O3        1.0  0.14202  0.24886  0.23872  1.0000
  O   O4        1.0  0.12408  0.1357  0.24108  1.0000
  O   O5        1.0  0.29104  0.26604  0.70224  1.0000
  O   O6        1.0  0.17225000000000001  0.23496999999999998  0.6939  1.0000
  O   O7        1.0  0.22521  0.29414  0.32629  1.0000
  O   O8        1.0  0.22484  0.18728  0.32382  1.0000
  O   O9        1.0  0.61797  0.03218  0.00913  1.0000
  O   O10       1.0  0.5556699999999999  0.9841399999999999  0.0643  1.0000
  O   O11       1.0  0.93122  0.50953  0.43968999999999997  1.0000
  O   O12       1.0  0.87922  0.44608  0.49341  1.0000
  O   O13       1.0  0.66518  0.65131  0.20996  1.0000
  O   O14       1.0  0.7781300000000001  0.66494  0.22524999999999998  1.0000
  O   O15       1.0  0.7511800000000001  0.8578400000000002  0.26116  1.0000
  O   O16       1.0  0.86436  0.8759900000000002  0.25876  1.0000
  O   O17       1.0  0.73368  0.70817  0.79757  1.0000
  O   O18       1.0  0.7646  0.82698  0.80611  1.0000
  O   O19       1.0  0.70527  0.77389  0.17343  1.0000
  O   O20       1.0  0.81263  0.77526  0.17618  1.0000
  O   O21       1.0  0.96543  0.38143  0.48953  1.0000
  O   O22       1.0  0.015659999999999983  0.44474  0.43531  1.0000
  O   O23       1.0  0.49067000000000005  0.0682  0.0624  1.0000
  O   O24       1.0  0.5535299999999999  0.11923999999999998  0.00827  1.0000
  O   O25       1.0  0.65148  0.66525  0.7099  1.0000
  O   O26       1.0  0.66497  0.77815  0.72524  1.0000
  O   O27       1.0  0.85799  0.7511400000000001  0.76128  1.0000
  O   O28       1.0  0.8759299999999999  0.8642999999999998  0.75892  1.0000
  O   O29       1.0  0.70896  0.73396  0.29776  1.0000
  O   O30       1.0  0.8277599999999999  0.76503  0.3061  1.0000
  O   O31       1.0  0.7748  0.70586  0.67372  1.0000
  O   O32       1.0  0.77516  0.81272  0.6761800000000001  1.0000
  O   O33       1.0  0.3820399999999999  0.9678199999999998  0.9908799999999999  1.0000
  O   O34       1.0  0.44433  0.015849999999999982  0.93571  1.0000
  O   O35       1.0  0.06879000000000002  0.49047  0.56031  1.0000
  O   O36       1.0  0.12079  0.55392  0.50659  1.0000
  O   O37       1.0  0.33483  0.34869  0.79004  1.0000
  O   O38       1.0  0.22187999999999997  0.33506  0.77475  1.0000
  O   O39       1.0  0.24882999999999994  0.14215999999999998  0.7388399999999999  1.0000
  O   O40       1.0  0.13564999999999994  0.12400999999999997  0.7412399999999999  1.0000
  O   O41       1.0  0.26632  0.29183  0.20243  1.0000
  O   O42       1.0  0.23541  0.17302  0.19389  1.0000
  O   O43       1.0  0.29474000000000006  0.22611000000000003  0.82657  1.0000
  O   O44       1.0  0.18737000000000004  0.22474  0.82382  1.0000
  O   O45       1.0  0.034579999999999986  0.61857  0.51046  1.0000
  O   O46       1.0  0.98435  0.55526  0.56469  1.0000
  O   O47       1.0  0.50933  0.93179  0.9376  1.0000
  O   O48       1.0  0.44648  0.88076  0.99174  1.0000
