data_image0
_chemical_formula_structural       Cu24H72C192N24O96
_chemical_formula_sum              "Cu24 H72 C192 N24 O96"
_cell_length_a       20.54071
_cell_length_b       27.35316
_cell_length_c       27.36019
_cell_angle_alpha    113.95279
_cell_angle_beta     104.51993000000002
_cell_angle_gamma    104.5098

_symmetry_space_group_name_H-M    'P 1'
_symmetry_Int_Tables_number       1

loop_
  _symmetry_equiv_pos_as_xyz
  'x,y,z'

loop_
  _atom_site_type_symbol
  _atom_site_label
  _atom_site_symmetry_multiplicity
  _atom_site_fract_x
  _atom_site_fract_y
  _atom_site_fract_z
  _atom_site_occupancy
  Cu  Cu1       1.0  0.24379  0.49784  0.20847  1.0000
  Cu  Cu2       1.0  0.2986500000000001  0.5020500000000001  0.30129  1.0000
  Cu  Cu3       1.0  0.48061  0.19298000000000007  0.21583  1.0000
  Cu  Cu4       1.0  0.51938  0.28173000000000004  0.30894  1.0000
  Cu  Cu5       1.0  0.7460600000000001  0.7106100000000002  0.50228  1.0000
  Cu  Cu6       1.0  0.7961500000000001  0.7990900000000002  0.49771  1.0000
  Cu  Cu7       1.0  0.288  0.022810000000000014  0.80689  1.0000
  Cu  Cu8       1.0  0.23739  0.027240000000000052  0.7182500000000002  1.0000
  Cu  Cu9       1.0  0.03546000000000009  0.7915600000000003  0.28933000000000003  1.0000
  Cu  Cu10      1.0  0.9970099999999998  0.69856  0.20081  1.0000
  Cu  Cu11      1.0  0.26580000000000015  0.7843100000000003  0.9773600000000001  1.0000
  Cu  Cu12      1.0  0.21089000000000013  0.6912100000000001  0.9728  1.0000
  Cu  Cu13      1.0  0.7562100000000002  0.5021600000000002  0.79153  1.0000
  Cu  Cu14      1.0  0.70135  0.4979500000000001  0.69871  1.0000
  Cu  Cu15      1.0  0.5193900000000001  0.8070200000000002  0.78417  1.0000
  Cu  Cu16      1.0  0.4806200000000001  0.7182800000000003  0.69105  1.0000
  Cu  Cu17      1.0  0.25394  0.28939  0.49772  1.0000
  Cu  Cu18      1.0  0.20384999999999998  0.20091000000000003  0.50229  1.0000
  Cu  Cu19      1.0  0.712  0.9772000000000001  0.19311  1.0000
  Cu  Cu20      1.0  0.7626100000000001  0.9727600000000001  0.28175  1.0000
  Cu  Cu21      1.0  0.9645400000000001  0.20844000000000007  0.7106700000000002  1.0000
  Cu  Cu22      1.0  0.002990000000000097  0.30145000000000005  0.7991900000000001  1.0000
  Cu  Cu23      1.0  0.7342  0.21569000000000002  0.02264  1.0000
  Cu  Cu24      1.0  0.78911  0.3087900000000001  0.0272  1.0000
  H   H1        1.0  0.38259  0.3659100000000001  0.25453  1.0000
  H   H2        1.0  0.34784  0.22012000000000007  0.09333  1.0000
  H   H3        1.0  0.25894  0.34611000000000003  0.08991  1.0000
  H   H4        1.0  0.2601100000000001  0.1688700000000001  0.9298200000000002  1.0000
  H   H5        1.0  0.12784000000000004  0.14435000000000006  0.76518  1.0000
  H   H6        1.0  0.14783  0.28184  0.92619  1.0000
  H   H7        1.0  0.5215000000000001  0.6261500000000002  0.37047  1.0000
  H   H8        1.0  0.6297000000000003  0.7650800000000002  0.34482000000000007  1.0000
  H   H9        1.0  0.41059000000000007  0.6404800000000003  0.22362000000000007  1.0000
  H   H10       1.0  0.5889400000000001  0.8194400000000001  0.24277  1.0000
  H   H11       1.0  0.48831000000000013  0.8507600000000003  0.10599000000000003  1.0000
  H   H12       1.0  0.36992  0.70219  0.11471  1.0000
  H   H13       1.0  0.016559999999999988  0.8886500000000002  0.63409  1.0000
  H   H14       1.0  0.1276  0.8731000000000001  0.7799400000000001  1.0000
  H   H15       1.0  0.9129000000000003  0.7437200000000004  0.6538800000000001  1.0000
  H   H16       1.0  0.09139  0.76113  0.83113  1.0000
  H   H17       1.0  0.9841800000000003  0.6210500000000002  0.85597  1.0000
  H   H18       1.0  0.86625  0.64445  0.71833  1.0000
  H   H19       1.0  0.89525  0.74432  0.37361  1.0000
  H   H20       1.0  0.86477  0.57987  0.23499  1.0000
  H   H21       1.0  0.7701200000000001  0.5832100000000001  0.35952000000000006  1.0000
  H   H22       1.0  0.7692  0.4229500000000001  0.18048  1.0000
  H   H23       1.0  0.63699  0.25507  0.14947  1.0000
  H   H24       1.0  0.66752  0.41244000000000003  0.2979  1.0000
  H   H25       1.0  0.12803000000000003  0.7454400000000002  0.11133  1.0000
  H   H26       1.0  0.2546000000000001  0.9068200000000002  0.12686  1.0000
  H   H27       1.0  0.16911000000000007  0.9099300000000001  0.25617  1.0000
  H   H28       1.0  0.33036  0.07035  0.23908  1.0000
  H   H29       1.0  0.3629200000000001  0.23499000000000003  0.37899000000000005  1.0000
  H   H30       1.0  0.22179000000000001  0.07394  0.35571  1.0000
  H   H31       1.0  0.15117000000000005  0.6295400000000002  0.25576  1.0000
  H   H32       1.0  0.2850400000000002  0.6551100000000002  0.4202500000000001  1.0000
  H   H33       1.0  0.18700000000000003  0.77632  0.41676000000000013  1.0000
  H   H34       1.0  0.34662000000000004  0.7576000000000002  0.57722  1.0000
  H   H35       1.0  0.3823400000000002  0.8943800000000004  0.7449900000000002  1.0000
  H   H36       1.0  0.25504000000000016  0.8853000000000003  0.5875800000000001  1.0000
  H   H37       1.0  0.61741  0.6341  0.74547  1.0000
  H   H38       1.0  0.6521600000000001  0.7798800000000002  0.9066700000000001  1.0000
  H   H39       1.0  0.74106  0.6538900000000002  0.9100900000000001  1.0000
  H   H40       1.0  0.7398900000000003  0.8311400000000002  0.07017  1.0000
  H   H41       1.0  0.8721600000000002  0.8556600000000001  0.23482  1.0000
  H   H42       1.0  0.8521700000000001  0.71816  0.07381  1.0000
  H   H43       1.0  0.4785  0.37386  0.62952  1.0000
  H   H44       1.0  0.3703000000000001  0.23492000000000007  0.65518  1.0000
  H   H45       1.0  0.58941  0.3595300000000001  0.7763800000000001  1.0000
  H   H46       1.0  0.4110600000000001  0.18056000000000003  0.7572200000000001  1.0000
  H   H47       1.0  0.51169  0.14924000000000012  0.8940000000000002  1.0000
  H   H48       1.0  0.63008  0.2978100000000001  0.8852900000000001  1.0000
  H   H49       1.0  0.98344  0.11135000000000002  0.36591000000000007  1.0000
  H   H50       1.0  0.8723999999999998  0.12690000000000004  0.22006  1.0000
  H   H51       1.0  0.0871  0.25628  0.34612  1.0000
  H   H52       1.0  0.90861  0.23888000000000004  0.16887  1.0000
  H   H53       1.0  0.015819999999999997  0.37895  0.14403  1.0000
  H   H54       1.0  0.13375000000000004  0.35556000000000004  0.28167000000000003  1.0000
  H   H55       1.0  0.10475000000000004  0.2556800000000001  0.6263900000000001  1.0000
  H   H56       1.0  0.13523000000000004  0.42013000000000006  0.7650100000000001  1.0000
  H   H57       1.0  0.22988  0.41679000000000005  0.64048  1.0000
  H   H58       1.0  0.23080000000000003  0.57706  0.8195200000000001  1.0000
  H   H59       1.0  0.36301  0.74493  0.85052  1.0000
  H   H60       1.0  0.3324800000000001  0.5875600000000001  0.7021000000000002  1.0000
  H   H61       1.0  0.8719700000000001  0.2545700000000001  0.8886700000000001  1.0000
  H   H62       1.0  0.7454  0.09318000000000005  0.87313  1.0000
  H   H63       1.0  0.83089  0.09007000000000008  0.74383  1.0000
  H   H64       1.0  0.6696400000000002  0.9296600000000003  0.76092  1.0000
  H   H65       1.0  0.6370800000000002  0.7650100000000003  0.6210100000000001  1.0000
  H   H66       1.0  0.7782100000000001  0.9260600000000002  0.64429  1.0000
  H   H67       1.0  0.8488300000000004  0.3704600000000001  0.74424  1.0000
  H   H68       1.0  0.71496  0.34490000000000004  0.57975  1.0000
  H   H69       1.0  0.813  0.22369000000000003  0.58324  1.0000
  H   H70       1.0  0.65338  0.24240000000000006  0.42278  1.0000
  H   H71       1.0  0.6176700000000002  0.10563000000000004  0.25500000000000006  1.0000
  H   H72       1.0  0.7449600000000001  0.11470000000000002  0.41242  1.0000
  C   C1        1.0  0.30655  0.4151  0.20647000000000001  1.0000
  C   C2        1.0  0.31927  0.36148000000000013  0.17537000000000003  1.0000
  C   C3        1.0  0.3594200000000001  0.34172000000000013  0.20716  1.0000
  C   C4        1.0  0.36963  0.29075  0.17761  1.0000
  C   C5        1.0  0.41394  0.26992000000000005  0.21054  1.0000
  C   C6        1.0  0.33974  0.25958  0.1165  1.0000
  C   C7        1.0  0.29976  0.27940000000000004  0.08493  1.0000
  C   C8        1.0  0.28971  0.3307000000000001  0.11450000000000002  1.0000
  C   C9        1.0  0.20653999999999995  0.22843000000000005  0.93457  1.0000
  C   C10       1.0  0.2243600000000001  0.18146000000000007  0.90513  1.0000
  C   C11       1.0  0.19675999999999988  0.15184999999999996  0.84433  1.0000
  C   C12       1.0  0.21813  0.10338999999999998  0.813  1.0000
  C   C13       1.0  0.15014000000000005  0.16804000000000008  0.8125400000000002  1.0000
  C   C14       1.0  0.13237000000000004  0.21476000000000012  0.84195  1.0000
  C   C15       1.0  0.08084000000000002  0.23099000000000008  0.80851  1.0000
  C   C16       1.0  0.16117000000000004  0.24535000000000007  0.90302  1.0000
  C   C17       1.0  0.3918499999999999  0.5776000000000001  0.27833  1.0000
  C   C18       1.0  0.45925  0.62809  0.29529  1.0000
  C   C19       1.0  0.52161  0.64846  0.34546  1.0000
  C   C20       1.0  0.5833100000000001  0.6976800000000001  0.36330000000000007  1.0000
  C   C21       1.0  0.6505600000000001  0.7194900000000002  0.41591  1.0000
  C   C22       1.0  0.58242  0.7265  0.33115  1.0000
  C   C23       1.0  0.52053  0.7058  0.28079  1.0000
  C   C24       1.0  0.45869000000000004  0.6561000000000002  0.26245  1.0000
  C   C25       1.0  0.47908  0.7571399999999999  0.18159  1.0000
  C   C26       1.0  0.5426800000000002  0.8071500000000005  0.20413  1.0000
  C   C27       1.0  0.5460000000000002  0.8402100000000002  0.17651  1.0000
  C   C28       1.0  0.61463  0.89216  0.19949000000000003  1.0000
  C   C29       1.0  0.4857700000000001  0.8244100000000002  0.12692  1.0000
  C   C30       1.0  0.4222900000000001  0.7748400000000001  0.10474000000000001  1.0000
  C   C31       1.0  0.35676000000000013  0.7593600000000003  0.05372  1.0000
  C   C32       1.0  0.41912  0.7407900000000002  0.13174  1.0000
  C   C33       1.0  0.89141  0.79127  0.58471  1.0000
  C   C34       1.0  0.95771  0.8139100000000002  0.63845  1.0000
  C   C35       1.0  0.01762000000000002  0.8655100000000002  0.65832  1.0000
  C   C36       1.0  0.07884000000000022  0.8869600000000003  0.7093300000000002  1.0000
  C   C37       1.0  0.1439900000000002  0.9407400000000005  0.7301800000000002  1.0000
  C   C38       1.0  0.08012000000000004  0.85695  0.7404400000000001  1.0000
  C   C39       1.0  0.020330000000000046  0.80551  0.7205200000000002  1.0000
  C   C40       1.0  0.9589599999999999  0.7837600000000002  0.6692000000000001  1.0000
  C   C41       1.0  0.97833  0.7061700000000002  0.77169  1.0000
  C   C42       1.0  0.04319000000000014  0.7237700000000002  0.8186600000000003  1.0000
  C   C43       1.0  0.045330000000000134  0.6926100000000002  0.8483200000000001  1.0000
  C   C44       1.0  0.11522000000000004  0.7098200000000001  0.89685  1.0000
  C   C45       1.0  0.9825  0.6446200000000001  0.83217  1.0000
  C   C46       1.0  0.91785  0.62726  0.78549  1.0000
  C   C47       1.0  0.8499500000000001  0.57756  0.76913  1.0000
  C   C48       1.0  0.9160400000000001  0.6577200000000002  0.75485  1.0000
  C   C49       1.0  0.81381  0.70056  0.42215  1.0000
  C   C50       1.0  0.8309700000000001  0.66717  0.37177000000000004  1.0000
  C   C51       1.0  0.8729799999999999  0.6969900000000002  0.3514300000000001  1.0000
  C   C52       1.0  0.8855499999999998  0.6655900000000002  0.3023  1.0000
  C   C53       1.0  0.93093  0.69636  0.28044  1.0000
  C   C54       1.0  0.8559200000000001  0.60461  0.27351  1.0000
  C   C55       1.0  0.81474  0.5749200000000002  0.29417  1.0000
  C   C56       1.0  0.8025499999999999  0.6063000000000002  0.3438  1.0000
  C   C57       1.0  0.7218500000000001  0.4243900000000001  0.24299  1.0000
  C   C58       1.0  0.7352700000000001  0.3968100000000001  0.19296  1.0000
  C   C59       1.0  0.70536  0.3361  0.15991  1.0000
  C   C60       1.0  0.72202  0.30723  0.10794000000000002  1.0000
  C   C61       1.0  0.6609  0.30237  0.17575000000000005  1.0000
  C   C62       1.0  0.64707  0.3298800000000001  0.22531  1.0000
  C   C63       1.0  0.59692  0.2945  0.24088  1.0000
  C   C64       1.0  0.6781600000000001  0.39095000000000013  0.25933  1.0000
  C   C65       1.0  0.10002000000000008  0.7933700000000002  0.20851  1.0000
  C   C66       1.0  0.14387000000000005  0.82452  0.18599  1.0000
  C   C67       1.0  0.15228000000000014  0.7928100000000002  0.13444  1.0000
  C   C68       1.0  0.19218000000000005  0.8224500000000001  0.11312000000000001  1.0000
  C   C69       1.0  0.20393000000000006  0.78968  0.05948000000000001  1.0000
  C   C70       1.0  0.22334000000000004  0.8835700000000002  0.14311  1.0000
  C   C71       1.0  0.21487  0.91507  0.19448  1.0000
  C   C72       1.0  0.1752600000000001  0.8854100000000003  0.21615000000000006  1.0000
  C   C73       1.0  0.27207  0.06551000000000003  0.2939  1.0000
  C   C74       1.0  0.31931  0.09497000000000003  0.27638  1.0000
  C   C75       1.0  0.3524900000000001  0.1558  0.30757  1.0000
  C   C76       1.0  0.40488  0.18712000000000006  0.29026  1.0000
  C   C77       1.0  0.3377  0.18762000000000006  0.35551000000000005  1.0000
  C   C78       1.0  0.29049000000000014  0.15820000000000006  0.37281000000000003  1.0000
  C   C79       1.0  0.2722800000000001  0.19155000000000008  0.4224100000000001  1.0000
  C   C80       1.0  0.25827  0.09709  0.34235  1.0000
  C   C81       1.0  0.11351000000000003  0.7217100000000002  0.29948  1.0000
  C   C82       1.0  0.16401000000000004  0.7046700000000002  0.3328900000000001  1.0000
  C   C83       1.0  0.17632  0.65458  0.30309  1.0000
  C   C84       1.0  0.22039000000000017  0.6368700000000003  0.33449000000000007  1.0000
  C   C85       1.0  0.23525000000000004  0.58437  0.30368000000000006  1.0000
  C   C86       1.0  0.2515200000000001  0.66893  0.39548000000000005  1.0000
  C   C87       1.0  0.23986  0.71921  0.42516  1.0000
  C   C88       1.0  0.19635000000000008  0.7375000000000003  0.39375  1.0000
  C   C89       1.0  0.29757000000000006  0.8185300000000002  0.57569  1.0000
  C   C90       1.0  0.33878  0.7962  0.60332  1.0000
  C   C91       1.0  0.36975  0.82395  0.66402  1.0000
  C   C92       1.0  0.41556999999999994  0.80101  0.69294  1.0000
  C   C93       1.0  0.35885000000000006  0.8734300000000003  0.6977100000000002  1.0000
  C   C94       1.0  0.31728000000000006  0.8953600000000002  0.67016  1.0000
  C   C95       1.0  0.3022  0.9461500000000003  0.70544  1.0000
  C   C96       1.0  0.28727  0.86829  0.60911  1.0000
  C   C97       1.0  0.69345  0.58491  0.79353  1.0000
  C   C98       1.0  0.6807300000000001  0.6385200000000001  0.8246300000000001  1.0000
  C   C99       1.0  0.64058  0.6582900000000003  0.79284  1.0000
  C   C100      1.0  0.6303700000000001  0.70925  0.8223900000000001  1.0000
  C   C101      1.0  0.58606  0.7300800000000001  0.78946  1.0000
  C   C102      1.0  0.6602700000000001  0.7404200000000001  0.8835  1.0000
  C   C103      1.0  0.7002400000000002  0.7206000000000001  0.9150600000000001  1.0000
  C   C104      1.0  0.7102900000000002  0.6693000000000001  0.8855000000000001  1.0000
  C   C105      1.0  0.7934599999999999  0.7715700000000002  0.06543  1.0000
  C   C106      1.0  0.77564  0.8185400000000003  0.09487  1.0000
  C   C107      1.0  0.8032400000000002  0.8481600000000002  0.15567000000000003  1.0000
  C   C108      1.0  0.7818700000000001  0.89661  0.18700000000000003  1.0000
  C   C109      1.0  0.84986  0.83196  0.18746  1.0000
  C   C110      1.0  0.86763  0.78525  0.15805  1.0000
  C   C111      1.0  0.9191600000000001  0.76901  0.19149  1.0000
  C   C112      1.0  0.83883  0.75465  0.09697  1.0000
  C   C113      1.0  0.6081500000000001  0.4224000000000002  0.7216700000000003  1.0000
  C   C114      1.0  0.54075  0.37191000000000013  0.7047  1.0000
  C   C115      1.0  0.4783900000000001  0.35154000000000013  0.6545300000000001  1.0000
  C   C116      1.0  0.41669  0.3023200000000001  0.63669  1.0000
  C   C117      1.0  0.3494399999999999  0.28051000000000004  0.58408  1.0000
  C   C118      1.0  0.41757999999999995  0.27350000000000013  0.66885  1.0000
  C   C119      1.0  0.47947  0.29421000000000014  0.71921  1.0000
  C   C120      1.0  0.54131  0.34390000000000004  0.7375500000000001  1.0000
  C   C121      1.0  0.52092  0.24286000000000016  0.8184100000000002  1.0000
  C   C122      1.0  0.45732  0.19285000000000013  0.7958600000000001  1.0000
  C   C123      1.0  0.454  0.15979  0.82348  1.0000
  C   C124      1.0  0.3853700000000001  0.10784000000000012  0.8005000000000002  1.0000
  C   C125      1.0  0.51423  0.17560000000000012  0.87308  1.0000
  C   C126      1.0  0.57771  0.2251600000000001  0.89526  1.0000
  C   C127      1.0  0.6432400000000001  0.24064000000000008  0.9462800000000001  1.0000
  C   C128      1.0  0.58088  0.2592100000000001  0.8682600000000001  1.0000
  C   C129      1.0  0.10859000000000005  0.20873000000000005  0.41528  1.0000
  C   C130      1.0  0.04229000000000003  0.18610000000000004  0.36154  1.0000
  C   C131      1.0  0.98238  0.13449  0.34168  1.0000
  C   C132      1.0  0.9211599999999999  0.11305000000000004  0.29066000000000003  1.0000
  C   C133      1.0  0.85601  0.05926000000000002  0.26981  1.0000
  C   C134      1.0  0.9198800000000001  0.14305  0.25956  1.0000
  C   C135      1.0  0.97967  0.19449  0.27948  1.0000
  C   C136      1.0  0.04104000000000004  0.21624000000000004  0.33080000000000004  1.0000
  C   C137      1.0  0.021670000000000012  0.29383000000000004  0.2283  1.0000
  C   C138      1.0  0.95681  0.27623  0.18133  1.0000
  C   C139      1.0  0.9546700000000001  0.3073900000000001  0.15168  1.0000
  C   C140      1.0  0.8847800000000001  0.29019  0.10315000000000003  1.0000
  C   C141      1.0  0.017500000000000033  0.3553900000000001  0.16783  1.0000
  C   C142      1.0  0.0821500000000001  0.3727400000000001  0.21451000000000006  1.0000
  C   C143      1.0  0.15005000000000004  0.42245000000000016  0.23086000000000007  1.0000
  C   C144      1.0  0.08395999999999999  0.34228  0.24514  1.0000
  C   C145      1.0  0.18619000000000005  0.29945000000000005  0.5778500000000001  1.0000
  C   C146      1.0  0.16903000000000007  0.3328300000000001  0.6282300000000001  1.0000
  C   C147      1.0  0.12702  0.30301  0.64857  1.0000
  C   C148      1.0  0.11445000000000001  0.33441  0.6977  1.0000
  C   C149      1.0  0.06907000000000003  0.30364000000000013  0.7195500000000001  1.0000
  C   C150      1.0  0.14408000000000004  0.3954000000000001  0.72649  1.0000
  C   C151      1.0  0.18526000000000004  0.4250900000000001  0.70583  1.0000
  C   C152      1.0  0.19745000000000001  0.39370000000000005  0.65619  1.0000
  C   C153      1.0  0.27815000000000006  0.5756100000000001  0.7570100000000001  1.0000
  C   C154      1.0  0.2647300000000002  0.6032000000000002  0.8070400000000002  1.0000
  C   C155      1.0  0.2946400000000001  0.6639  0.8400800000000003  1.0000
  C   C156      1.0  0.27798  0.6927800000000002  0.89205  1.0000
  C   C157      1.0  0.3391000000000002  0.6976300000000002  0.8242400000000001  1.0000
  C   C158      1.0  0.35293000000000013  0.6701200000000003  0.7746900000000001  1.0000
  C   C159      1.0  0.40307999999999994  0.7055000000000002  0.75912  1.0000
  C   C160      1.0  0.32184  0.60906  0.7406700000000002  1.0000
  C   C161      1.0  0.89998  0.20663  0.79148  1.0000
  C   C162      1.0  0.85613  0.17549  0.81401  1.0000
  C   C163      1.0  0.84772  0.20718999999999999  0.86556  1.0000
  C   C164      1.0  0.80782  0.17755000000000015  0.8868800000000002  1.0000
  C   C165      1.0  0.79607  0.21032000000000003  0.9405200000000001  1.0000
  C   C166      1.0  0.77666  0.11643000000000009  0.8568900000000002  1.0000
  C   C167      1.0  0.78513  0.08494000000000007  0.8055200000000001  1.0000
  C   C168      1.0  0.8247400000000001  0.11460000000000012  0.7838400000000001  1.0000
  C   C169      1.0  0.7279300000000001  0.93449  0.7061000000000001  1.0000
  C   C170      1.0  0.68069  0.9050300000000002  0.72362  1.0000
  C   C171      1.0  0.6475100000000003  0.8442100000000002  0.69243  1.0000
  C   C172      1.0  0.59512  0.8128800000000003  0.70974  1.0000
  C   C173      1.0  0.6623  0.81239  0.64449  1.0000
  C   C174      1.0  0.7095100000000001  0.8418000000000002  0.62719  1.0000
  C   C175      1.0  0.7277200000000001  0.8084500000000002  0.57759  1.0000
  C   C176      1.0  0.7417299999999999  0.90291  0.65764  1.0000
  C   C177      1.0  0.8864900000000002  0.2782900000000001  0.70052  1.0000
  C   C178      1.0  0.8359900000000002  0.29533000000000004  0.6671100000000001  1.0000
  C   C179      1.0  0.8236800000000001  0.34542  0.69691  1.0000
  C   C180      1.0  0.7796099999999997  0.36314  0.66551  1.0000
  C   C181      1.0  0.76475  0.4156300000000001  0.69632  1.0000
  C   C182      1.0  0.74848  0.33107000000000014  0.6045200000000001  1.0000
  C   C183      1.0  0.7601399999999999  0.28079  0.57484  1.0000
  C   C184      1.0  0.80365  0.2625000000000001  0.6062400000000001  1.0000
  C   C185      1.0  0.7024299999999999  0.18148  0.42431  1.0000
  C   C186      1.0  0.66122  0.20380000000000012  0.3966800000000001  1.0000
  C   C187      1.0  0.6302500000000001  0.17605  0.33598  1.0000
  C   C188      1.0  0.58443  0.19899  0.30705  1.0000
  C   C189      1.0  0.64115  0.12657  0.30229  1.0000
  C   C190      1.0  0.68272  0.10464  0.32984  1.0000
  C   C191      1.0  0.6977999999999999  0.05386000000000001  0.29456  1.0000
  C   C192      1.0  0.7127300000000001  0.13171000000000008  0.39089000000000007  1.0000
  N   N1        1.0  0.27288  0.24521000000000004  0.02342  1.0000
  N   N2        1.0  0.2319700000000001  0.26177  0.99607  1.0000
  N   N3        1.0  0.5267100000000001  0.73923  0.25276  1.0000
  N   N4        1.0  0.4705400000000001  0.7213100000000002  0.20729000000000003  1.0000
  N   N5        1.0  0.02773  0.77815  0.75468  1.0000
  N   N6        1.0  0.9702600000000001  0.7342900000000002  0.7382900000000001  1.0000
  N   N7        1.0  0.7874599999999999  0.51344  0.26076000000000005  1.0000
  N   N8        1.0  0.7493  0.4859500000000001  0.27876  1.0000
  N   N9        1.0  0.24952000000000013  0.9766100000000004  0.22183000000000005  1.0000
  N   N10       1.0  0.23595  0.003980000000000001  0.26572  1.0000
  N   N11       1.0  0.27395  0.7472200000000002  0.48664  1.0000
  N   N12       1.0  0.26334  0.79274  0.51414  1.0000
  N   N13       1.0  0.72713  0.7548000000000002  0.9765700000000002  1.0000
  N   N14       1.0  0.76803  0.73823  0.00393  1.0000
  N   N15       1.0  0.47328999999999993  0.26078  0.74724  1.0000
  N   N16       1.0  0.5294600000000003  0.27869000000000016  0.7927100000000002  1.0000
  N   N17       1.0  0.9722700000000004  0.22186000000000006  0.24532000000000007  1.0000
  N   N18       1.0  0.02974000000000001  0.26572  0.26171  1.0000
  N   N19       1.0  0.21254000000000012  0.4865700000000002  0.7392300000000003  1.0000
  N   N20       1.0  0.2507  0.51406  0.7212300000000003  1.0000
  N   N21       1.0  0.75048  0.023390000000000025  0.7781600000000001  1.0000
  N   N22       1.0  0.7640500000000001  0.9960200000000001  0.73428  1.0000
  N   N23       1.0  0.72605  0.2527900000000001  0.5133600000000001  1.0000
  N   N24       1.0  0.7366600000000001  0.20727000000000007  0.48585000000000006  1.0000
  O   O1        1.0  0.27683  0.4344000000000001  0.17539  1.0000
  O   O2        1.0  0.32524  0.43686  0.26155  1.0000
  O   O3        1.0  0.41226  0.21908000000000002  0.18040000000000006  1.0000
  O   O4        1.0  0.45073  0.3042600000000001  0.26536000000000004  1.0000
  O   O5        1.0  0.25228000000000017  0.08504000000000013  0.8429300000000002  1.0000
  O   O6        1.0  0.2011  0.08464000000000005  0.7584000000000001  1.0000
  O   O7        1.0  0.042010000000000054  0.1934500000000001  0.75452  1.0000
  O   O8        1.0  0.07863000000000019  0.2806400000000002  0.8368500000000002  1.0000
  O   O9        1.0  0.33887  0.55801  0.22979  1.0000
  O   O10       1.0  0.39193  0.55882  0.31426000000000004  1.0000
  O   O11       1.0  0.65285  0.68719  0.43895  1.0000
  O   O12       1.0  0.7010400000000001  0.76858  0.4332  1.0000
  O   O13       1.0  0.6649300000000002  0.9079300000000001  0.24792000000000006  1.0000
  O   O14       1.0  0.61775  0.91628  0.1681  1.0000
  O   O15       1.0  0.35693000000000014  0.7974500000000002  0.0379  1.0000
  O   O16       1.0  0.3047599999999999  0.7093  0.030690000000000002  1.0000
  O   O17       1.0  0.84219  0.7411  0.56586  1.0000
  O   O18       1.0  0.88858  0.82413  0.56236  1.0000
  O   O19       1.0  0.1938100000000001  0.9608900000000002  0.78061  1.0000
  O   O20       1.0  0.14584  0.96182  0.69629  1.0000
  O   O21       1.0  0.16773000000000005  0.7581400000000003  0.91523  1.0000
  O   O22       1.0  0.11698  0.67405  0.91571  1.0000
  O   O23       1.0  0.84844  0.56105  0.80661  1.0000
  O   O24       1.0  0.7981900000000001  0.5562300000000001  0.71942  1.0000
  O   O25       1.0  0.78167  0.67182  0.44243  1.0000
  O   O26       1.0  0.8312900000000003  0.75504  0.4402  1.0000
  O   O27       1.0  0.9650300000000005  0.75178  0.31244  1.0000
  O   O28       1.0  0.9327500000000002  0.6644800000000001  0.23159000000000002  1.0000
  O   O29       1.0  0.7565500000000001  0.3400100000000001  0.09231  1.0000
  O   O30       1.0  0.7010800000000001  0.25170000000000003  0.08367  1.0000
  O   O31       1.0  0.55829  0.24071  0.20264000000000001  1.0000
  O   O32       1.0  0.59558  0.32152  0.29117  1.0000
  O   O33       1.0  0.10158000000000003  0.8244800000000001  0.25895  1.0000
  O   O34       1.0  0.06347000000000005  0.7382800000000003  0.17525  1.0000
  O   O35       1.0  0.23364  0.82005  0.03944  1.0000
  O   O36       1.0  0.18497000000000008  0.7347200000000002  0.03844  1.0000
  O   O37       1.0  0.40922  0.15695000000000003  0.24214000000000002  1.0000
  O   O38       1.0  0.44194  0.24191000000000004  0.32566  1.0000
  O   O39       1.0  0.28761000000000003  0.24559000000000009  0.4389700000000001  1.0000
  O   O40       1.0  0.2415  0.16314  0.44356  1.0000
  O   O41       1.0  0.10959000000000012  0.7704900000000002  0.32837  1.0000
  O   O42       1.0  0.07711000000000007  0.6856  0.24485  1.0000
  O   O43       1.0  0.21393000000000004  0.56114  0.24828000000000003  1.0000
  O   O44       1.0  0.26912  0.56732  0.33539  1.0000
  O   O45       1.0  0.4176700000000001  0.7527400000000002  0.66012  1.0000
  O   O46       1.0  0.4500400000000001  0.8321500000000002  0.7484800000000001  1.0000
  O   O47       1.0  0.31812000000000007  0.9620100000000001  0.75935  1.0000
  O   O48       1.0  0.27287  0.96895  0.6783  1.0000
  O   O49       1.0  0.7231700000000001  0.5656100000000001  0.8246100000000001  1.0000
  O   O50       1.0  0.6747600000000001  0.5631500000000002  0.7384500000000002  1.0000
  O   O51       1.0  0.5877400000000002  0.7809200000000002  0.8195900000000002  1.0000
  O   O52       1.0  0.5492700000000001  0.69575  0.7346400000000001  1.0000
  O   O53       1.0  0.74772  0.9149700000000002  0.15707  1.0000
  O   O54       1.0  0.7989  0.9153700000000002  0.24160000000000006  1.0000
  O   O55       1.0  0.95799  0.8065500000000002  0.24548  1.0000
  O   O56       1.0  0.9213700000000001  0.7193700000000001  0.16314000000000003  1.0000
  O   O57       1.0  0.66113  0.44199000000000016  0.7702000000000002  1.0000
  O   O58       1.0  0.60807  0.4411800000000001  0.68574  1.0000
  O   O59       1.0  0.34715  0.31282  0.56104  1.0000
  O   O60       1.0  0.29896  0.23143000000000005  0.5668  1.0000
  O   O61       1.0  0.33507  0.09208000000000001  0.75208  1.0000
  O   O62       1.0  0.38225  0.08372  0.8319  1.0000
  O   O63       1.0  0.6430700000000001  0.20255000000000012  0.9621  1.0000
  O   O64       1.0  0.6952400000000001  0.29071000000000013  0.96931  1.0000
  O   O65       1.0  0.1578100000000001  0.25890000000000013  0.43413000000000007  1.0000
  O   O66       1.0  0.11142000000000006  0.17587000000000008  0.43764  1.0000
  O   O67       1.0  0.8061899999999999  0.03911  0.21939  1.0000
  O   O68       1.0  0.85416  0.038180000000000026  0.30371000000000004  1.0000
  O   O69       1.0  0.83227  0.24186000000000005  0.08477  1.0000
  O   O70       1.0  0.88302  0.32596  0.08429  1.0000
  O   O71       1.0  0.15156000000000006  0.4389500000000001  0.19339  1.0000
  O   O72       1.0  0.20181  0.44377  0.28058  1.0000
  O   O73       1.0  0.21834000000000003  0.32819000000000004  0.55756  1.0000
  O   O74       1.0  0.16870999999999997  0.24496  0.55979  1.0000
  O   O75       1.0  0.03497000000000004  0.24822000000000008  0.68756  1.0000
  O   O76       1.0  0.06725000000000014  0.3355200000000002  0.7684000000000002  1.0000
  O   O77       1.0  0.24345000000000014  0.6599900000000002  0.90769  1.0000
  O   O78       1.0  0.2989200000000001  0.7483000000000002  0.9163300000000001  1.0000
  O   O79       1.0  0.4417100000000001  0.7592900000000001  0.7973600000000001  1.0000
  O   O80       1.0  0.4044200000000001  0.67848  0.7088300000000001  1.0000
  O   O81       1.0  0.89842  0.17552000000000006  0.74105  1.0000
  O   O82       1.0  0.9365299999999999  0.26172000000000006  0.82475  1.0000
  O   O83       1.0  0.76636  0.17995000000000008  0.96055  1.0000
  O   O84       1.0  0.8150300000000001  0.2652800000000001  0.96156  1.0000
  O   O85       1.0  0.59078  0.8430500000000002  0.75786  1.0000
  O   O86       1.0  0.5580600000000001  0.75809  0.6743400000000002  1.0000
  O   O87       1.0  0.71239  0.75442  0.56103  1.0000
  O   O88       1.0  0.7585  0.83686  0.55644  1.0000
  O   O89       1.0  0.8904100000000003  0.22952000000000003  0.6716300000000001  1.0000
  O   O90       1.0  0.92289  0.31441  0.75515  1.0000
  O   O91       1.0  0.78608  0.4388600000000001  0.75171  1.0000
  O   O92       1.0  0.73088  0.4326800000000001  0.66461  1.0000
  O   O93       1.0  0.58233  0.24726000000000006  0.33988000000000007  1.0000
  O   O94       1.0  0.54996  0.16785000000000003  0.25151000000000007  1.0000
  O   O95       1.0  0.68188  0.03799  0.24065  1.0000
  O   O96       1.0  0.72713  0.031060000000000053  0.32170000000000004  1.0000
