data_image0
_chemical_formula_structural       Zn16H192C240N32O64
_chemical_formula_sum              "Zn16 H192 C240 N32 O64"
_cell_length_a       12.23617
_cell_length_b       24.98856
_cell_length_c       31.402140000000003
_cell_angle_alpha    90.01993
_cell_angle_beta     89.99490000000002
_cell_angle_gamma    96.78033

_symmetry_space_group_name_H-M    'P 1'
_symmetry_Int_Tables_number       1

loop_
  _symmetry_equiv_pos_as_xyz
  'x,y,z'

loop_
  _atom_site_type_symbol
  _atom_site_label
  _atom_site_symmetry_multiplicity
  _atom_site_fract_x
  _atom_site_fract_y
  _atom_site_fract_z
  _atom_site_occupancy
  Zn  Zn1       1.0  0.5851  0.20766  0.25923  1.0000
  Zn  Zn2       1.0  0.39269  0.25263  0.27005  1.0000
  Zn  Zn3       1.0  0.6996699999999999  0.43051  0.64045  1.0000
  Zn  Zn4       1.0  0.29969  0.08639  0.87416  1.0000
  Zn  Zn5       1.0  0.91418  0.2923  0.75922  1.0000
  Zn  Zn6       1.0  0.1075  0.24746000000000004  0.77004  1.0000
  Zn  Zn7       1.0  0.8005700000000001  0.06875  0.14047999999999997  1.0000
  Zn  Zn8       1.0  0.20019  0.41381000000000007  0.37408  1.0000
  Zn  Zn9       1.0  0.41489  0.79233  0.74077  1.0000
  Zn  Zn10      1.0  0.6073  0.74736  0.72995  1.0000
  Zn  Zn11      1.0  0.30032  0.56949  0.35955  1.0000
  Zn  Zn12      1.0  0.7002899999999999  0.9136  0.12584  1.0000
  Zn  Zn13      1.0  0.08581000000000004  0.7077000000000001  0.24078  1.0000
  Zn  Zn14      1.0  0.89249  0.7525400000000001  0.22997  1.0000
  Zn  Zn15      1.0  0.19942000000000001  0.9312500000000001  0.85952  1.0000
  Zn  Zn16      1.0  0.7998  0.58618  0.62592  1.0000
  H   H1        1.0  0.64485  0.10903  0.21031  1.0000
  H   H2        1.0  0.7021299999999999  0.16554000000000002  0.17983999999999997  1.0000
  H   H3        1.0  0.81274  0.23980000000000004  0.21487  1.0000
  H   H4        1.0  0.83994  0.23697  0.27067  1.0000
  H   H5        1.0  0.76154  0.15946  0.31178  1.0000
  H   H6        1.0  0.68017  0.105  0.28606  1.0000
  H   H7        1.0  0.98621  0.13542  0.18776  1.0000
  H   H8        1.0  0.89668  0.18081  0.16682  1.0000
  H   H9        1.0  0.76548  0.046540000000000005  0.23873999999999995  1.0000
  H   H10       1.0  0.90988  0.05793  0.22885  1.0000
  H   H11       1.0  0.95687  0.17536  0.29809  1.0000
  H   H12       1.0  0.01936  0.13158  0.26269  1.0000
  H   H13       1.0  0.27689  0.30602  0.34474  1.0000
  H   H14       1.0  0.34657  0.35688  0.31173  1.0000
  H   H15       1.0  0.31879  0.35367  0.23516  1.0000
  H   H16       1.0  0.22953  0.29998  0.21204  1.0000
  H   H17       1.0  0.1345  0.23087  0.25693  1.0000
  H   H18       1.0  0.15586  0.23308000000000004  0.31329  1.0000
  H   H19       1.0  0.09933000000000002  0.41849000000000003  0.2843  1.0000
  H   H20       1.0  0.24425999999999998  0.42124  0.27647  1.0000
  H   H21       1.0  0.07897  0.30162  0.35501  1.0000
  H   H22       1.0  0.003970000000000002  0.34916  0.32896  1.0000
  H   H23       1.0  0.03446  0.29435  0.2228  1.0000
  H   H24       1.0  0.9777  0.34515  0.25289  1.0000
  H   H25       1.0  0.52984  0.42238  0.23206  1.0000
  H   H26       1.0  0.54985  0.52032  0.21169  1.0000
  H   H27       1.0  0.66782  0.60867  0.20638  1.0000
  H   H28       1.0  0.94473  0.53796  0.25481  1.0000
  H   H29       1.0  0.9271199999999999  0.44051  0.27178  1.0000
  H   H30       1.0  0.81042  0.35126  0.2766099999999999  1.0000
  H   H31       1.0  0.25563  0.23427  0.14405  1.0000
  H   H32       1.0  0.20288999999999996  0.21236  0.06868  1.0000
  H   H33       1.0  0.25087999999999994  0.17709  0.99786  1.0000
  H   H34       1.0  0.574  0.13118  0.97608  1.0000
  H   H35       1.0  0.62866  0.15751  0.05085  1.0000
  H   H36       1.0  0.5813  0.19202  0.12086999999999999  1.0000
  H   H37       1.0  0.4330899999999999  0.30236  0.39868  1.0000
  H   H38       1.0  0.408  0.35726  0.46226  1.0000
  H   H39       1.0  0.47234  0.38979  0.53447  1.0000
  H   H40       1.0  0.72487  0.28412  0.53272  1.0000
  H   H41       1.0  0.75217  0.22979  0.46723  1.0000
  H   H42       1.0  0.6971399999999999  0.20347  0.39289  1.0000
  H   H43       1.0  0.41887  0.44447000000000003  0.65366  1.0000
  H   H44       1.0  0.22942999999999997  0.39571  0.65474  1.0000
  H   H45       1.0  0.02746000000000001  0.39815  0.65129  1.0000
  H   H46       1.0  0.07512  0.5691  0.62859  1.0000
  H   H47       1.0  0.26641  0.61697  0.62286  1.0000
  H   H48       1.0  0.46816  0.61459  0.6278  1.0000
  H   H49       1.0  0.8551300000000001  0.39087  0.71039  1.0000
  H   H50       1.0  0.79802  0.33429000000000003  0.67993  1.0000
  H   H51       1.0  0.68722  0.26015  0.7149  1.0000
  H   H52       1.0  0.6599  0.26297  0.77067  1.0000
  H   H53       1.0  0.7382400000000001  0.34062  0.81181  1.0000
  H   H54       1.0  0.81973  0.39501  0.78608  1.0000
  H   H55       1.0  0.51385  0.36451  0.68775  1.0000
  H   H56       1.0  0.60323  0.319  0.66684  1.0000
  H   H57       1.0  0.73457  0.45341000000000004  0.73869  1.0000
  H   H58       1.0  0.59017  0.44204  0.72876  1.0000
  H   H59       1.0  0.54308  0.3247  0.79809  1.0000
  H   H60       1.0  0.48055  0.36843  0.76269  1.0000
  H   H61       1.0  0.22326  0.1942  0.84469  1.0000
  H   H62       1.0  0.15356  0.14329  0.8117  1.0000
  H   H63       1.0  0.18115  0.14636  0.73518  1.0000
  H   H64       1.0  0.27043000000000006  0.19997000000000004  0.71198  1.0000
  H   H65       1.0  0.36573  0.26921  0.75687  1.0000
  H   H66       1.0  0.34439  0.26702  0.81324  1.0000
  H   H67       1.0  0.40081000000000006  0.08162  0.78429  1.0000
  H   H68       1.0  0.25586  0.07878  0.7765  1.0000
  H   H69       1.0  0.42143  0.19853  0.85495  1.0000
  H   H70       1.0  0.49618  0.15093  0.82886  1.0000
  H   H71       1.0  0.46551  0.20562  0.7227  1.0000
  H   H72       1.0  0.52231  0.15485  0.75278  1.0000
  H   H73       1.0  0.96986  0.07758  0.73203  1.0000
  H   H74       1.0  0.95015  0.9796900000000001  0.7116  1.0000
  H   H75       1.0  0.83268  0.8912300000000001  0.70638  1.0000
  H   H76       1.0  0.55529  0.96167  0.75485  1.0000
  H   H77       1.0  0.57248  0.0592  0.7717199999999997  1.0000
  H   H78       1.0  0.68919  0.14849  0.77657  1.0000
  H   H79       1.0  0.24342  0.26567  0.64421  1.0000
  H   H80       1.0  0.29706  0.28753  0.56898  1.0000
  H   H81       1.0  0.25009  0.32307  0.49804  1.0000
  H   H82       1.0  0.9275999999999999  0.36961  0.47593  1.0000
  H   H83       1.0  0.87182  0.34269  0.55045  1.0000
  H   H84       1.0  0.91819  0.30814  0.6204999999999999  1.0000
  H   H85       1.0  0.06728  0.19781  0.89865  1.0000
  H   H86       1.0  0.09202  0.14279  0.96241  1.0000
  H   H87       1.0  0.026769999999999995  0.11021  0.03444  1.0000
  H   H88       1.0  0.7748  0.21622  0.03244  1.0000
  H   H89       1.0  0.7479899999999999  0.27042  0.96705  1.0000
  H   H90       1.0  0.80349  0.29676  0.89277  1.0000
  H   H91       1.0  0.08103  0.05533  0.15377  1.0000
  H   H92       1.0  0.27105  0.10419  0.15459999999999996  1.0000
  H   H93       1.0  0.47264  0.10161  0.15117  1.0000
  H   H94       1.0  0.42457  0.93054  0.12842  1.0000
  H   H95       1.0  0.23357  0.88287  0.12272  1.0000
  H   H96       1.0  0.03185000000000005  0.8853100000000002  0.12785999999999995  1.0000
  H   H97       1.0  0.35514  0.89096  0.78969  1.0000
  H   H98       1.0  0.29786  0.8344500000000001  0.82016  1.0000
  H   H99       1.0  0.18725  0.7602  0.78513  1.0000
  H   H100      1.0  0.16005  0.7630200000000001  0.72933  1.0000
  H   H101      1.0  0.23845  0.84053  0.68822  1.0000
  H   H102      1.0  0.31981  0.8950000000000001  0.71394  1.0000
  H   H103      1.0  0.013779999999999976  0.86458  0.81224  1.0000
  H   H104      1.0  0.10331000000000003  0.81918  0.83318  1.0000
  H   H105      1.0  0.23450999999999997  0.95345  0.76126  1.0000
  H   H106      1.0  0.09011000000000004  0.94206  0.77115  1.0000
  H   H107      1.0  0.04312000000000002  0.82464  0.70191  1.0000
  H   H108      1.0  0.98063  0.8684100000000001  0.73731  1.0000
  H   H109      1.0  0.7231  0.69398  0.65526  1.0000
  H   H110      1.0  0.65342  0.64312  0.68827  1.0000
  H   H111      1.0  0.68119  0.64633  0.76484  1.0000
  H   H112      1.0  0.77046  0.70002  0.78796  1.0000
  H   H113      1.0  0.86549  0.76913  0.74307  1.0000
  H   H114      1.0  0.84413  0.76692  0.68671  1.0000
  H   H115      1.0  0.90066  0.5815  0.7157  1.0000
  H   H116      1.0  0.75573  0.57875  0.72353  1.0000
  H   H117      1.0  0.92102  0.6983699999999999  0.64499  1.0000
  H   H118      1.0  0.99602  0.6508300000000001  0.67104  1.0000
  H   H119      1.0  0.9655299999999999  0.70564  0.7772  1.0000
  H   H120      1.0  0.022289999999999997  0.65485  0.74711  1.0000
  H   H121      1.0  0.47014999999999996  0.57762  0.76794  1.0000
  H   H122      1.0  0.45014  0.47968000000000005  0.78831  1.0000
  H   H123      1.0  0.33216999999999997  0.39133  0.7936199999999998  1.0000
  H   H124      1.0  0.055249999999999994  0.46204  0.74519  1.0000
  H   H125      1.0  0.07286999999999998  0.55948  0.72822  1.0000
  H   H126      1.0  0.18956999999999996  0.64873  0.72339  1.0000
  H   H127      1.0  0.74436  0.76572  0.8559499999999998  1.0000
  H   H128      1.0  0.7971  0.78763  0.93132  1.0000
  H   H129      1.0  0.7491099999999999  0.8229100000000001  0.00214  1.0000
  H   H130      1.0  0.42599  0.8688200000000001  0.02392  1.0000
  H   H131      1.0  0.37133  0.84248  0.94915  1.0000
  H   H132      1.0  0.41869  0.8079800000000001  0.8791299999999997  1.0000
  H   H133      1.0  0.5669  0.6976300000000001  0.60132  1.0000
  H   H134      1.0  0.5919899999999999  0.64273  0.53774  1.0000
  H   H135      1.0  0.52765  0.61021  0.46553  1.0000
  H   H136      1.0  0.27512  0.7158800000000001  0.46727999999999986  1.0000
  H   H137      1.0  0.2478200000000001  0.7702100000000001  0.53277  1.0000
  H   H138      1.0  0.30285  0.7965200000000001  0.60711  1.0000
  H   H139      1.0  0.58112  0.55553  0.34634  1.0000
  H   H140      1.0  0.7705599999999999  0.60429  0.34526  1.0000
  H   H141      1.0  0.97253  0.60184  0.34871  1.0000
  H   H142      1.0  0.9248699999999999  0.43089000000000005  0.37141  1.0000
  H   H143      1.0  0.73358  0.38303  0.37714  1.0000
  H   H144      1.0  0.53183  0.3854  0.3722  1.0000
  H   H145      1.0  0.14486  0.60912  0.28961  1.0000
  H   H146      1.0  0.20197  0.6657  0.32007  1.0000
  H   H147      1.0  0.31277  0.73985  0.2851  1.0000
  H   H148      1.0  0.34008999999999995  0.73702  0.22933  1.0000
  H   H149      1.0  0.26174  0.65937  0.18819  1.0000
  H   H150      1.0  0.18025  0.60499  0.21392  1.0000
  H   H151      1.0  0.48614  0.63548  0.31225  1.0000
  H   H152      1.0  0.39676  0.68099  0.33316  1.0000
  H   H153      1.0  0.26542  0.54658  0.26131  1.0000
  H   H154      1.0  0.40981  0.55795  0.27124  1.0000
  H   H155      1.0  0.45691000000000004  0.6752900000000001  0.20191  1.0000
  H   H156      1.0  0.5194399999999999  0.63157  0.23731  1.0000
  H   H157      1.0  0.7767299999999999  0.8058  0.15531  1.0000
  H   H158      1.0  0.84643  0.85671  0.1883  1.0000
  H   H159      1.0  0.81884  0.85363  0.26482  1.0000
  H   H160      1.0  0.72956  0.80002  0.28802  1.0000
  H   H161      1.0  0.6342500000000001  0.73079  0.24313  1.0000
  H   H162      1.0  0.6556  0.7329800000000001  0.18675999999999995  1.0000
  H   H163      1.0  0.59918  0.91838  0.21571  1.0000
  H   H164      1.0  0.74413  0.92122  0.2235  1.0000
  H   H165      1.0  0.57855  0.80146  0.14505  1.0000
  H   H166      1.0  0.50381  0.84907  0.17113999999999993  1.0000
  H   H167      1.0  0.5344799999999997  0.79438  0.2773  1.0000
  H   H168      1.0  0.47767999999999994  0.84514  0.24722  1.0000
  H   H169      1.0  0.030129999999999987  0.92242  0.26797  1.0000
  H   H170      1.0  0.04984  0.020300000000000002  0.2884  1.0000
  H   H171      1.0  0.16730999999999996  0.10876000000000001  0.29362  1.0000
  H   H172      1.0  0.4447  0.03832  0.24515  1.0000
  H   H173      1.0  0.42751  0.94079  0.22828  1.0000
  H   H174      1.0  0.3108000000000001  0.8515100000000001  0.22343  1.0000
  H   H175      1.0  0.75657  0.73433  0.35579  1.0000
  H   H176      1.0  0.70293  0.71246  0.43102  1.0000
  H   H177      1.0  0.7499  0.67692  0.50196  1.0000
  H   H178      1.0  0.07237999999999997  0.63038  0.52407  1.0000
  H   H179      1.0  0.12817  0.6573  0.44955  1.0000
  H   H180      1.0  0.08179999999999997  0.69185  0.3795  1.0000
  H   H181      1.0  0.93271  0.80218  0.10135  1.0000
  H   H182      1.0  0.9079700000000002  0.8572  0.03759  1.0000
  H   H183      1.0  0.97322  0.88979  0.96556  1.0000
  H   H184      1.0  0.22519  0.78377  0.9675599999999999  1.0000
  H   H185      1.0  0.252  0.72957  0.03295  1.0000
  H   H186      1.0  0.1965  0.70323  0.10723  1.0000
  H   H187      1.0  0.91896  0.9446700000000001  0.84623  1.0000
  H   H188      1.0  0.72894  0.89581  0.8454  1.0000
  H   H189      1.0  0.52735  0.89839  0.84883  1.0000
  H   H190      1.0  0.57542  0.06946  0.87158  1.0000
  H   H191      1.0  0.76641  0.11713  0.87728  1.0000
  H   H192      1.0  0.9681299999999999  0.11469  0.87214  1.0000
  C   C1        1.0  0.71645  0.13942  0.20674999999999993  1.0000
  C   C2        1.0  0.8289499999999999  0.21321  0.24133  1.0000
  C   C3        1.0  0.75222  0.13528  0.2826099999999999  1.0000
  C   C4        1.0  0.91269  0.15541  0.19408  1.0000
  C   C5        1.0  0.83636  0.07757  0.23561  1.0000
  C   C6        1.0  0.94532  0.15119  0.26892  1.0000
  C   C7        1.0  0.26988  0.33001  0.3159  1.0000
  C   C8        1.0  0.24141  0.32728  0.23936  1.0000
  C   C9        1.0  0.14749000000000007  0.25745  0.28468  1.0000
  C   C10       1.0  0.16741  0.3942  0.28031  1.0000
  C   C11       1.0  0.07239999999999999  0.32477999999999996  0.32564  1.0000
  C   C12       1.0  0.04756000000000001  0.32162  0.25017  1.0000
  C   C13       1.0  0.59689  0.32791000000000003  0.25779  1.0000
  C   C14       1.0  0.6635700000000001  0.38204000000000005  0.25437  1.0000
  C   C15       1.0  0.61675  0.42674  0.24042  1.0000
  C   C16       1.0  0.68071  0.47765  0.23648999999999995  1.0000
  C   C17       1.0  0.6359500000000002  0.52414  0.22134  1.0000
  C   C18       1.0  0.7006  0.57306  0.21846999999999994  1.0000
  C   C19       1.0  0.81302  0.57841  0.23095  1.0000
  C   C20       1.0  0.8588099999999999  0.53357  0.24517  1.0000
  C   C21       1.0  0.7950999999999999  0.48260000000000003  0.24802  1.0000
  C   C22       1.0  0.84083  0.43612  0.26244  1.0000
  C   C23       1.0  0.7770200000000003  0.38712  0.26532  1.0000
  C   C24       1.0  0.8798  0.63269  0.23013  1.0000
  C   C25       1.0  0.44849  0.22414000000000003  0.18285999999999994  1.0000
  C   C26       1.0  0.4217099999999999  0.21424  0.13691  1.0000
  C   C27       1.0  0.31418  0.22031  0.12182  1.0000
  C   C28       1.0  0.28531  0.20817  0.08027  1.0000
  C   C29       1.0  0.36218  0.18887999999999996  0.05176  1.0000
  C   C30       1.0  0.3336  0.1737  0.00944  1.0000
  C   C31       1.0  0.40891  0.15304  0.98284  1.0000
  C   C32       1.0  0.51707  0.14783  0.9976  1.0000
  C   C33       1.0  0.54717  0.16245  0.03866  1.0000
  C   C34       1.0  0.47103  0.18308  0.06674  1.0000
  C   C35       1.0  0.49887  0.19661  0.10952  1.0000
  C   C36       1.0  0.37349999999999994  0.13248  0.93999  1.0000
  C   C37       1.0  0.53255  0.23849000000000004  0.34598  1.0000
  C   C38       1.0  0.56182  0.25176  0.3913  1.0000
  C   C39       1.0  0.50282  0.28666  0.4137  1.0000
  C   C40       1.0  0.53315  0.30331  0.45555  1.0000
  C   C41       1.0  0.47726  0.34159  0.47782  1.0000
  C   C42       1.0  0.51223  0.35936  0.51764  1.0000
  C   C43       1.0  0.60283  0.33849  0.53743  1.0000
  C   C44       1.0  0.65632  0.29988  0.51689  1.0000
  C   C45       1.0  0.62484  0.28224  0.47534  1.0000
  C   C46       1.0  0.68251  0.24547  0.4521  1.0000
  C   C47       1.0  0.6524200000000001  0.23089000000000004  0.41103  1.0000
  C   C48       1.0  0.6455  0.36006  0.57941  1.0000
  C   C49       1.0  0.57542  0.52778  0.64517  1.0000
  C   C50       1.0  0.45459  0.52916  0.64197  1.0000
  C   C51       1.0  0.38448  0.48189  0.6474  1.0000
  C   C52       1.0  0.26926  0.48164  0.64404  1.0000
  C   C53       1.0  0.19591  0.43355000000000005  0.64911  1.0000
  C   C54       1.0  0.08390999999999997  0.43473  0.64725  1.0000
  C   C55       1.0  0.040670000000000005  0.48442  0.64091  1.0000
  C   C56       1.0  0.11019  0.5318  0.63477  1.0000
  C   C57       1.0  0.22565  0.53156  0.63567  1.0000
  C   C58       1.0  0.2996  0.57933  0.62966  1.0000
  C   C59       1.0  0.41152  0.57819  0.63251  1.0000
  C   C60       1.0  0.9197599999999999  0.48576  0.64156  1.0000
  C   C61       1.0  0.78355  0.36046  0.7068  1.0000
  C   C62       1.0  0.6709  0.28674  0.74136  1.0000
  C   C63       1.0  0.74764  0.36475  0.78264  1.0000
  C   C64       1.0  0.5872799999999998  0.34447  0.69409  1.0000
  C   C65       1.0  0.66365  0.42240000000000005  0.73558  1.0000
  C   C66       1.0  0.55459  0.34883  0.76892  1.0000
  C   C67       1.0  0.23028  0.17014  0.81587  1.0000
  C   C68       1.0  0.25858  0.17274  0.73933  1.0000
  C   C69       1.0  0.35268  0.24263  0.78461  1.0000
  C   C70       1.0  0.33265  0.10587  0.78031  1.0000
  C   C71       1.0  0.42778  0.17533000000000004  0.8255699999999999  1.0000
  C   C72       1.0  0.45245000000000013  0.17838  0.75008  1.0000
  C   C73       1.0  0.90156  0.17214  0.75778  1.0000
  C   C74       1.0  0.83577  0.1178  0.75433  1.0000
  C   C75       1.0  0.8829499999999999  0.07318  0.74041  1.0000
  C   C76       1.0  0.8191399999999999  0.02222  0.73649  1.0000
  C   C77       1.0  0.8640899999999999  0.97579  0.72132  1.0000
  C   C78       1.0  0.79971  0.9268  0.7184599999999999  1.0000
  C   C79       1.0  0.6872699999999999  0.92128  0.73096  1.0000
  C   C80       1.0  0.64121  0.96607  0.74518  1.0000
  C   C81       1.0  0.7047099999999998  0.01712  0.74802  1.0000
  C   C82       1.0  0.65877  0.06356  0.76242  1.0000
  C   C83       1.0  0.72243  0.11258  0.7653  1.0000
  C   C84       1.0  0.6211699999999999  0.86683  0.73005  1.0000
  C   C85       1.0  0.049929999999999995  0.27581  0.68279  1.0000
  C   C86       1.0  0.07737  0.28575  0.63686  1.0000
  C   C87       1.0  0.18508  0.27967  0.62192  1.0000
  C   C88       1.0  0.21454  0.29183  0.58042  1.0000
  C   C89       1.0  0.13815  0.31122  0.55178  1.0000
  C   C90       1.0  0.1673  0.32651  0.50952  1.0000
  C   C91       1.0  0.09251  0.34747  0.48287  1.0000
  C   C92       1.0  0.98418  0.3527  0.49745  1.0000
  C   C93       1.0  0.95345  0.33779000000000003  0.53838  1.0000
  C   C94       1.0  0.02915999999999999  0.31705  0.5665699999999999  1.0000
  C   C95       1.0  0.0007199999999999951  0.30348  0.6093  1.0000
  C   C96       1.0  0.12879000000000002  0.36817000000000005  0.44016  1.0000
  C   C97       1.0  0.96893  0.26149  0.84597  1.0000
  C   C98       1.0  0.93884  0.24839000000000003  0.89125  1.0000
  C   C99       1.0  0.99753  0.21344000000000002  0.9137  1.0000
  C   C100      1.0  0.96691  0.19677  0.9555  1.0000
  C   C101      1.0  0.02258  0.15849  0.9778399999999998  1.0000
  C   C102      1.0  0.98719  0.14073  0.0176  1.0000
  C   C103      1.0  0.89666  0.16174  0.03734  1.0000
  C   C104      1.0  0.84338  0.20035  0.01672  1.0000
  C   C105      1.0  0.8750899999999999  0.21788  0.97518  1.0000
  C   C106      1.0  0.81763  0.25469  0.95192  1.0000
  C   C107      1.0  0.84807  0.26929  0.91088  1.0000
  C   C108      1.0  0.85414  0.14057  0.07949  1.0000
  C   C109      1.0  0.92432  0.97203  0.14518  1.0000
  C   C110      1.0  0.04530000000000003  0.9707700000000001  0.14196  1.0000
  C   C111      1.0  0.11558999999999998  0.01799  0.14739  1.0000
  C   C112      1.0  0.23086  0.0182  0.14406  1.0000
  C   C113      1.0  0.30433  0.06626  0.1491  1.0000
  C   C114      1.0  0.41629  0.06499  0.14724  1.0000
  C   C115      1.0  0.45957  0.01529  0.14095  1.0000
  C   C116      1.0  0.38993  0.96793  0.13476  1.0000
  C   C117      1.0  0.27444  0.9682700000000001  0.13567  1.0000
  C   C118      1.0  0.20039000000000007  0.9205300000000001  0.12958  1.0000
  C   C119      1.0  0.08846000000000004  0.92173  0.13244  1.0000
  C   C120      1.0  0.58062  0.014320000000000001  0.14154  1.0000
  C   C121      1.0  0.28354  0.86057  0.79325  1.0000
  C   C122      1.0  0.17103  0.78678  0.75867  1.0000
  C   C123      1.0  0.24777  0.86471  0.71739  1.0000
  C   C124      1.0  0.08730000000000002  0.8445900000000001  0.8059199999999997  1.0000
  C   C125      1.0  0.16362999999999997  0.92243  0.76439  1.0000
  C   C126      1.0  0.054669999999999976  0.8488  0.73108  1.0000
  C   C127      1.0  0.7301099999999999  0.6699800000000001  0.6841  1.0000
  C   C128      1.0  0.75857  0.6727200000000001  0.76064  1.0000
  C   C129      1.0  0.85249  0.74254  0.71532  1.0000
  C   C130      1.0  0.83258  0.6058  0.71969  1.0000
  C   C131      1.0  0.92759  0.6752200000000002  0.67436  1.0000
  C   C132      1.0  0.95243  0.6783700000000001  0.74983  1.0000
  C   C133      1.0  0.4031  0.67209  0.74221  1.0000
  C   C134      1.0  0.33642  0.61795  0.74563  1.0000
  C   C135      1.0  0.38324  0.57326  0.75958  1.0000
  C   C136      1.0  0.31928  0.52235  0.76351  1.0000
  C   C137      1.0  0.36404  0.47585  0.77866  1.0000
  C   C138      1.0  0.29939000000000004  0.42693  0.78153  1.0000
  C   C139      1.0  0.18697  0.42157999999999995  0.76905  1.0000
  C   C140      1.0  0.14118  0.46643  0.75483  1.0000
  C   C141      1.0  0.20488999999999996  0.5174  0.75198  1.0000
  C   C142      1.0  0.15916  0.56388  0.73757  1.0000
  C   C143      1.0  0.22297  0.61288  0.73468  1.0000
  C   C144      1.0  0.12019  0.3673  0.76987  1.0000
  C   C145      1.0  0.5515  0.7758600000000001  0.81714  1.0000
  C   C146      1.0  0.57828  0.78575  0.86309  1.0000
  C   C147      1.0  0.6858  0.77968  0.87818  1.0000
  C   C148      1.0  0.7146800000000001  0.79182  0.91973  1.0000
  C   C149      1.0  0.63781  0.8111199999999998  0.94824  1.0000
  C   C150      1.0  0.66639  0.8263  0.99056  1.0000
  C   C151      1.0  0.59108  0.84696  0.01716  1.0000
  C   C152      1.0  0.48292  0.85217  0.0024  1.0000
  C   C153      1.0  0.45282  0.83754  0.96135  1.0000
  C   C154      1.0  0.52896  0.81692  0.93326  1.0000
  C   C155      1.0  0.50112  0.80339  0.89048  1.0000
  C   C156      1.0  0.6264899999999999  0.8675100000000001  0.06001  1.0000
  C   C157      1.0  0.4674400000000001  0.7615000000000001  0.65402  1.0000
  C   C158      1.0  0.43817  0.74824  0.6087  1.0000
  C   C159      1.0  0.49717  0.71333  0.5863  1.0000
  C   C160      1.0  0.46684  0.69668  0.54445  1.0000
  C   C161      1.0  0.52272  0.6584000000000001  0.52218  1.0000
  C   C162      1.0  0.48774999999999996  0.64064  0.48236  1.0000
  C   C163      1.0  0.39715999999999996  0.6615  0.46257  1.0000
  C   C164      1.0  0.34367  0.70011  0.48311  1.0000
  C   C165      1.0  0.3751399999999999  0.7177600000000001  0.52466  1.0000
  C   C166      1.0  0.31748  0.75452  0.5479  1.0000
  C   C167      1.0  0.34757  0.7691100000000001  0.58897  1.0000
  C   C168      1.0  0.35449  0.63993  0.42059  1.0000
  C   C169      1.0  0.42457  0.47221  0.35483  1.0000
  C   C170      1.0  0.5454  0.47084000000000004  0.35802999999999996  1.0000
  C   C171      1.0  0.61551  0.51811  0.3526  1.0000
  C   C172      1.0  0.7307299999999999  0.51836  0.35596  1.0000
  C   C173      1.0  0.80408  0.56645  0.35089  1.0000
  C   C174      1.0  0.91608  0.56527  0.35275  1.0000
  C   C175      1.0  0.95932  0.51557  0.35909  1.0000
  C   C176      1.0  0.8898  0.4682  0.36523  1.0000
  C   C177      1.0  0.7743399999999999  0.46844  0.36433  1.0000
  C   C178      1.0  0.70039  0.42067  0.37034  1.0000
  C   C179      1.0  0.58847  0.4218  0.36749  1.0000
  C   C180      1.0  0.08022  0.51424  0.35844  1.0000
  C   C181      1.0  0.21643999999999997  0.63953  0.2932  1.0000
  C   C182      1.0  0.32909  0.71325  0.25864  1.0000
  C   C183      1.0  0.25234  0.63525  0.21736  1.0000
  C   C184      1.0  0.41271  0.65552  0.30591  1.0000
  C   C185      1.0  0.33634  0.5776  0.26442  1.0000
  C   C186      1.0  0.44539  0.65116  0.23108  1.0000
  C   C187      1.0  0.7697099999999999  0.82986  0.18413  1.0000
  C   C188      1.0  0.74141  0.8272500000000002  0.26066999999999996  1.0000
  C   C189      1.0  0.64731  0.75736  0.21539  1.0000
  C   C190      1.0  0.66734  0.89413  0.21969  1.0000
  C   C191      1.0  0.5722100000000001  0.8246700000000001  0.17443  1.0000
  C   C192      1.0  0.54754  0.82161  0.24992  1.0000
  C   C193      1.0  0.09842  0.8278599999999999  0.24222  1.0000
  C   C194      1.0  0.16422  0.88219  0.24567  1.0000
  C   C195      1.0  0.11704  0.92681  0.25959  1.0000
  C   C196      1.0  0.18085  0.9777700000000001  0.26351  1.0000
  C   C197      1.0  0.1359  0.0242  0.27868  1.0000
  C   C198      1.0  0.20028  0.0732  0.28154  1.0000
  C   C199      1.0  0.31272  0.07871  0.26904  1.0000
  C   C200      1.0  0.35878  0.03392  0.25481999999999994  1.0000
  C   C201      1.0  0.29528  0.98287  0.25198  1.0000
  C   C202      1.0  0.34122  0.93644  0.23758  1.0000
  C   C203      1.0  0.27756  0.88742  0.2347  1.0000
  C   C204      1.0  0.37881  0.13316  0.26995  1.0000
  C   C205      1.0  0.95006  0.72418  0.31721  1.0000
  C   C206      1.0  0.9226199999999999  0.7142399999999999  0.36314  1.0000
  C   C207      1.0  0.81491  0.72032  0.37808  1.0000
  C   C208      1.0  0.78545  0.70816  0.41958  1.0000
  C   C209      1.0  0.8618399999999999  0.68877  0.44822  1.0000
  C   C210      1.0  0.83269  0.67348  0.49048  1.0000
  C   C211      1.0  0.9074799999999998  0.65253  0.51713  1.0000
  C   C212      1.0  0.015809999999999987  0.6473  0.50255  1.0000
  C   C213      1.0  0.04653999999999997  0.6621999999999999  0.46162  1.0000
  C   C214      1.0  0.97083  0.68295  0.43343  1.0000
  C   C215      1.0  0.99927  0.69652  0.3907  1.0000
  C   C216      1.0  0.8712  0.63182  0.55984  1.0000
  C   C217      1.0  0.03106000000000002  0.7385  0.15403  1.0000
  C   C218      1.0  0.06114000000000006  0.7516000000000002  0.10875  1.0000
  C   C219      1.0  0.0024600000000000104  0.78656  0.0863  1.0000
  C   C220      1.0  0.033080000000000026  0.80322  0.0445  1.0000
  C   C221      1.0  0.9774  0.8415  0.02216  1.0000
  C   C222      1.0  0.012799999999999997  0.85927  0.9824  1.0000
  C   C223      1.0  0.10331999999999998  0.83826  0.96266  1.0000
  C   C224      1.0  0.15660999999999994  0.79965  0.98328  1.0000
  C   C225      1.0  0.12489000000000003  0.78211  0.02482  1.0000
  C   C226      1.0  0.18234999999999998  0.7453  0.04808  1.0000
  C   C227      1.0  0.15192  0.7307  0.08912  1.0000
  C   C228      1.0  0.14584999999999995  0.85942  0.92051  1.0000
  C   C229      1.0  0.07567  0.02796  0.85482  1.0000
  C   C230      1.0  0.95469  0.02922  0.85804  1.0000
  C   C231      1.0  0.8844  0.98201  0.85261  1.0000
  C   C232      1.0  0.76913  0.98179  0.85594  1.0000
  C   C233      1.0  0.6956599999999998  0.93373  0.8509  1.0000
  C   C234      1.0  0.5837  0.9350099999999999  0.85276  1.0000
  C   C235      1.0  0.54042  0.98471  0.85905  1.0000
  C   C236      1.0  0.61006  0.03207  0.86524  1.0000
  C   C237      1.0  0.7255499999999999  0.03173  0.86433  1.0000
  C   C238      1.0  0.7996  0.07946  0.87042  1.0000
  C   C239      1.0  0.91153  0.07826  0.86756  1.0000
  C   C240      1.0  0.41936  0.9856700000000002  0.85846  1.0000
  N   N1        1.0  0.7299499999999999  0.17202  0.2465  1.0000
  N   N2        1.0  0.81617  0.11242  0.19802999999999996  1.0000
  N   N3        1.0  0.85107  0.10922999999999998  0.27468  1.0000
  N   N4        1.0  0.9282299999999999  0.18745000000000003  0.23296  1.0000
  N   N5        1.0  0.25321  0.29351  0.27851  1.0000
  N   N6        1.0  0.17648  0.36257  0.32067  1.0000
  N   N7        1.0  0.14902  0.35877  0.24349  1.0000
  N   N8        1.0  0.053939999999999995  0.28866  0.28909  1.0000
  N   N9        1.0  0.76987  0.32794  0.74657  1.0000
  N   N10       1.0  0.68385  0.38741  0.69805  1.0000
  N   N11       1.0  0.64884  0.39081  0.77466  1.0000
  N   N12       1.0  0.57164  0.3125  0.73298  1.0000
  N   N13       1.0  0.2469  0.2066  0.77845  1.0000
  N   N14       1.0  0.32361  0.13756  0.82066  1.0000
  N   N15       1.0  0.35095  0.14123  0.74346  1.0000
  N   N16       1.0  0.44613  0.21138  0.789  1.0000
  N   N17       1.0  0.27004  0.82798  0.7535  1.0000
  N   N18       1.0  0.18382  0.88757  0.80197  1.0000
  N   N19       1.0  0.14892  0.89077  0.72532  1.0000
  N   N20       1.0  0.07176  0.81255  0.76704  1.0000
  N   N21       1.0  0.74677  0.70649  0.72149  1.0000
  N   N22       1.0  0.8235  0.63743  0.67933  1.0000
  N   N23       1.0  0.8509699999999999  0.64123  0.75651  1.0000
  N   N24       1.0  0.94605  0.71133  0.71091  1.0000
  N   N25       1.0  0.23012  0.67205  0.25343  1.0000
  N   N26       1.0  0.31614  0.61258  0.30195  1.0000
  N   N27       1.0  0.35115  0.60919  0.22534  1.0000
  N   N28       1.0  0.42835  0.6875  0.26702  1.0000
  N   N29       1.0  0.75309  0.7934  0.22155  1.0000
  N   N30       1.0  0.67638  0.86244  0.17934  1.0000
  N   N31       1.0  0.64904  0.85876  0.25654  1.0000
  N   N32       1.0  0.55386  0.7886199999999999  0.211  1.0000
  O   O1        1.0  0.4922599999999999  0.32548  0.25616  1.0000
  O   O2        1.0  0.65124  0.28767  0.26233  1.0000
  O   O3        1.0  0.9807399999999998  0.63542  0.24145  1.0000
  O   O4        1.0  0.83002  0.67252  0.21889  1.0000
  O   O5        1.0  0.3710399999999999  0.23788  0.20644999999999994  1.0000
  O   O6        1.0  0.54463  0.21713  0.1958  1.0000
  O   O7        1.0  0.43981  0.10985000000000002  0.91629  1.0000
  O   O8        1.0  0.27437  0.13524  0.92724  1.0000
  O   O9        1.0  0.44989000000000007  0.25917  0.33091  1.0000
  O   O10       1.0  0.59226  0.20893000000000003  0.32519  1.0000
  O   O11       1.0  0.71409  0.33714  0.60032  1.0000
  O   O12       1.0  0.6087  0.40458000000000005  0.59191  1.0000
  O   O13       1.0  0.6368599999999999  0.56883  0.63118  1.0000
  O   O14       1.0  0.60995  0.4865  0.66236  1.0000
  O   O15       1.0  0.85949  0.4415700000000001  0.6331799999999997  1.0000
  O   O16       1.0  0.88285  0.5295  0.65218  1.0000
  O   O17       1.0  0.006129999999999991  0.17476  0.75621  1.0000
  O   O18       1.0  0.8465499999999999  0.21218  0.76229  1.0000
  O   O19       1.0  0.52005  0.86371  0.74129  1.0000
  O   O20       1.0  0.6717800000000002  0.82724  0.71888  1.0000
  O   O21       1.0  0.1271  0.26199  0.70644  1.0000
  O   O22       1.0  0.9537599999999999  0.28286  0.69571  1.0000
  O   O23       1.0  0.06326000000000001  0.39167  0.41663  1.0000
  O   O24       1.0  0.22737  0.36462  0.42727  1.0000
  O   O25       1.0  0.051719999999999995  0.24077000000000004  0.8310499999999997  1.0000
  O   O26       1.0  0.9096599999999999  0.2911  0.82504  1.0000
  O   O27       1.0  0.7878000000000001  0.16444  0.1007  1.0000
  O   O28       1.0  0.88903  0.09544  0.0917  1.0000
  O   O29       1.0  0.86298  0.9310400000000001  0.13109  1.0000
  O   O30       1.0  0.88904  0.013090000000000001  0.16254  1.0000
  O   O31       1.0  0.64023  0.05873  0.13321  1.0000
  O   O32       1.0  0.61886  0.97083  0.15208  1.0000
  O   O33       1.0  0.50772  0.67451  0.74384  1.0000
  O   O34       1.0  0.34874  0.71233  0.73767  1.0000
  O   O35       1.0  0.019250000000000014  0.36457000000000006  0.75855  1.0000
  O   O36       1.0  0.16997  0.32747  0.78111  1.0000
  O   O37       1.0  0.62895  0.7621100000000001  0.79355  1.0000
  O   O38       1.0  0.45536  0.78287  0.8042  1.0000
  O   O39       1.0  0.56018  0.89014  0.08371  1.0000
  O   O40       1.0  0.7256199999999999  0.8647600000000001  0.07276  1.0000
  O   O41       1.0  0.5501  0.74083  0.66909  1.0000
  O   O42       1.0  0.40773  0.79107  0.67481  1.0000
  O   O43       1.0  0.2859  0.6628600000000001  0.39968  1.0000
  O   O44       1.0  0.39129  0.59542  0.40809  1.0000
  O   O45       1.0  0.36313  0.43116  0.36882  1.0000
  O   O46       1.0  0.39004  0.51349  0.33764  1.0000
  O   O47       1.0  0.14049999999999999  0.55843  0.36682  1.0000
  O   O48       1.0  0.11714  0.47049  0.34782  1.0000
  O   O49       1.0  0.99385  0.82523  0.24379  1.0000
  O   O50       1.0  0.15344  0.7878100000000001  0.23771  1.0000
  O   O51       1.0  0.47994  0.13628  0.25871  1.0000
  O   O52       1.0  0.32821000000000006  0.17276  0.28112  1.0000
  O   O53       1.0  0.87288  0.738  0.29356  1.0000
  O   O54       1.0  0.04622  0.71713  0.30429  1.0000
  O   O55       1.0  0.9367199999999999  0.60833  0.58337  1.0000
  O   O56       1.0  0.77262  0.63538  0.57273  1.0000
  O   O57       1.0  0.9482699999999998  0.75923  0.16895  1.0000
  O   O58       1.0  0.09032999999999995  0.7089  0.17496  1.0000
  O   O59       1.0  0.21219  0.83556  0.8993  1.0000
  O   O60       1.0  0.11096000000000004  0.90456  0.9083  1.0000
  O   O61       1.0  0.13701  0.06896  0.86891  1.0000
  O   O62       1.0  0.11095  0.9869  0.83746  1.0000
  O   O63       1.0  0.35975999999999997  0.94126  0.86679  1.0000
  O   O64       1.0  0.38113  0.02917  0.84792  1.0000
