data_image0
_chemical_formula_structural       Ba24H96C192O108
_chemical_formula_sum              "Ba24 H96 C192 O108"
_cell_length_a       13.40392
_cell_length_b       19.57498
_cell_length_c       23.628470000000004
_cell_angle_alpha    106.29901
_cell_angle_beta     90.0
_cell_angle_gamma    90.0

_symmetry_space_group_name_H-M    'P 1'
_symmetry_Int_Tables_number       1

loop_
  _symmetry_equiv_pos_as_xyz
  'x,y,z'

loop_
  _atom_site_type_symbol
  _atom_site_label
  _atom_site_symmetry_multiplicity
  _atom_site_fract_x
  _atom_site_fract_y
  _atom_site_fract_z
  _atom_site_occupancy
  Ba  Ba1       1.0  0.24433000000000005  0.32342999999999994  0.7336999999999999  1.0000
  Ba  Ba2       1.0  0.0705  0.16449  0.81253  1.0000
  Ba  Ba3       1.0  0.5628100000000001  0.3236  0.67161  1.0000
  Ba  Ba4       1.0  0.54717  0.53131  0.62955  1.0000
  Ba  Ba5       1.0  0.32901  0.84759  0.81687  1.0000
  Ba  Ba6       1.0  0.55177  0.022030000000000004  0.6234999999999999  1.0000
  Ba  Ba7       1.0  0.74433  0.67658  0.7663  1.0000
  Ba  Ba8       1.0  0.5705  0.83552  0.68748  1.0000
  Ba  Ba9       1.0  0.06281  0.6764  0.8283999999999998  1.0000
  Ba  Ba10      1.0  0.04717000000000001  0.46870000000000006  0.87046  1.0000
  Ba  Ba11      1.0  0.8290000000000002  0.15242  0.68313  1.0000
  Ba  Ba12      1.0  0.05177000000000001  0.97798  0.8765  1.0000
  Ba  Ba13      1.0  0.7556700000000002  0.67658  0.2663  1.0000
  Ba  Ba14      1.0  0.9295000000000002  0.83552  0.18746999999999997  1.0000
  Ba  Ba15      1.0  0.43719  0.6764  0.32839  1.0000
  Ba  Ba16      1.0  0.45283  0.46869  0.37046  1.0000
  Ba  Ba17      1.0  0.6709900000000002  0.15242  0.18312999999999996  1.0000
  Ba  Ba18      1.0  0.44823000000000013  0.97798  0.37649999999999995  1.0000
  Ba  Ba19      1.0  0.25567  0.32343  0.2337  1.0000
  Ba  Ba20      1.0  0.4295000000000001  0.16449  0.31253  1.0000
  Ba  Ba21      1.0  0.93719  0.3236  0.17161  1.0000
  Ba  Ba22      1.0  0.95283  0.53131  0.12955  1.0000
  Ba  Ba23      1.0  0.17100000000000007  0.84759  0.31687  1.0000
  Ba  Ba24      1.0  0.9482300000000002  0.022019999999999994  0.12349999999999997  1.0000
  H   H1        1.0  0.78155  0.3619100000000001  0.49691  1.0000
  H   H2        1.0  0.8642800000000003  0.24748999999999996  0.43948999999999994  1.0000
  H   H3        1.0  0.7647600000000002  0.13459999999999997  0.41781999999999997  1.0000
  H   H4        1.0  0.29415  0.16821  0.55686  1.0000
  H   H5        1.0  0.18146  0.23867  0.51079  1.0000
  H   H6        1.0  0.25573  0.31628  0.45407  1.0000
  H   H7        1.0  0.4672300000000001  0.45347  0.85142  1.0000
  H   H8        1.0  0.47337  0.55168  0.94613  1.0000
  H   H9        1.0  0.4173  0.67407  0.94565  1.0000
  H   H10       1.0  0.14214000000000002  0.54148  0.64943  1.0000
  H   H11       1.0  0.21751000000000006  0.62957  0.60254  1.0000
  H   H12       1.0  0.3679500000000001  0.6975200000000001  0.64713  1.0000
  H   H13       1.0  0.4345700000000001  0.2497  0.9275299999999999  1.0000
  H   H14       1.0  0.5259700000000002  0.1535999999999999  0.9575399999999998  1.0000
  H   H15       1.0  0.53551  0.03182  0.88633  1.0000
  H   H16       1.0  0.16438  0.9629100000000002  0.68636  1.0000
  H   H17       1.0  0.19753000000000004  0.008669999999999987  0.59875  1.0000
  H   H18       1.0  0.3141300000000001  0.10964000000000003  0.60902  1.0000
  H   H19       1.0  0.7835800000000003  0.62859  0.63929  1.0000
  H   H20       1.0  0.7887100000000001  0.54959  0.64435  1.0000
  H   H21       1.0  0.31664  0.82116  0.65469  1.0000
  H   H22       1.0  0.3290000000000001  0.8973700000000002  0.69594  1.0000
  H   H23       1.0  0.15229  0.8576  0.9147899999999999  1.0000
  H   H24       1.0  0.21441000000000004  0.9152800000000001  0.9600499999999998  1.0000
  H   H25       1.0  0.28155  0.63809  0.00309  1.0000
  H   H26       1.0  0.36428  0.7525100000000002  0.06051  1.0000
  H   H27       1.0  0.26476  0.8654100000000001  0.08218999999999999  1.0000
  H   H28       1.0  0.79415  0.83179  0.94315  1.0000
  H   H29       1.0  0.68146  0.7613300000000001  0.9892099999999999  1.0000
  H   H30       1.0  0.7557300000000002  0.68373  0.04593  1.0000
  H   H31       1.0  0.9672300000000003  0.54654  0.64858  1.0000
  H   H32       1.0  0.9733700000000002  0.44832999999999995  0.5538799999999999  1.0000
  H   H33       1.0  0.9173000000000001  0.32593  0.55435  1.0000
  H   H34       1.0  0.64214  0.45852  0.85057  1.0000
  H   H35       1.0  0.71751  0.37043000000000004  0.89746  1.0000
  H   H36       1.0  0.86796  0.3024899999999999  0.8528699999999999  1.0000
  H   H37       1.0  0.9345700000000001  0.75031  0.57248  1.0000
  H   H38       1.0  0.025970000000000007  0.8464100000000002  0.54247  1.0000
  H   H39       1.0  0.03551  0.96819  0.61367  1.0000
  H   H40       1.0  0.66437  0.0371  0.81365  1.0000
  H   H41       1.0  0.6975300000000002  0.99133  0.9012599999999998  1.0000
  H   H42       1.0  0.8141300000000002  0.8903700000000002  0.8909799999999998  1.0000
  H   H43       1.0  0.28358  0.37142  0.86072  1.0000
  H   H44       1.0  0.28872  0.45042000000000004  0.85565  1.0000
  H   H45       1.0  0.8166400000000003  0.17884  0.8453099999999999  1.0000
  H   H46       1.0  0.8290000000000002  0.10264000000000004  0.80407  1.0000
  H   H47       1.0  0.65229  0.14241000000000004  0.58522  1.0000
  H   H48       1.0  0.7144100000000002  0.08472  0.53996  1.0000
  H   H49       1.0  0.21845000000000003  0.63809  0.50309  1.0000
  H   H50       1.0  0.13572000000000004  0.7525100000000002  0.56052  1.0000
  H   H51       1.0  0.23524000000000006  0.8654100000000001  0.58219  1.0000
  H   H52       1.0  0.7058500000000002  0.83179  0.44313999999999987  1.0000
  H   H53       1.0  0.8185400000000003  0.7613300000000001  0.4892099999999999  1.0000
  H   H54       1.0  0.7442700000000002  0.68373  0.54593  1.0000
  H   H55       1.0  0.53277  0.54653  0.14858  1.0000
  H   H56       1.0  0.5266300000000002  0.44833000000000006  0.05388  1.0000
  H   H57       1.0  0.5827000000000001  0.32593  0.05435  1.0000
  H   H58       1.0  0.8578600000000002  0.45852  0.35057  1.0000
  H   H59       1.0  0.7824900000000002  0.3704300000000001  0.3974599999999999  1.0000
  H   H60       1.0  0.63205  0.30249  0.35287  1.0000
  H   H61       1.0  0.56543  0.75031  0.07248  1.0000
  H   H62       1.0  0.47403  0.8464100000000002  0.04245999999999999  1.0000
  H   H63       1.0  0.46449000000000007  0.96819  0.11367  1.0000
  H   H64       1.0  0.8356300000000002  0.03710000000000001  0.31365  1.0000
  H   H65       1.0  0.80247  0.99133  0.40125  1.0000
  H   H66       1.0  0.68587  0.89036  0.3909799999999999  1.0000
  H   H67       1.0  0.21642000000000006  0.3714199999999999  0.36071  1.0000
  H   H68       1.0  0.21129  0.45041000000000003  0.35565  1.0000
  H   H69       1.0  0.6833600000000002  0.17884000000000003  0.34531  1.0000
  H   H70       1.0  0.6710000000000003  0.10264  0.30407  1.0000
  H   H71       1.0  0.8477100000000002  0.14241  0.08521  1.0000
  H   H72       1.0  0.7855900000000002  0.08472  0.03996  1.0000
  H   H73       1.0  0.7184500000000003  0.36191000000000006  0.9969099999999999  1.0000
  H   H74       1.0  0.6357200000000002  0.24749000000000002  0.93949  1.0000
  H   H75       1.0  0.73524  0.13459999999999991  0.9178199999999999  1.0000
  H   H76       1.0  0.20585000000000006  0.16821  0.05686  1.0000
  H   H77       1.0  0.3185400000000001  0.23867  0.01079  1.0000
  H   H78       1.0  0.24427000000000004  0.31627999999999995  0.9540699999999999  1.0000
  H   H79       1.0  0.03277  0.45347  0.35141999999999995  1.0000
  H   H80       1.0  0.02663  0.55168  0.44611999999999996  1.0000
  H   H81       1.0  0.0827  0.67407  0.44565  1.0000
  H   H82       1.0  0.3578600000000001  0.5414800000000002  0.14943  1.0000
  H   H83       1.0  0.28249  0.6295699999999999  0.10254  1.0000
  H   H84       1.0  0.13205000000000003  0.6975100000000001  0.14713  1.0000
  H   H85       1.0  0.06543  0.2497  0.42752999999999997  1.0000
  H   H86       1.0  0.9740300000000002  0.15360000000000001  0.45754  1.0000
  H   H87       1.0  0.9644900000000002  0.031819999999999994  0.38633  1.0000
  H   H88       1.0  0.3356300000000001  0.9629100000000002  0.18634999999999996  1.0000
  H   H89       1.0  0.30247000000000007  0.00867  0.09875  1.0000
  H   H90       1.0  0.18587000000000004  0.10964000000000003  0.10901999999999999  1.0000
  H   H91       1.0  0.71642  0.62858  0.13929  1.0000
  H   H92       1.0  0.71128  0.54959  0.14435  1.0000
  H   H93       1.0  0.18336000000000005  0.82116  0.15469  1.0000
  H   H94       1.0  0.17100000000000007  0.8973700000000002  0.19592999999999994  1.0000
  H   H95       1.0  0.34771  0.8576  0.41478999999999994  1.0000
  H   H96       1.0  0.2855900000000001  0.9152800000000001  0.46004999999999996  1.0000
  C   C1        1.0  0.58162  0.25166000000000005  0.48496  1.0000
  C   C2        1.0  0.64123  0.31354  0.50215  1.0000
  C   C3        1.0  0.74106  0.31178  0.48392999999999997  1.0000
  C   C4        1.0  0.7864400000000001  0.24848000000000003  0.4527599999999999  1.0000
  C   C5        1.0  0.73065  0.18578000000000003  0.43956999999999996  1.0000
  C   C6        1.0  0.6286600000000001  0.18755999999999998  0.4534399999999999  1.0000
  C   C7        1.0  0.4719100000000001  0.2519700000000001  0.49715  1.0000
  C   C8        1.0  0.4289300000000001  0.20852000000000004  0.52934  1.0000
  C   C9        1.0  0.3249500000000001  0.20364  0.53328  1.0000
  C   C10       1.0  0.26204000000000005  0.24280000000000004  0.5073  1.0000
  C   C11       1.0  0.30353  0.2863  0.47577  1.0000
  C   C12       1.0  0.4072900000000001  0.29022  0.47019  1.0000
  C   C13       1.0  0.6079000000000002  0.38262  0.5445  1.0000
  C   C14       1.0  0.57178  0.11908000000000003  0.43172  1.0000
  C   C15       1.0  0.49209000000000014  0.16653  0.55986  1.0000
  C   C16       1.0  0.44658000000000003  0.33316000000000007  0.43131999999999987  1.0000
  C   C17       1.0  0.37569  0.5881  0.8006799999999998  1.0000
  C   C18       1.0  0.4113  0.5199  0.80051  1.0000
  C   C19       1.0  0.4433100000000001  0.5071999999999999  0.8532699999999999  1.0000
  C   C20       1.0  0.4466  0.56193  0.90581  1.0000
  C   C21       1.0  0.41528  0.6297300000000001  0.9058199999999998  1.0000
  C   C22       1.0  0.37662  0.6424300000000001  0.8545799999999999  1.0000
  C   C23       1.0  0.3336300000000001  0.60146  0.74621  1.0000
  C   C24       1.0  0.24717000000000006  0.56409  0.7209099999999999  1.0000
  C   C25       1.0  0.2063  0.57348  0.66911  1.0000
  C   C26       1.0  0.24827000000000005  0.62249  0.64309  1.0000
  C   C27       1.0  0.3320900000000001  0.66152  0.66854  1.0000
  C   C28       1.0  0.3761100000000001  0.65069  0.71935  1.0000
  C   C29       1.0  0.42092  0.45904  0.74528  1.0000
  C   C30       1.0  0.3361300000000001  0.71567  0.8601699999999999  1.0000
  C   C31       1.0  0.19672  0.5139400000000001  0.7500399999999999  1.0000
  C   C32       1.0  0.4733600000000001  0.68856  0.7401599999999999  1.0000
  C   C33       1.0  0.39521  0.11320000000000001  0.80346  1.0000
  C   C34       1.0  0.38907000000000014  0.18162999999999999  0.8438599999999999  1.0000
  C   C35       1.0  0.4393800000000001  0.19596000000000008  0.89808  1.0000
  C   C36       1.0  0.4905700000000001  0.14254999999999998  0.91445  1.0000
  C   C37       1.0  0.4961  0.07470999999999997  0.87495  1.0000
  C   C38       1.0  0.4525000000000001  0.060149999999999974  0.81889  1.0000
  C   C39       1.0  0.3367200000000001  0.09140999999999998  0.7477  1.0000
  C   C40       1.0  0.26494000000000006  0.03709999999999995  0.7427099999999999  1.0000
  C   C41       1.0  0.21656  0.006269999999999962  0.68898  1.0000
  C   C42       1.0  0.23355  0.03264000000000001  0.6408899999999998  1.0000
  C   C43       1.0  0.29854000000000014  0.08988  0.64671  1.0000
  C   C44       1.0  0.3522200000000001  0.11855000000000002  0.69903  1.0000
  C   C45       1.0  0.3264700000000001  0.24125999999999997  0.83375  1.0000
  C   C46       1.0  0.47358000000000006  0.9878400000000002  0.7766399999999999  1.0000
  C   C47       1.0  0.22952000000000006  0.015399999999999959  0.7956599999999999  1.0000
  C   C48       1.0  0.43026000000000003  0.17468  0.69873  1.0000
  C   C49       1.0  0.08162  0.74834  0.01505  1.0000
  C   C50       1.0  0.14123000000000002  0.68647  0.99785  1.0000
  C   C51       1.0  0.24106  0.6882300000000001  0.01607  1.0000
  C   C52       1.0  0.2864400000000001  0.75152  0.04724  1.0000
  C   C53       1.0  0.23065  0.81422  0.06043999999999999  1.0000
  C   C54       1.0  0.12866  0.81244  0.04655999999999999  1.0000
  C   C55       1.0  0.9719100000000003  0.7480400000000003  0.00285  1.0000
  C   C56       1.0  0.92893  0.7914800000000001  0.9706699999999999  1.0000
  C   C57       1.0  0.8249500000000002  0.7963600000000002  0.9667299999999999  1.0000
  C   C58       1.0  0.7620400000000003  0.75721  0.99271  1.0000
  C   C59       1.0  0.8035300000000002  0.71371  0.024229999999999998  1.0000
  C   C60       1.0  0.90729  0.70979  0.02981  1.0000
  C   C61       1.0  0.1079  0.6173800000000003  0.9555  1.0000
  C   C62       1.0  0.07178000000000001  0.8809300000000001  0.06828  1.0000
  C   C63       1.0  0.9920900000000002  0.8334800000000001  0.9401399999999999  1.0000
  C   C64       1.0  0.9465800000000002  0.66685  0.06867999999999999  1.0000
  C   C65       1.0  0.87569  0.41190000000000004  0.69933  1.0000
  C   C66       1.0  0.9113000000000001  0.48011  0.6994899999999998  1.0000
  C   C67       1.0  0.9433100000000002  0.49280000000000007  0.64674  1.0000
  C   C68       1.0  0.9466  0.43807000000000007  0.59419  1.0000
  C   C69       1.0  0.91528  0.37028  0.59419  1.0000
  C   C70       1.0  0.8766200000000002  0.35757000000000005  0.64543  1.0000
  C   C71       1.0  0.8336300000000002  0.39855  0.7538  1.0000
  C   C72       1.0  0.7471700000000002  0.43592000000000003  0.7790999999999998  1.0000
  C   C73       1.0  0.7063000000000001  0.42653  0.83089  1.0000
  C   C74       1.0  0.74828  0.37751000000000007  0.8569199999999998  1.0000
  C   C75       1.0  0.8320900000000002  0.33849  0.8314699999999999  1.0000
  C   C76       1.0  0.8761  0.34931  0.78065  1.0000
  C   C77       1.0  0.92092  0.54097  0.75473  1.0000
  C   C78       1.0  0.8361300000000003  0.28434  0.63984  1.0000
  C   C79       1.0  0.6967200000000002  0.48606000000000005  0.74997  1.0000
  C   C80       1.0  0.9733600000000002  0.31145000000000006  0.7598499999999999  1.0000
  C   C81       1.0  0.8952100000000002  0.8868000000000003  0.69655  1.0000
  C   C82       1.0  0.8890700000000001  0.81837  0.65615  1.0000
  C   C83       1.0  0.93938  0.80404  0.60192  1.0000
  C   C84       1.0  0.9905700000000001  0.8574600000000001  0.58555  1.0000
  C   C85       1.0  0.9961000000000002  0.92529  0.62505  1.0000
  C   C86       1.0  0.9525000000000002  0.9398500000000001  0.6811199999999998  1.0000
  C   C87       1.0  0.8367200000000002  0.9086  0.75231  1.0000
  C   C88       1.0  0.7649400000000002  0.9629100000000002  0.7572999999999999  1.0000
  C   C89       1.0  0.71656  0.9937300000000001  0.81102  1.0000
  C   C90       1.0  0.7335500000000003  0.9673700000000001  0.8591099999999999  1.0000
  C   C91       1.0  0.7985400000000002  0.91013  0.8533  1.0000
  C   C92       1.0  0.8522200000000002  0.8814500000000001  0.8009799999999999  1.0000
  C   C93       1.0  0.82647  0.7587400000000001  0.66625  1.0000
  C   C94       1.0  0.9735800000000002  0.01217000000000002  0.72337  1.0000
  C   C95       1.0  0.7295200000000001  0.98461  0.70435  1.0000
  C   C96       1.0  0.9302600000000002  0.8253200000000002  0.8012799999999999  1.0000
  C   C97       1.0  0.4183800000000001  0.74835  0.51505  1.0000
  C   C98       1.0  0.3587700000000001  0.6864700000000004  0.49785  1.0000
  C   C99       1.0  0.25894000000000006  0.6882300000000001  0.5160699999999999  1.0000
  C   C100      1.0  0.21356  0.75152  0.54725  1.0000
  C   C101      1.0  0.26935  0.81422  0.56044  1.0000
  C   C102      1.0  0.3713400000000001  0.81245  0.54657  1.0000
  C   C103      1.0  0.52809  0.74804  0.50285  1.0000
  C   C104      1.0  0.57107  0.7914800000000001  0.47066999999999987  1.0000
  C   C105      1.0  0.67505  0.7963600000000002  0.4667299999999999  1.0000
  C   C106      1.0  0.73796  0.75721  0.4926999999999999  1.0000
  C   C107      1.0  0.69647  0.7137099999999998  0.5242399999999999  1.0000
  C   C108      1.0  0.59271  0.70979  0.52981  1.0000
  C   C109      1.0  0.3921  0.61738  0.45549999999999996  1.0000
  C   C110      1.0  0.4282200000000001  0.8809300000000001  0.56829  1.0000
  C   C111      1.0  0.50791  0.8334800000000001  0.44014  1.0000
  C   C112      1.0  0.55342  0.66685  0.56868  1.0000
  C   C113      1.0  0.6243100000000003  0.41190000000000004  0.19933  1.0000
  C   C114      1.0  0.5887000000000001  0.48011  0.19949  1.0000
  C   C115      1.0  0.55669  0.49280000000000007  0.14673  1.0000
  C   C116      1.0  0.5534000000000001  0.43807000000000007  0.09418999999999998  1.0000
  C   C117      1.0  0.5847200000000001  0.37028  0.09417999999999999  1.0000
  C   C118      1.0  0.62338  0.35757000000000005  0.14543  1.0000
  C   C119      1.0  0.66637  0.3985500000000002  0.2538  1.0000
  C   C120      1.0  0.75283  0.43592000000000003  0.27909  1.0000
  C   C121      1.0  0.7937  0.42653  0.33089  1.0000
  C   C122      1.0  0.7517300000000002  0.37751000000000007  0.35691999999999996  1.0000
  C   C123      1.0  0.6679100000000002  0.33849  0.33147  1.0000
  C   C124      1.0  0.6239000000000002  0.34931  0.28065  1.0000
  C   C125      1.0  0.57908  0.54097  0.25472  1.0000
  C   C126      1.0  0.66387  0.2843300000000001  0.13983  1.0000
  C   C127      1.0  0.80328  0.48606000000000005  0.24997  1.0000
  C   C128      1.0  0.52664  0.3114500000000001  0.25984  1.0000
  C   C129      1.0  0.60479  0.8868000000000003  0.19654  1.0000
  C   C130      1.0  0.61093  0.81837  0.15614  1.0000
  C   C131      1.0  0.56062  0.80404  0.10192  1.0000
  C   C132      1.0  0.50944  0.8574600000000001  0.08555  1.0000
  C   C133      1.0  0.5039000000000001  0.92529  0.12505  1.0000
  C   C134      1.0  0.5475  0.9398500000000001  0.18110999999999997  1.0000
  C   C135      1.0  0.66328  0.9085900000000001  0.25231  1.0000
  C   C136      1.0  0.73506  0.9629100000000002  0.25729  1.0000
  C   C137      1.0  0.7834400000000001  0.9937300000000003  0.31102  1.0000
  C   C138      1.0  0.7664500000000002  0.9673600000000001  0.35911  1.0000
  C   C139      1.0  0.70146  0.91013  0.35329  1.0000
  C   C140      1.0  0.64778  0.8814500000000001  0.30098  1.0000
  C   C141      1.0  0.6735300000000002  0.75874  0.16625  1.0000
  C   C142      1.0  0.52642  0.012170000000000007  0.22337  1.0000
  C   C143      1.0  0.77048  0.98461  0.20434  1.0000
  C   C144      1.0  0.56974  0.8253200000000002  0.30128  1.0000
  C   C145      1.0  0.91838  0.2516600000000001  0.9849599999999998  1.0000
  C   C146      1.0  0.8587700000000003  0.31354  0.00215  1.0000
  C   C147      1.0  0.7589400000000002  0.31178  0.98393  1.0000
  C   C148      1.0  0.71356  0.24848000000000006  0.95276  1.0000
  C   C149      1.0  0.7693500000000002  0.18578000000000003  0.9395699999999999  1.0000
  C   C150      1.0  0.87134  0.18756000000000006  0.95344  1.0000
  C   C151      1.0  0.02809  0.2519700000000001  0.99715  1.0000
  C   C152      1.0  0.07107000000000001  0.20852000000000004  0.029329999999999995  1.0000
  C   C153      1.0  0.17505  0.20364  0.03327  1.0000
  C   C154      1.0  0.23796  0.24280000000000004  0.0073  1.0000
  C   C155      1.0  0.19647  0.28629999999999994  0.9757699999999999  1.0000
  C   C156      1.0  0.09272000000000002  0.29022  0.9701899999999999  1.0000
  C   C157      1.0  0.8921  0.38262  0.04449999999999999  1.0000
  C   C158      1.0  0.9282200000000003  0.11908000000000003  0.93172  1.0000
  C   C159      1.0  0.00791  0.16653  0.05985999999999999  1.0000
  C   C160      1.0  0.053420000000000016  0.3331600000000001  0.93133  1.0000
  C   C161      1.0  0.12431000000000002  0.5881  0.30066999999999994  1.0000
  C   C162      1.0  0.0887  0.5199  0.30051  1.0000
  C   C163      1.0  0.05669000000000001  0.5072  0.35327  1.0000
  C   C164      1.0  0.05340000000000002  0.56193  0.4058099999999999  1.0000
  C   C165      1.0  0.08473  0.6297300000000001  0.40582  1.0000
  C   C166      1.0  0.12338000000000003  0.6424300000000002  0.35456999999999994  1.0000
  C   C167      1.0  0.16637000000000002  0.60146  0.24621  1.0000
  C   C168      1.0  0.25283  0.56409  0.22090999999999994  1.0000
  C   C169      1.0  0.29370000000000007  0.57348  0.16911  1.0000
  C   C170      1.0  0.25173  0.62249  0.14309  1.0000
  C   C171      1.0  0.16791  0.66152  0.16854  1.0000
  C   C172      1.0  0.1239  0.65069  0.21934999999999996  1.0000
  C   C173      1.0  0.07908  0.45904  0.24528  1.0000
  C   C174      1.0  0.16387000000000002  0.71567  0.36017  1.0000
  C   C175      1.0  0.30328  0.5139400000000001  0.25003  1.0000
  C   C176      1.0  0.026640000000000004  0.6885600000000001  0.24016  1.0000
  C   C177      1.0  0.10479000000000002  0.11319999999999998  0.30345999999999995  1.0000
  C   C178      1.0  0.11093000000000003  0.1816300000000001  0.34386  1.0000
  C   C179      1.0  0.06062  0.19595999999999997  0.39808  1.0000
  C   C180      1.0  0.009430000000000001  0.14255  0.41445  1.0000
  C   C181      1.0  0.0039000000000000007  0.07471000000000003  0.37495  1.0000
  C   C182      1.0  0.047500000000000014  0.06015000000000002  0.31889  1.0000
  C   C183      1.0  0.16328000000000004  0.09140999999999999  0.24769999999999998  1.0000
  C   C184      1.0  0.23506  0.037100000000000015  0.24271  1.0000
  C   C185      1.0  0.2834400000000001  0.006270000000000007  0.18898  1.0000
  C   C186      1.0  0.26645  0.032639999999999995  0.14089  1.0000
  C   C187      1.0  0.20146  0.08988  0.14671  1.0000
  C   C188      1.0  0.14778  0.11855000000000002  0.19902  1.0000
  C   C189      1.0  0.17353000000000005  0.24126000000000006  0.33375  1.0000
  C   C190      1.0  0.026420000000000006  0.9878400000000002  0.27663  1.0000
  C   C191      1.0  0.27048  0.015400000000000016  0.29566  1.0000
  C   C192      1.0  0.06974000000000001  0.17468  0.19872  1.0000
  O   O1        1.0  0.5407900000000001  0.3801400000000001  0.58304  1.0000
  O   O2        1.0  0.65233  0.43887000000000004  0.54292  1.0000
  O   O3        1.0  0.60687  0.06311999999999997  0.44064999999999993  1.0000
  O   O4        1.0  0.49048000000000014  0.12087999999999999  0.4031499999999999  1.0000
  O   O5        1.0  0.46461000000000013  0.10483999999999999  0.55972  1.0000
  O   O6        1.0  0.57202  0.19764  0.58544  1.0000
  O   O7        1.0  0.4647900000000001  0.39817  0.4543399999999999  1.0000
  O   O8        1.0  0.45553  0.30032  0.3762999999999999  1.0000
  O   O9        1.0  0.4343400000000001  0.47101000000000004  0.69627  1.0000
  O   O10       1.0  0.4191100000000001  0.39541999999999994  0.7515899999999999  1.0000
  O   O11       1.0  0.3843  0.7684200000000001  0.8913  1.0000
  O   O12       1.0  0.25595000000000007  0.72145  0.8313799999999999  1.0000
  O   O13       1.0  0.15643000000000007  0.5420800000000001  0.8002199999999999  1.0000
  O   O14       1.0  0.19727000000000006  0.44836  0.72276  1.0000
  O   O15       1.0  0.5499  0.6496900000000001  0.73742  1.0000
  O   O16       1.0  0.47451  0.75684  0.75702  1.0000
  O   O17       1.0  0.24962000000000004  0.22586999999999993  0.7998299999999999  1.0000
  O   O18       1.0  0.35346  0.30423  0.8602099999999999  1.0000
  O   O19       1.0  0.47496  0.9337800000000003  0.79734  1.0000
  O   O20       1.0  0.4945000000000001  0.98315  0.72319  1.0000
  O   O21       1.0  0.22224000000000005  0.94903  0.7915299999999998  1.0000
  O   O22       1.0  0.20084000000000005  0.0644  0.8403099999999999  1.0000
  O   O23       1.0  0.52077  0.15855999999999998  0.7028399999999999  1.0000
  O   O24       1.0  0.3993800000000001  0.23363999999999993  0.6913099999999999  1.0000
  O   O25       1.0  0.74247  0.58936  0.64866  1.0000
  O   O26       1.0  0.3481300000000001  0.84793  0.69163  1.0000
  O   O27       1.0  0.20194000000000006  0.8992500000000001  0.91766  1.0000
  O   O28       1.0  0.04079  0.61987  0.91697  1.0000
  O   O29       1.0  0.15233  0.56114  0.95708  1.0000
  O   O30       1.0  0.10688000000000003  0.9368900000000001  0.05935  1.0000
  O   O31       1.0  0.9904800000000001  0.8791300000000002  0.09685  1.0000
  O   O32       1.0  0.96461  0.8951700000000001  0.9402799999999998  1.0000
  O   O33       1.0  0.07202  0.8023599999999999  0.9145599999999999  1.0000
  O   O34       1.0  0.9647800000000002  0.60183  0.04566  1.0000
  O   O35       1.0  0.95552  0.69968  0.1237  1.0000
  O   O36       1.0  0.9343400000000001  0.5290000000000001  0.80373  1.0000
  O   O37       1.0  0.91911  0.60458  0.74841  1.0000
  O   O38       1.0  0.8843000000000001  0.23159000000000002  0.6087  1.0000
  O   O39       1.0  0.7559400000000002  0.27855  0.66863  1.0000
  O   O40       1.0  0.6564300000000001  0.45793000000000006  0.69979  1.0000
  O   O41       1.0  0.6972700000000002  0.55164  0.7772499999999999  1.0000
  O   O42       1.0  0.049900000000000014  0.35031  0.76259  1.0000
  O   O43       1.0  0.97451  0.24316000000000002  0.7429799999999999  1.0000
  O   O44       1.0  0.7496200000000002  0.77414  0.7001799999999999  1.0000
  O   O45       1.0  0.8534600000000002  0.6957800000000001  0.6398  1.0000
  O   O46       1.0  0.9749600000000003  0.06623  0.70267  1.0000
  O   O47       1.0  0.9945000000000003  0.016859999999999983  0.7768199999999998  1.0000
  O   O48       1.0  0.72224  0.05097999999999997  0.7084799999999999  1.0000
  O   O49       1.0  0.70084  0.93561  0.6596999999999998  1.0000
  O   O50       1.0  0.02077  0.8414499999999999  0.7971599999999999  1.0000
  O   O51       1.0  0.89938  0.7663700000000002  0.80869  1.0000
  O   O52       1.0  0.24247  0.41064000000000006  0.85135  1.0000
  O   O53       1.0  0.8481300000000003  0.15208000000000005  0.80838  1.0000
  O   O54       1.0  0.7019400000000002  0.10074999999999998  0.5823399999999999  1.0000
  O   O55       1.0  0.45921  0.61987  0.4169699999999999  1.0000
  O   O56       1.0  0.34767000000000003  0.56114  0.45708  1.0000
  O   O57       1.0  0.3931300000000001  0.9368900000000001  0.55935  1.0000
  O   O58       1.0  0.50952  0.8791300000000002  0.59686  1.0000
  O   O59       1.0  0.53539  0.8951700000000001  0.4402799999999999  1.0000
  O   O60       1.0  0.42798000000000014  0.80236  0.41456  1.0000
  O   O61       1.0  0.53521  0.60184  0.54566  1.0000
  O   O62       1.0  0.5444700000000001  0.69968  0.62371  1.0000
  O   O63       1.0  0.5656600000000003  0.5290000000000001  0.30373  1.0000
  O   O64       1.0  0.58089  0.60458  0.24841  1.0000
  O   O65       1.0  0.6157  0.23159000000000002  0.1087  1.0000
  O   O66       1.0  0.74405  0.27855  0.16863  1.0000
  O   O67       1.0  0.84357  0.45793000000000006  0.19979  1.0000
  O   O68       1.0  0.8027300000000003  0.55164  0.27724999999999994  1.0000
  O   O69       1.0  0.4501  0.35031  0.26259  1.0000
  O   O70       1.0  0.5254900000000001  0.24316000000000002  0.24298  1.0000
  O   O71       1.0  0.75038  0.77413  0.20017999999999997  1.0000
  O   O72       1.0  0.6465400000000002  0.6957800000000001  0.1398  1.0000
  O   O73       1.0  0.52504  0.06623  0.20267  1.0000
  O   O74       1.0  0.5055  0.016859999999999983  0.27681999999999995  1.0000
  O   O75       1.0  0.7777600000000002  0.05097999999999999  0.20848  1.0000
  O   O76       1.0  0.7991600000000001  0.93561  0.1597  1.0000
  O   O77       1.0  0.4792300000000001  0.8414500000000001  0.29716  1.0000
  O   O78       1.0  0.6006200000000002  0.7663700000000001  0.30869  1.0000
  O   O79       1.0  0.25753000000000004  0.41064000000000006  0.35135  1.0000
  O   O80       1.0  0.65187  0.15208  0.30837  1.0000
  O   O81       1.0  0.79806  0.10075  0.08234  1.0000
  O   O82       1.0  0.9592100000000001  0.3801400000000001  0.08304  1.0000
  O   O83       1.0  0.8476700000000003  0.43887000000000004  0.04292  1.0000
  O   O84       1.0  0.8931300000000002  0.06312000000000001  0.94065  1.0000
  O   O85       1.0  0.00952  0.12087999999999993  0.9031499999999998  1.0000
  O   O86       1.0  0.035390000000000005  0.10484  0.05971999999999999  1.0000
  O   O87       1.0  0.9279800000000001  0.19764  0.08544  1.0000
  O   O88       1.0  0.03522000000000001  0.3981700000000001  0.9543399999999999  1.0000
  O   O89       1.0  0.04448000000000001  0.30032000000000003  0.8762999999999999  1.0000
  O   O90       1.0  0.06566  0.47101000000000004  0.19626999999999994  1.0000
  O   O91       1.0  0.08089000000000002  0.39541999999999994  0.2515899999999999  1.0000
  O   O92       1.0  0.1157  0.76842  0.3913  1.0000
  O   O93       1.0  0.24406  0.72145  0.33137  1.0000
  O   O94       1.0  0.34357  0.54207  0.30022  1.0000
  O   O95       1.0  0.30273  0.44836  0.22275  1.0000
  O   O96       1.0  0.9501  0.6496900000000001  0.23741999999999996  1.0000
  O   O97       1.0  0.025490000000000006  0.75684  0.25702  1.0000
  O   O98       1.0  0.25038  0.22587  0.29982  1.0000
  O   O99       1.0  0.14654  0.30423  0.3602  1.0000
  O   O100      1.0  0.02504  0.9337800000000003  0.29734  1.0000
  O   O101      1.0  0.0055  0.98315  0.22318  1.0000
  O   O102      1.0  0.2777600000000001  0.94903  0.29152  1.0000
  O   O103      1.0  0.29916  0.0644  0.3403  1.0000
  O   O104      1.0  0.9792300000000003  0.15856  0.20283999999999994  1.0000
  O   O105      1.0  0.10062000000000003  0.23364  0.19131  1.0000
  O   O106      1.0  0.7575300000000001  0.58936  0.14866  1.0000
  O   O107      1.0  0.15188000000000001  0.84793  0.19163  1.0000
  O   O108      1.0  0.29806  0.8992500000000001  0.41766  1.0000
