data_image0
_chemical_formula_structural       Zn8H136C224N24O16
_chemical_formula_sum              "Zn8 H136 C224 N24 O16"
_cell_length_a       23.7994
_cell_length_b       23.79963
_cell_length_c       31.15031
_cell_angle_alpha    110.89325
_cell_angle_beta     110.86312
_cell_angle_gamma    94.96407

_symmetry_space_group_name_H-M    'P 1'
_symmetry_Int_Tables_number       1

loop_
  _symmetry_equiv_pos_as_xyz
  'x,y,z'

loop_
  _atom_site_type_symbol
  _atom_site_label
  _atom_site_symmetry_multiplicity
  _atom_site_fract_x
  _atom_site_fract_y
  _atom_site_fract_z
  _atom_site_occupancy
  Zn  Zn1       1.0  0.3667099999999998  0.11670999999999988  0.7338099999999997  1.0000
  Zn  Zn2       1.0  0.8833000000000001  0.6332999999999998  0.76619  1.0000
  Zn  Zn3       1.0  0.63329  0.8833  0.26619  1.0000
  Zn  Zn4       1.0  0.1167  0.3667099999999999  0.23381  1.0000
  Zn  Zn5       1.0  0.9023299999999999  0.15197999999999992  0.80265  1.0000
  Zn  Zn6       1.0  0.84807  0.09763000000000008  0.69735  1.0000
  Zn  Zn7       1.0  0.09767000000000002  0.84803  0.19736  1.0000
  Zn  Zn8       1.0  0.15193  0.90238  0.30265  1.0000
  H   H1        1.0  0.46321999999999985  0.92711  0.7439599999999997  1.0000
  H   H2        1.0  0.5548199999999998  0.00898999999999999  0.7499299999999999  1.0000
  H   H3        1.0  0.5787599999999999  0.23438999999999996  0.75051  1.0000
  H   H4        1.0  0.5038499999999999  0.3129999999999998  0.7442699999999998  1.0000
  H   H5        1.0  0.5479999999999999  0.07998999999999995  0.6667999999999998  1.0000
  H   H6        1.0  0.65338  0.07907  0.66718  1.0000
  H   H7        1.0  0.73552  0.16006  0.82898  1.0000
  H   H8        1.0  0.6301799999999996  0.16060999999999986  0.8290699999999998  1.0000
  H   H9        1.0  0.3892399999999999  0.93568  0.81632  1.0000
  H   H10       1.0  0.37691000000000013  0.82719  0.80868  1.0000
  H   H11       1.0  0.32768  0.73879  0.72374  1.0000
  H   H12       1.0  0.28968  0.7594899999999999  0.64657  1.0000
  H   H13       1.0  0.30163999999999996  0.86838  0.6549099999999999  1.0000
  H   H14       1.0  0.2693400000000001  0.90821  0.38467  1.0000
  H   H15       1.0  0.31949999999999995  0.95264  0.47822999999999993  1.0000
  H   H16       1.0  0.20107  0.07144999999999994  0.55319  1.0000
  H   H17       1.0  0.25103  0.11547999999999997  0.64662  1.0000
  H   H18       1.0  0.28059999999999996  0.31681  0.7436999999999998  1.0000
  H   H19       1.0  0.19535  0.24126999999999993  0.75009  1.0000
  H   H20       1.0  0.17195000000000005  0.01651000000000002  0.75069  1.0000
  H   H21       1.0  0.24042999999999992  0.9314799999999998  0.7445599999999999  1.0000
  H   H22       1.0  0.11736999999999986  0.08719999999999987  0.6669499999999998  1.0000
  H   H23       1.0  0.012450000000000008  0.08812  0.66752  1.0000
  H   H24       1.0  0.09565000000000003  0.1691  0.82935  1.0000
  H   H25       1.0  0.20103  0.16856999999999994  0.8292  1.0000
  H   H26       1.0  0.42691  0.38188  0.81629  1.0000
  H   H27       1.0  0.43197  0.48282  0.80908  1.0000
  H   H28       1.0  0.39642999999999995  0.4849399999999998  0.7243499999999999  1.0000
  H   H29       1.0  0.35703  0.38565  0.64704  1.0000
  H   H30       1.0  0.3531000000000001  0.28499999999999986  0.65495  1.0000
  H   H31       1.0  0.11573999999999994  0.97695  0.3839699999999999  1.0000
  H   H32       1.0  0.15840999999999994  0.02497999999999993  0.4774699999999999  1.0000
  H   H33       1.0  0.35249  0.98216  0.55375  1.0000
  H   H34       1.0  0.39532  0.030830000000000014  0.64715  1.0000
  H   H35       1.0  0.07290999999999986  0.5367899999999998  0.7560499999999998  1.0000
  H   H36       1.0  0.99104  0.44518999999999986  0.7500799999999997  1.0000
  H   H37       1.0  0.7656199999999997  0.4212499999999999  0.7495099999999998  1.0000
  H   H38       1.0  0.6869999999999999  0.49614999999999987  0.7557199999999998  1.0000
  H   H39       1.0  0.9200199999999998  0.45205999999999996  0.8332  1.0000
  H   H40       1.0  0.92094  0.34668  0.83283  1.0000
  H   H41       1.0  0.83995  0.26443  0.67103  1.0000
  H   H42       1.0  0.83939  0.36978  0.67093  1.0000
  H   H43       1.0  0.06436000000000004  0.61076  0.68367  1.0000
  H   H44       1.0  0.17284000000000005  0.6230900000000003  0.69131  1.0000
  H   H45       1.0  0.2611999999999999  0.6723099999999997  0.7762399999999998  1.0000
  H   H46       1.0  0.24048000000000003  0.71032  0.8534299999999999  1.0000
  H   H47       1.0  0.13158999999999993  0.6983599999999998  0.8450999999999997  1.0000
  H   H48       1.0  0.09177000000000003  0.73061  0.11526  1.0000
  H   H49       1.0  0.04731  0.68047  0.021689999999999997  1.0000
  H   H50       1.0  0.92859  0.7989499999999998  0.9468799999999998  1.0000
  H   H51       1.0  0.88455  0.749  0.85344  1.0000
  H   H52       1.0  0.6831899999999996  0.71939  0.7562899999999998  1.0000
  H   H53       1.0  0.7587299999999999  0.80465  0.7499  1.0000
  H   H54       1.0  0.9835  0.82804  0.7493  1.0000
  H   H55       1.0  0.06852999999999988  0.7595700000000001  0.7554599999999999  1.0000
  H   H56       1.0  0.9128  0.8826800000000001  0.8330399999999999  1.0000
  H   H57       1.0  0.9118700000000001  0.9876  0.83248  1.0000
  H   H58       1.0  0.8308999999999999  0.90429  0.67064  1.0000
  H   H59       1.0  0.83143  0.7989199999999999  0.6707999999999997  1.0000
  H   H60       1.0  0.61815  0.5731  0.6837099999999999  1.0000
  H   H61       1.0  0.51721  0.5680399999999999  0.6909299999999999  1.0000
  H   H62       1.0  0.51506  0.60358  0.77567  1.0000
  H   H63       1.0  0.61431  0.64297  0.85297  1.0000
  H   H64       1.0  0.7149599999999997  0.6469  0.84505  1.0000
  H   H65       1.0  0.023099999999999992  0.88428  0.11611  1.0000
  H   H66       1.0  0.9750500000000001  0.84164  0.02261  1.0000
  H   H67       1.0  0.017810000000000027  0.64746  0.94619  1.0000
  H   H68       1.0  0.96915  0.60465  0.8528  1.0000
  H   H69       1.0  0.5367800000000001  0.0729  0.25605  1.0000
  H   H70       1.0  0.44518  0.99102  0.25007  1.0000
  H   H71       1.0  0.42124  0.7656099999999999  0.24948999999999996  1.0000
  H   H72       1.0  0.4961499999999999  0.687  0.25574  1.0000
  H   H73       1.0  0.45199999999999985  0.9200099999999999  0.3331999999999999  1.0000
  H   H74       1.0  0.34661999999999993  0.9209399999999999  0.33282  1.0000
  H   H75       1.0  0.26448  0.8399499999999999  0.17101999999999995  1.0000
  H   H76       1.0  0.3698199999999999  0.83939  0.17093  1.0000
  H   H77       1.0  0.61076  0.06432999999999998  0.18367999999999998  1.0000
  H   H78       1.0  0.62309  0.17281  0.19132  1.0000
  H   H79       1.0  0.67232  0.26122  0.27626  1.0000
  H   H80       1.0  0.7103200000000001  0.24052  0.35343  1.0000
  H   H81       1.0  0.69836  0.13162999999999997  0.34508999999999995  1.0000
  H   H82       1.0  0.73066  0.09179999999999994  0.6153299999999999  1.0000
  H   H83       1.0  0.6805  0.04737  0.52177  1.0000
  H   H84       1.0  0.7989299999999999  0.92855  0.4468099999999999  1.0000
  H   H85       1.0  0.74897  0.8845199999999998  0.3533899999999999  1.0000
  H   H86       1.0  0.7194  0.68319  0.2563  1.0000
  H   H87       1.0  0.80465  0.75873  0.24991  1.0000
  H   H88       1.0  0.8280500000000001  0.9835  0.24931  1.0000
  H   H89       1.0  0.75957  0.06851999999999997  0.25543999999999994  1.0000
  H   H90       1.0  0.8826299999999999  0.91281  0.33305  1.0000
  H   H91       1.0  0.98755  0.91189  0.33248  1.0000
  H   H92       1.0  0.90435  0.83091  0.17065  1.0000
  H   H93       1.0  0.79897  0.8314400000000001  0.17079999999999995  1.0000
  H   H94       1.0  0.57309  0.61813  0.18371  1.0000
  H   H95       1.0  0.56803  0.51718  0.19092  1.0000
  H   H96       1.0  0.60357  0.51506  0.27565  1.0000
  H   H97       1.0  0.6429699999999999  0.61436  0.3529599999999999  1.0000
  H   H98       1.0  0.6469  0.7149999999999999  0.34505  1.0000
  H   H99       1.0  0.8842599999999999  0.023059999999999956  0.6160299999999999  1.0000
  H   H100      1.0  0.84159  0.97503  0.52253  1.0000
  H   H101      1.0  0.64751  0.017839999999999925  0.44624999999999987  1.0000
  H   H102      1.0  0.6046799999999999  0.9691799999999999  0.3528499999999999  1.0000
  H   H103      1.0  0.9270900000000001  0.4632200000000001  0.24395  1.0000
  H   H104      1.0  0.008959999999999984  0.55482  0.24991999999999998  1.0000
  H   H105      1.0  0.23438000000000003  0.57876  0.25049  1.0000
  H   H106      1.0  0.313  0.5038500000000001  0.24428  1.0000
  H   H107      1.0  0.07997999999999997  0.54795  0.1668  1.0000
  H   H108      1.0  0.07906  0.65332  0.16717  1.0000
  H   H109      1.0  0.16004999999999994  0.7355699999999998  0.32897  1.0000
  H   H110      1.0  0.16060999999999995  0.6302199999999999  0.32906999999999986  1.0000
  H   H111      1.0  0.93564  0.38924000000000003  0.31633  1.0000
  H   H112      1.0  0.82716  0.37692  0.30869  1.0000
  H   H113      1.0  0.7388  0.32769  0.22376  1.0000
  H   H114      1.0  0.75952  0.28969  0.14658  1.0000
  H   H115      1.0  0.86841  0.30165  0.15490999999999996  1.0000
  H   H116      1.0  0.90823  0.2694  0.88474  1.0000
  H   H117      1.0  0.95269  0.31954  0.97831  1.0000
  H   H118      1.0  0.07141  0.20106000000000002  0.05311999999999999  1.0000
  H   H119      1.0  0.11544999999999997  0.25101  0.14655999999999997  1.0000
  H   H120      1.0  0.31681  0.28061  0.24370999999999995  1.0000
  H   H121      1.0  0.24127  0.19535999999999998  0.2501  1.0000
  H   H122      1.0  0.016500000000000004  0.17197  0.2507  1.0000
  H   H123      1.0  0.9314699999999999  0.24043999999999996  0.24454  1.0000
  H   H124      1.0  0.08719  0.11732  0.16696  1.0000
  H   H125      1.0  0.08812999999999996  0.01240999999999998  0.16752999999999996  1.0000
  H   H126      1.0  0.16909999999999994  0.09570999999999999  0.32935999999999993  1.0000
  H   H127      1.0  0.16857  0.20108  0.3292  1.0000
  H   H128      1.0  0.38185  0.4269  0.31629  1.0000
  H   H129      1.0  0.48278999999999994  0.43196  0.30907  1.0000
  H   H130      1.0  0.4849399999999999  0.39642  0.22432999999999995  1.0000
  H   H131      1.0  0.3856899999999999  0.35703  0.14704  1.0000
  H   H132      1.0  0.28503999999999996  0.3531  0.15495999999999996  1.0000
  H   H133      1.0  0.9769  0.11571999999999986  0.8838899999999997  1.0000
  H   H134      1.0  0.024949999999999885  0.15835999999999986  0.9773899999999998  1.0000
  H   H135      1.0  0.98219  0.35254  0.05382  1.0000
  H   H136      1.0  0.030849999999999985  0.39535999999999993  0.14720999999999998  1.0000
  C   C1        1.0  0.41098999999999997  0.001230000000000059  0.74189  1.0000
  C   C2        1.0  0.46260999999999997  0.97259  0.74406  1.0000
  C   C3        1.0  0.5089400000000001  0.014030000000000023  0.74692  1.0000
  C   C4        1.0  0.48572  0.06803000000000003  0.74591  1.0000
  C   C5        1.0  0.51882  0.12088000000000008  0.74692  1.0000
  C   C6        1.0  0.49676000000000003  0.17368  0.7458799999999999  1.0000
  C   C7        1.0  0.5315399999999999  0.22780999999999996  0.7471599999999999  1.0000
  C   C8        1.0  0.49374  0.26776  0.74424  1.0000
  C   C9        1.0  0.4359099999999999  0.23864  0.7417199999999999  1.0000
  C   C10       1.0  0.35458999999999996  0.9740999999999997  0.7399999999999998  1.0000
  C   C11       1.0  0.58214  0.12031999999999998  0.74787  1.0000
  C   C12       1.0  0.58909  0.09731999999999999  0.70228  1.0000
  C   C13       1.0  0.64766  0.09685999999999993  0.70234  1.0000
  C   C14       1.0  0.7006199999999999  0.11980999999999983  0.7481199999999998  1.0000
  C   C15       1.0  0.6939899999999999  0.1425299999999999  0.79378  1.0000
  C   C16       1.0  0.63527  0.14276999999999995  0.7936299999999998  1.0000
  C   C17       1.0  0.76368  0.12044999999999995  0.7482  1.0000
  C   C18       1.0  0.34632999999999986  0.90906  0.73605  1.0000
  C   C19       1.0  0.36732000000000004  0.89695  0.77927  1.0000
  C   C20       1.0  0.36041999999999996  0.8359000000000001  0.77484  1.0000
  C   C21       1.0  0.33263999999999994  0.78624  0.7271399999999998  1.0000
  C   C22       1.0  0.31134000000000006  0.79784  0.68385  1.0000
  C   C23       1.0  0.31803  0.8589  0.68837  1.0000
  C   C24       1.0  0.24676  0.93444  0.40721  1.0000
  C   C25       1.0  0.27427  0.95977  0.45972  1.0000
  C   C26       1.0  0.24396999999999985  0.06026999999999996  0.5715899999999999  1.0000
  C   C27       1.0  0.27154  0.08540999999999997  0.62412  1.0000
  C   C28       1.0  0.33075000000000004  0.2405799999999999  0.74168  1.0000
  C   C29       1.0  0.2813899999999999  0.2715  0.74393  1.0000
  C   C30       1.0  0.2380099999999999  0.2330199999999999  0.7468499999999999  1.0000
  C   C31       1.0  0.2601999999999999  0.17797999999999986  0.7458299999999998  1.0000
  C   C32       1.0  0.2282499999999999  0.12621999999999986  0.7469799999999999  1.0000
  C   C33       1.0  0.2493  0.07243000000000005  0.74611  1.0000
  C   C34       1.0  0.21578999999999987  0.019649999999999924  0.7473999999999998  1.0000
  C   C35       1.0  0.25060000000000004  0.9766799999999999  0.74453  1.0000
  C   C36       1.0  0.30591000000000007  0.0031900000000000513  0.74204  1.0000
  C   C37       1.0  0.3851899999999999  0.26572  0.73973  1.0000
  C   C38       1.0  0.16597999999999985  0.12773999999999985  0.7479899999999998  1.0000
  C   C39       1.0  0.11251000000000001  0.10521  0.70247  1.0000
  C   C40       1.0  0.05403999999999988  0.10558999999999988  0.7026399999999998  1.0000
  C   C41       1.0  0.047990000000000005  0.12851  0.74853  1.0000
  C   C42       1.0  0.10122999999999988  0.15142  0.7941199999999999  1.0000
  C   C43       1.0  0.15970999999999985  0.15098999999999987  0.7938499999999998  1.0000
  C   C44       1.0  0.98516  0.12797999999999993  0.7488299999999999  1.0000
  C   C45       1.0  0.38958  0.32686  0.73603  1.0000
  C   C46       1.0  0.41187  0.38298  0.77935  1.0000
  C   C47       1.0  0.41454  0.43966  0.77517  1.0000
  C   C48       1.0  0.39469999999999994  0.44087  0.7276  1.0000
  C   C49       1.0  0.37261  0.38517  0.68422  1.0000
  C   C50       1.0  0.3702499999999999  0.32857999999999976  0.6884799999999998  1.0000
  C   C51       1.0  0.16090999999999997  0.9732899999999998  0.4068199999999999  1.0000
  C   C52       1.0  0.18554000000000004  0.99989  0.45931  1.0000
  C   C53       1.0  0.32764000000000004  0.011319999999999993  0.57191  1.0000
  C   C54       1.0  0.35224999999999995  0.03830999999999999  0.62443  1.0000
  C   C55       1.0  0.9987799999999999  0.5890199999999999  0.75811  1.0000
  C   C56       1.0  0.027419999999999965  0.53739  0.75595  1.0000
  C   C57       1.0  0.98599  0.49106  0.7530799999999999  1.0000
  C   C58       1.0  0.93199  0.51428  0.7540899999999998  1.0000
  C   C59       1.0  0.8791299999999999  0.48118  0.75309  1.0000
  C   C60       1.0  0.82633  0.50325  0.75412  1.0000
  C   C61       1.0  0.7722  0.46846  0.75284  1.0000
  C   C62       1.0  0.73224  0.50627  0.75575  1.0000
  C   C63       1.0  0.76136  0.5640999999999999  0.7582699999999998  1.0000
  C   C64       1.0  0.025909999999999888  0.6454199999999998  0.7600099999999997  1.0000
  C   C65       1.0  0.87969  0.41786999999999996  0.75214  1.0000
  C   C66       1.0  0.9026999999999998  0.4109499999999999  0.7977299999999999  1.0000
  C   C67       1.0  0.9031499999999998  0.35237999999999986  0.7976799999999997  1.0000
  C   C68       1.0  0.8802  0.29939000000000004  0.7518899999999998  1.0000
  C   C69       1.0  0.8574900000000001  0.30599  0.7062299999999999  1.0000
  C   C70       1.0  0.8572399999999999  0.3647099999999999  0.7063799999999998  1.0000
  C   C71       1.0  0.8795700000000001  0.23632999999999985  0.7517999999999998  1.0000
  C   C72       1.0  0.09093999999999987  0.6536699999999998  0.7639499999999998  1.0000
  C   C73       1.0  0.10306999999999991  0.63268  0.72073  1.0000
  C   C74       1.0  0.16410999999999998  0.63958  0.72515  1.0000
  C   C75       1.0  0.21376000000000003  0.6673499999999999  0.7728499999999999  1.0000
  C   C76       1.0  0.20213999999999996  0.68866  0.8161499999999998  1.0000
  C   C77       1.0  0.14109  0.68197  0.81163  1.0000
  C   C78       1.0  0.06555000000000001  0.7532100000000002  0.09276  1.0000
  C   C79       1.0  0.04020999999999998  0.7257199999999998  0.04024  1.0000
  C   C80       1.0  0.9397499999999999  0.75604  0.9284499999999998  1.0000
  C   C81       1.0  0.91461  0.72847  0.87591  1.0000
  C   C82       1.0  0.7594200000000001  0.66925  0.7583199999999999  1.0000
  C   C83       1.0  0.72851  0.7186  0.75606  1.0000
  C   C84       1.0  0.7669799999999999  0.76199  0.7531399999999998  1.0000
  C   C85       1.0  0.82202  0.7398  0.75417  1.0000
  C   C86       1.0  0.87379  0.77175  0.7530099999999997  1.0000
  C   C87       1.0  0.9275799999999998  0.7507  0.7538899999999997  1.0000
  C   C88       1.0  0.98036  0.78421  0.7526  1.0000
  C   C89       1.0  0.023329999999999997  0.7494  0.7554799999999999  1.0000
  C   C90       1.0  0.9968200000000002  0.6941  0.7579699999999999  1.0000
  C   C91       1.0  0.7342699999999999  0.6148099999999999  0.7602599999999999  1.0000
  C   C92       1.0  0.8722699999999999  0.83402  0.75201  1.0000
  C   C93       1.0  0.8947900000000001  0.8875199999999999  0.7975299999999999  1.0000
  C   C94       1.0  0.8944099999999999  0.94598  0.79736  1.0000
  C   C95       1.0  0.87149  0.9520199999999999  0.7514699999999997  1.0000
  C   C96       1.0  0.84858  0.8987499999999999  0.70588  1.0000
  C   C97       1.0  0.84902  0.84026  0.70615  1.0000
  C   C98       1.0  0.8720099999999998  0.014849999999999938  0.7511799999999997  1.0000
  C   C99       1.0  0.67314  0.61043  0.76397  1.0000
  C   C100      1.0  0.61703  0.58814  0.72066  1.0000
  C   C101      1.0  0.56036  0.58547  0.72484  1.0000
  C   C102      1.0  0.55913  0.6053099999999998  0.77242  1.0000
  C   C103      1.0  0.61481  0.6274000000000001  0.81579  1.0000
  C   C104      1.0  0.6714  0.62975  0.81152  1.0000
  C   C105      1.0  0.026739999999999996  0.8390999999999998  0.09322  1.0000
  C   C106      1.0  0.00012000000000000965  0.81448  0.04073  1.0000
  C   C107      1.0  0.98867  0.6723299999999999  0.9280599999999999  1.0000
  C   C108      1.0  0.96168  0.64773  0.87554  1.0000
  C   C109      1.0  0.58901  0.99878  0.25810999999999995  1.0000
  C   C110      1.0  0.53739  0.027409999999999986  0.25594  1.0000
  C   C111      1.0  0.49106  0.9859799999999999  0.25307999999999997  1.0000
  C   C112      1.0  0.51428  0.93198  0.25409  1.0000
  C   C113      1.0  0.48118  0.87912  0.25307999999999997  1.0000
  C   C114      1.0  0.50324  0.82633  0.25411999999999996  1.0000
  C   C115      1.0  0.46846  0.7722  0.25284  1.0000
  C   C116      1.0  0.50626  0.73224  0.25576  1.0000
  C   C117      1.0  0.56409  0.76136  0.25828  1.0000
  C   C118      1.0  0.64541  0.025910000000000002  0.26001  1.0000
  C   C119      1.0  0.41786  0.8796799999999999  0.25213  1.0000
  C   C120      1.0  0.41091  0.90269  0.29772  1.0000
  C   C121      1.0  0.35234  0.9031499999999998  0.2976599999999999  1.0000
  C   C122      1.0  0.29938  0.88019  0.25188  1.0000
  C   C123      1.0  0.30601  0.85748  0.20622  1.0000
  C   C124      1.0  0.36472999999999994  0.8572399999999999  0.20637  1.0000
  C   C125      1.0  0.23632000000000003  0.87956  0.2518  1.0000
  C   C126      1.0  0.6536699999999999  0.09093999999999994  0.26394999999999996  1.0000
  C   C127      1.0  0.63268  0.10306  0.22073  1.0000
  C   C128      1.0  0.63958  0.1641  0.22516  1.0000
  C   C129      1.0  0.66736  0.21376999999999996  0.27285999999999994  1.0000
  C   C130      1.0  0.68866  0.20215999999999995  0.31614999999999993  1.0000
  C   C131      1.0  0.68197  0.14111  0.31163  1.0000
  C   C132      1.0  0.75324  0.06555999999999995  0.5927999999999999  1.0000
  C   C133      1.0  0.72573  0.04024000000000001  0.54028  1.0000
  C   C134      1.0  0.75603  0.93974  0.42840999999999996  1.0000
  C   C135      1.0  0.72846  0.9145999999999999  0.37587999999999994  1.0000
  C   C136      1.0  0.66925  0.75942  0.25832  1.0000
  C   C137      1.0  0.7186099999999999  0.72851  0.25607  1.0000
  C   C138      1.0  0.76199  0.76698  0.25314999999999993  1.0000
  C   C139      1.0  0.7398  0.82202  0.25417  1.0000
  C   C140      1.0  0.77175  0.87379  0.25302  1.0000
  C   C141      1.0  0.7507  0.92758  0.25389  1.0000
  C   C142      1.0  0.78421  0.98036  0.25259999999999994  1.0000
  C   C143      1.0  0.7494  0.023319999999999997  0.25547  1.0000
  C   C144      1.0  0.69409  0.99681  0.25796  1.0000
  C   C145      1.0  0.61481  0.7342800000000002  0.26027  1.0000
  C   C146      1.0  0.83402  0.87227  0.25201  1.0000
  C   C147      1.0  0.88749  0.89479  0.29753  1.0000
  C   C148      1.0  0.9459599999999998  0.89442  0.29736999999999997  1.0000
  C   C149      1.0  0.95201  0.8715  0.25147  1.0000
  C   C150      1.0  0.89877  0.84859  0.20589  1.0000
  C   C151      1.0  0.84029  0.84902  0.20615  1.0000
  C   C152      1.0  0.014840000000000037  0.8720200000000002  0.25117  1.0000
  C   C153      1.0  0.61042  0.67315  0.26397  1.0000
  C   C154      1.0  0.5881299999999999  0.61702  0.22064999999999999  1.0000
  C   C155      1.0  0.58546  0.56035  0.22483  1.0000
  C   C156      1.0  0.6053  0.5591400000000001  0.2724  1.0000
  C   C157      1.0  0.62739  0.61483  0.31578  1.0000
  C   C158      1.0  0.62975  0.67143  0.31152  1.0000
  C   C159      1.0  0.83909  0.02671  0.59318  1.0000
  C   C160      1.0  0.8144599999999999  0.00010999999999993461  0.5406899999999999  1.0000
  C   C161      1.0  0.6723599999999998  0.9886799999999999  0.4280999999999999  1.0000
  C   C162      1.0  0.64775  0.9616999999999999  0.3755699999999999  1.0000
  C   C163      1.0  0.0012200000000000143  0.41099  0.24189  1.0000
  C   C164      1.0  0.97258  0.46260999999999997  0.24404999999999993  1.0000
  C   C165      1.0  0.01401000000000002  0.50895  0.24691999999999997  1.0000
  C   C166      1.0  0.06800999999999996  0.48571999999999993  0.24590999999999993  1.0000
  C   C167      1.0  0.12087  0.51882  0.24691  1.0000
  C   C168      1.0  0.17367  0.49675999999999987  0.24588  1.0000
  C   C169      1.0  0.22779999999999997  0.5315399999999999  0.24715999999999994  1.0000
  C   C170      1.0  0.26776  0.49374  0.24424999999999994  1.0000
  C   C171      1.0  0.23864  0.43590999999999996  0.24172999999999997  1.0000
  C   C172      1.0  0.9740899999999999  0.35458  0.23998999999999995  1.0000
  C   C173      1.0  0.12030999999999999  0.58213  0.24786999999999995  1.0000
  C   C174      1.0  0.0973  0.58906  0.20228  1.0000
  C   C175      1.0  0.09685  0.64763  0.20233  1.0000
  C   C176      1.0  0.1198  0.70062  0.24811  1.0000
  C   C177      1.0  0.14251  0.69401  0.29377  1.0000
  C   C178      1.0  0.14276  0.63529  0.29363  1.0000
  C   C179      1.0  0.12042999999999997  0.76368  0.2482  1.0000
  C   C180      1.0  0.90906  0.34633  0.23604999999999998  1.0000
  C   C181      1.0  0.89693  0.3673199999999999  0.27928  1.0000
  C   C182      1.0  0.83589  0.36041999999999996  0.27485  1.0000
  C   C183      1.0  0.7862400000000002  0.33264999999999995  0.22714999999999996  1.0000
  C   C184      1.0  0.79786  0.31134999999999996  0.18384999999999996  1.0000
  C   C185      1.0  0.8589100000000002  0.31803  0.18837  1.0000
  C   C186      1.0  0.9344499999999999  0.24678999999999984  0.9072499999999998  1.0000
  C   C187      1.0  0.95979  0.2742899999999998  0.9597599999999997  1.0000
  C   C188      1.0  0.06025  0.24397  0.07155  1.0000
  C   C189      1.0  0.08539  0.27154  0.12408999999999998  1.0000
  C   C190      1.0  0.24058  0.33075  0.24167999999999995  1.0000
  C   C191      1.0  0.27149  0.2814  0.24393999999999993  1.0000
  C   C192      1.0  0.23301999999999998  0.23802  0.24686  1.0000
  C   C193      1.0  0.17797999999999997  0.26021  0.24582999999999997  1.0000
  C   C194      1.0  0.12620999999999996  0.22826  0.24698999999999993  1.0000
  C   C195      1.0  0.07241999999999997  0.2493  0.24610999999999994  1.0000
  C   C196      1.0  0.019640000000000005  0.21580000000000002  0.2474  1.0000
  C   C197      1.0  0.97667  0.2506  0.24451999999999996  1.0000
  C   C198      1.0  0.003179999999999957  0.30590999999999996  0.24202999999999994  1.0000
  C   C199      1.0  0.26573  0.38519  0.23974  1.0000
  C   C200      1.0  0.12773  0.16598  0.248  1.0000
  C   C201      1.0  0.10520999999999996  0.11248999999999997  0.20247999999999994  1.0000
  C   C202      1.0  0.10558999999999999  0.05401999999999999  0.20263999999999996  1.0000
  C   C203      1.0  0.12851  0.047990000000000005  0.24853  1.0000
  C   C204      1.0  0.15142  0.10125999999999998  0.29412  1.0000
  C   C205      1.0  0.15098  0.15974  0.29385  1.0000
  C   C206      1.0  0.12798999999999996  0.9851499999999997  0.24882999999999997  1.0000
  C   C207      1.0  0.32686  0.38958  0.23603  1.0000
  C   C208      1.0  0.38297  0.41186000000000006  0.27935  1.0000
  C   C209      1.0  0.4396399999999999  0.41454  0.27516  1.0000
  C   C210      1.0  0.44086999999999993  0.3947  0.22758  1.0000
  C   C211      1.0  0.3851899999999999  0.37260999999999994  0.18421  1.0000
  C   C212      1.0  0.3286  0.37024999999999997  0.18848  1.0000
  C   C213      1.0  0.9732599999999999  0.16089999999999996  0.90678  1.0000
  C   C214      1.0  0.9998799999999998  0.18551999999999988  0.9592699999999997  1.0000
  C   C215      1.0  0.011329999999999998  0.32767  0.07193999999999999  1.0000
  C   C216      1.0  0.03832  0.35227  0.12446  1.0000
  C   C217      1.0  0.24389  0.99382  0.48759  1.0000
  C   C218      1.0  0.27184  0.021800000000000003  0.54372  1.0000
  C   C219      1.0  0.006180000000000002  0.75612  0.012409999999999996  1.0000
  C   C220      1.0  0.9781999999999998  0.7281499999999997  0.9562799999999998  1.0000
  C   C221      1.0  0.75611  0.006190000000000015  0.51241  1.0000
  C   C222      1.0  0.72816  0.9782000000000001  0.4562799999999999  1.0000
  C   C223      1.0  0.99382  0.2438799999999999  0.9875899999999999  1.0000
  C   C224      1.0  0.0218  0.27185  0.04372  1.0000
  N   N1        1.0  0.42615  0.05911  0.74296  1.0000
  N   N2        1.0  0.43905  0.18165  0.74292  1.0000
  N   N3        1.0  0.31668  0.18381  0.74277  1.0000
  N   N4        1.0  0.30396  0.06135999999999997  0.74313  1.0000
  N   N5        1.0  0.9408999999999998  0.57385  0.7570399999999998  1.0000
  N   N6        1.0  0.81835  0.5609599999999998  0.7570799999999998  1.0000
  N   N7        1.0  0.8161999999999997  0.6833199999999998  0.7572399999999998  1.0000
  N   N8        1.0  0.9386499999999999  0.6960500000000001  0.7568699999999999  1.0000
  N   N9        1.0  0.57384  0.9409  0.25704  1.0000
  N   N10       1.0  0.56095  0.8183500000000001  0.25708  1.0000
  N   N11       1.0  0.68332  0.81619  0.25723  1.0000
  N   N12       1.0  0.69604  0.93865  0.25687  1.0000
  N   N13       1.0  0.0591  0.42616  0.24296  1.0000
  N   N14       1.0  0.18165  0.43905  0.24292999999999998  1.0000
  N   N15       1.0  0.1838  0.31668  0.24276999999999996  1.0000
  N   N16       1.0  0.061350000000000016  0.30396  0.24313  1.0000
  N   N17       1.0  0.19092999999999996  0.9410299999999999  0.3809199999999999  1.0000
  N   N18       1.0  0.32481999999999994  0.07474999999999993  0.6504199999999999  1.0000
  N   N19       1.0  0.05898000000000001  0.80907  0.11908  1.0000
  N   N20       1.0  0.92525  0.67517  0.84958  1.0000
  N   N21       1.0  0.80907  0.05897000000000003  0.61908  1.0000
  N   N22       1.0  0.6751800000000001  0.92525  0.3495799999999999  1.0000
  N   N23       1.0  0.94102  0.1909399999999999  0.8809199999999998  1.0000
  N   N24       1.0  0.07475  0.32482999999999995  0.15042  1.0000
  O   O1        1.0  0.80986  0.14194999999999994  0.79105  1.0000
  O   O2        1.0  0.7661899999999999  0.09966999999999984  0.7051699999999997  1.0000
  O   O3        1.0  0.9830199999999999  0.15033999999999995  0.7918299999999999  1.0000
  O   O4        1.0  0.9386  0.10476999999999996  0.7058999999999999  1.0000
  O   O5        1.0  0.85808  0.19011000000000006  0.70895  1.0000
  O   O6        1.0  0.90033  0.23385000000000009  0.79483  1.0000
  O   O7        1.0  0.84967  0.016970000000000013  0.70818  1.0000
  O   O8        1.0  0.89521  0.06144999999999995  0.7941  1.0000
  O   O9        1.0  0.19014  0.85806  0.20895  1.0000
  O   O10       1.0  0.23380999999999993  0.9003299999999999  0.29483  1.0000
  O   O11       1.0  0.016979999999999967  0.84967  0.20816999999999994  1.0000
  O   O12       1.0  0.061399999999999996  0.89523  0.2941  1.0000
  O   O13       1.0  0.14192  0.80989  0.2910499999999999  1.0000
  O   O14       1.0  0.09967  0.76616  0.20517  1.0000
  O   O15       1.0  0.15033  0.98303  0.29182  1.0000
  O   O16       1.0  0.10479  0.93856  0.2059  1.0000
