data_image0
_chemical_formula_structural       Zn32H96C192O104
_chemical_formula_sum              "Zn32 H96 C192 O104"
_cell_length_a       25.7427
_cell_length_b       25.7427
_cell_length_c       25.7427
_cell_angle_alpha    90.0
_cell_angle_beta     90.0
_cell_angle_gamma    90.0

_symmetry_space_group_name_H-M    'P 1'
_symmetry_Int_Tables_number       1

loop_
  _symmetry_equiv_pos_as_xyz
  'x,y,z'

loop_
  _atom_site_type_symbol
  _atom_site_label
  _atom_site_symmetry_multiplicity
  _atom_site_fract_x
  _atom_site_fract_y
  _atom_site_fract_z
  _atom_site_occupancy
  Zn  Zn1       1.0  0.18634  0.8286800000000001  0.23249  1.0000
  Zn  Zn2       1.0  0.31366  0.17132  0.7324900000000001  1.0000
  Zn  Zn3       1.0  0.8136600000000002  0.32868000000000014  0.26751  1.0000
  Zn  Zn4       1.0  0.6863500000000001  0.67132  0.76751  1.0000
  Zn  Zn5       1.0  0.23249  0.18634  0.8286800000000001  1.0000
  Zn  Zn6       1.0  0.7324900000000001  0.31366  0.17132  1.0000
  Zn  Zn7       1.0  0.26751  0.8136600000000002  0.32868000000000014  1.0000
  Zn  Zn8       1.0  0.76751  0.6863500000000001  0.67132  1.0000
  Zn  Zn9       1.0  0.8286800000000001  0.23249  0.18634  1.0000
  Zn  Zn10      1.0  0.17132  0.7324900000000001  0.31366  1.0000
  Zn  Zn11      1.0  0.32868000000000014  0.26751  0.8136600000000002  1.0000
  Zn  Zn12      1.0  0.67132  0.76751  0.6863500000000001  1.0000
  Zn  Zn13      1.0  0.8136600000000002  0.17132  0.76751  1.0000
  Zn  Zn14      1.0  0.6863500000000001  0.8286800000000001  0.26751  1.0000
  Zn  Zn15      1.0  0.18634  0.67132  0.7324900000000001  1.0000
  Zn  Zn16      1.0  0.31366  0.32868000000000014  0.23249  1.0000
  Zn  Zn17      1.0  0.76751  0.8136600000000002  0.17132  1.0000
  Zn  Zn18      1.0  0.26751  0.6863500000000001  0.8286800000000001  1.0000
  Zn  Zn19      1.0  0.7324900000000001  0.18634  0.67132  1.0000
  Zn  Zn20      1.0  0.23249  0.31366  0.32868000000000014  1.0000
  Zn  Zn21      1.0  0.17132  0.76751  0.8136600000000002  1.0000
  Zn  Zn22      1.0  0.8286800000000001  0.26751  0.6863500000000001  1.0000
  Zn  Zn23      1.0  0.67132  0.7324900000000001  0.18634  1.0000
  Zn  Zn24      1.0  0.32868000000000014  0.23249  0.31366  1.0000
  Zn  Zn25      1.0  0.26536  0.7346400000000001  0.23464  1.0000
  Zn  Zn26      1.0  0.23464  0.26536  0.7346400000000001  1.0000
  Zn  Zn27      1.0  0.7346400000000001  0.23464  0.26536  1.0000
  Zn  Zn28      1.0  0.76536  0.76536  0.76536  1.0000
  Zn  Zn29      1.0  0.7346400000000001  0.26536  0.76536  1.0000
  Zn  Zn30      1.0  0.76536  0.7346400000000001  0.26536  1.0000
  Zn  Zn31      1.0  0.26536  0.76536  0.7346400000000001  1.0000
  Zn  Zn32      1.0  0.23464  0.23464  0.23464  1.0000
  H   H1        1.0  0.17553000000000002  0.83927  0.06446  1.0000
  H   H2        1.0  0.16850000000000004  0.82053  0.96883  1.0000
  H   H3        1.0  0.2706  0.70348  0.08381000000000002  1.0000
  H   H4        1.0  0.26428  0.68525  0.98822  1.0000
  H   H5        1.0  0.3244700000000001  0.16073000000000004  0.56446  1.0000
  H   H6        1.0  0.3315  0.17947  0.46883000000000014  1.0000
  H   H7        1.0  0.22940000000000005  0.29652  0.58381  1.0000
  H   H8        1.0  0.23572  0.31475  0.48822000000000004  1.0000
  H   H9        1.0  0.8244700000000003  0.33927000000000007  0.43554  1.0000
  H   H10       1.0  0.8315000000000001  0.32053  0.53117  1.0000
  H   H11       1.0  0.7294000000000002  0.20348  0.41619000000000006  1.0000
  H   H12       1.0  0.73572  0.18525  0.51178  1.0000
  H   H13       1.0  0.67553  0.6607300000000002  0.93554  1.0000
  H   H14       1.0  0.6685  0.67947  0.03117  1.0000
  H   H15       1.0  0.7706  0.7965200000000002  0.9161900000000002  1.0000
  H   H16       1.0  0.7642800000000002  0.8147500000000002  0.01178  1.0000
  H   H17       1.0  0.06446  0.17553000000000002  0.83927  1.0000
  H   H18       1.0  0.96883  0.16850000000000004  0.82053  1.0000
  H   H19       1.0  0.08381000000000002  0.2706  0.70348  1.0000
  H   H20       1.0  0.98822  0.26428  0.68525  1.0000
  H   H21       1.0  0.56446  0.3244700000000001  0.16073000000000004  1.0000
  H   H22       1.0  0.46883000000000014  0.3315  0.17947  1.0000
  H   H23       1.0  0.58381  0.22940000000000005  0.29652  1.0000
  H   H24       1.0  0.48822000000000004  0.23572  0.31475  1.0000
  H   H25       1.0  0.43554  0.8244700000000003  0.33927000000000007  1.0000
  H   H26       1.0  0.53117  0.8315000000000001  0.32053  1.0000
  H   H27       1.0  0.41619000000000006  0.7294000000000002  0.20348  1.0000
  H   H28       1.0  0.51178  0.73572  0.18525  1.0000
  H   H29       1.0  0.93554  0.67553  0.6607300000000002  1.0000
  H   H30       1.0  0.03117  0.6685  0.67947  1.0000
  H   H31       1.0  0.9161900000000002  0.7706  0.7965200000000002  1.0000
  H   H32       1.0  0.01178  0.7642800000000002  0.8147500000000002  1.0000
  H   H33       1.0  0.83927  0.06446  0.17553000000000002  1.0000
  H   H34       1.0  0.82053  0.96883  0.16850000000000004  1.0000
  H   H35       1.0  0.70348  0.08381000000000002  0.2706  1.0000
  H   H36       1.0  0.68525  0.98822  0.26428  1.0000
  H   H37       1.0  0.16073000000000004  0.56446  0.3244700000000001  1.0000
  H   H38       1.0  0.17947  0.46883000000000014  0.3315  1.0000
  H   H39       1.0  0.29652  0.58381  0.22940000000000005  1.0000
  H   H40       1.0  0.31475  0.48822000000000004  0.23572  1.0000
  H   H41       1.0  0.33927000000000007  0.43554  0.8244700000000003  1.0000
  H   H42       1.0  0.32053  0.53117  0.8315000000000001  1.0000
  H   H43       1.0  0.20348  0.41619000000000006  0.7294000000000002  1.0000
  H   H44       1.0  0.18525  0.51178  0.73572  1.0000
  H   H45       1.0  0.6607300000000002  0.93554  0.67553  1.0000
  H   H46       1.0  0.67947  0.03117  0.6685  1.0000
  H   H47       1.0  0.7965200000000002  0.9161900000000002  0.7706  1.0000
  H   H48       1.0  0.8147500000000002  0.01178  0.7642800000000002  1.0000
  H   H49       1.0  0.8244700000000003  0.16073000000000004  0.93554  1.0000
  H   H50       1.0  0.8315000000000001  0.17947  0.03117  1.0000
  H   H51       1.0  0.7294000000000002  0.29652  0.9161900000000002  1.0000
  H   H52       1.0  0.73572  0.31475  0.01178  1.0000
  H   H53       1.0  0.67553  0.83927  0.43554  1.0000
  H   H54       1.0  0.6685  0.82053  0.53117  1.0000
  H   H55       1.0  0.7706  0.70348  0.41619000000000006  1.0000
  H   H56       1.0  0.7642800000000002  0.68525  0.51178  1.0000
  H   H57       1.0  0.17553000000000002  0.6607300000000002  0.56446  1.0000
  H   H58       1.0  0.16850000000000004  0.67947  0.46883000000000014  1.0000
  H   H59       1.0  0.2706  0.7965200000000002  0.58381  1.0000
  H   H60       1.0  0.26428  0.8147500000000002  0.48822000000000004  1.0000
  H   H61       1.0  0.3244700000000001  0.33927000000000007  0.06446  1.0000
  H   H62       1.0  0.3315  0.32053  0.96883  1.0000
  H   H63       1.0  0.22940000000000005  0.20348  0.08381000000000002  1.0000
  H   H64       1.0  0.23572  0.18525  0.98822  1.0000
  H   H65       1.0  0.93554  0.8244700000000003  0.16073000000000004  1.0000
  H   H66       1.0  0.03117  0.8315000000000001  0.17947  1.0000
  H   H67       1.0  0.9161900000000002  0.7294000000000002  0.29652  1.0000
  H   H68       1.0  0.01178  0.73572  0.31475  1.0000
  H   H69       1.0  0.43554  0.67553  0.83927  1.0000
  H   H70       1.0  0.53117  0.6685  0.82053  1.0000
  H   H71       1.0  0.41619000000000006  0.7706  0.70348  1.0000
  H   H72       1.0  0.51178  0.7642800000000002  0.68525  1.0000
  H   H73       1.0  0.56446  0.17553000000000002  0.6607300000000002  1.0000
  H   H74       1.0  0.46883000000000014  0.16850000000000004  0.67947  1.0000
  H   H75       1.0  0.58381  0.2706  0.7965200000000002  1.0000
  H   H76       1.0  0.48822000000000004  0.26428  0.8147500000000002  1.0000
  H   H77       1.0  0.06446  0.3244700000000001  0.33927000000000007  1.0000
  H   H78       1.0  0.96883  0.3315  0.32053  1.0000
  H   H79       1.0  0.08381000000000002  0.22940000000000005  0.20348  1.0000
  H   H80       1.0  0.98822  0.23572  0.18525  1.0000
  H   H81       1.0  0.16073000000000004  0.93554  0.8244700000000003  1.0000
  H   H82       1.0  0.17947  0.03117  0.8315000000000001  1.0000
  H   H83       1.0  0.29652  0.9161900000000002  0.7294000000000002  1.0000
  H   H84       1.0  0.31475  0.01178  0.73572  1.0000
  H   H85       1.0  0.83927  0.43554  0.67553  1.0000
  H   H86       1.0  0.82053  0.53117  0.6685  1.0000
  H   H87       1.0  0.70348  0.41619000000000006  0.7706  1.0000
  H   H88       1.0  0.68525  0.51178  0.7642800000000002  1.0000
  H   H89       1.0  0.6607300000000002  0.56446  0.17553000000000002  1.0000
  H   H90       1.0  0.67947  0.46883000000000014  0.16850000000000004  1.0000
  H   H91       1.0  0.7965200000000002  0.58381  0.2706  1.0000
  H   H92       1.0  0.8147500000000002  0.48822000000000004  0.26428  1.0000
  H   H93       1.0  0.33927000000000007  0.06446  0.3244700000000001  1.0000
  H   H94       1.0  0.32053  0.96883  0.3315  1.0000
  H   H95       1.0  0.20348  0.08381000000000002  0.22940000000000005  1.0000
  H   H96       1.0  0.18525  0.98822  0.23572  1.0000
  C   C1        1.0  0.22832  0.782  0.13673  1.0000
  C   C2        1.0  0.22386  0.77261  0.07956000000000002  1.0000
  C   C3        1.0  0.19466000000000006  0.8056400000000002  0.04742000000000001  1.0000
  C   C4        1.0  0.19081  0.7952900000000002  0.99438  1.0000
  C   C5        1.0  0.24868000000000007  0.7289400000000001  0.05822  1.0000
  C   C6        1.0  0.24516  0.71882  0.00533  1.0000
  C   C7        1.0  0.21413000000000001  0.7412  0.9161  1.0000
  C   C8        1.0  0.21628000000000006  0.7519600000000002  0.9731000000000002  1.0000
  C   C9        1.0  0.27168  0.218  0.6367300000000002  1.0000
  C   C10       1.0  0.27614  0.22739  0.57956  1.0000
  C   C11       1.0  0.30534  0.19436000000000003  0.5474200000000001  1.0000
  C   C12       1.0  0.30919  0.20471000000000006  0.4943800000000001  1.0000
  C   C13       1.0  0.25132  0.27106  0.55822  1.0000
  C   C14       1.0  0.25484  0.28118  0.50533  1.0000
  C   C15       1.0  0.28587  0.2588  0.4161  1.0000
  C   C16       1.0  0.28372  0.24804  0.4731  1.0000
  C   C17       1.0  0.77168  0.282  0.36327000000000004  1.0000
  C   C18       1.0  0.7761400000000002  0.27261  0.42044  1.0000
  C   C19       1.0  0.80534  0.30564  0.45258  1.0000
  C   C20       1.0  0.8091900000000002  0.29529  0.50562  1.0000
  C   C21       1.0  0.7513200000000001  0.22894000000000003  0.44178000000000006  1.0000
  C   C22       1.0  0.7548400000000001  0.21882000000000001  0.49467  1.0000
  C   C23       1.0  0.78587  0.24120000000000005  0.5839000000000001  1.0000
  C   C24       1.0  0.78372  0.25196  0.5269  1.0000
  C   C25       1.0  0.72832  0.7180000000000002  0.86327  1.0000
  C   C26       1.0  0.72386  0.7273900000000001  0.92044  1.0000
  C   C27       1.0  0.6946600000000002  0.69436  0.9525800000000002  1.0000
  C   C28       1.0  0.69081  0.70471  0.00562  1.0000
  C   C29       1.0  0.74868  0.7710700000000001  0.9417800000000002  1.0000
  C   C30       1.0  0.74516  0.78119  0.99467  1.0000
  C   C31       1.0  0.7141300000000003  0.7588  0.0839  1.0000
  C   C32       1.0  0.71629  0.74804  0.0269  1.0000
  C   C33       1.0  0.13673  0.22832  0.782  1.0000
  C   C34       1.0  0.07956000000000002  0.22386  0.77261  1.0000
  C   C35       1.0  0.04742000000000001  0.19466000000000006  0.8056400000000002  1.0000
  C   C36       1.0  0.99438  0.19081  0.7952900000000002  1.0000
  C   C37       1.0  0.05822  0.24868000000000007  0.7289400000000001  1.0000
  C   C38       1.0  0.00533  0.24516  0.71882  1.0000
  C   C39       1.0  0.9161  0.21413000000000001  0.7412  1.0000
  C   C40       1.0  0.9731000000000002  0.21628000000000006  0.7519600000000002  1.0000
  C   C41       1.0  0.6367300000000002  0.27168  0.218  1.0000
  C   C42       1.0  0.57956  0.27614  0.22739  1.0000
  C   C43       1.0  0.5474200000000001  0.30534  0.19436000000000003  1.0000
  C   C44       1.0  0.4943800000000001  0.30919  0.20471000000000006  1.0000
  C   C45       1.0  0.55822  0.25132  0.27107  1.0000
  C   C46       1.0  0.50533  0.25484  0.28118  1.0000
  C   C47       1.0  0.4161  0.28587  0.2588  1.0000
  C   C48       1.0  0.4731  0.28372  0.24804  1.0000
  C   C49       1.0  0.36327000000000004  0.77168  0.282  1.0000
  C   C50       1.0  0.42044  0.7761400000000002  0.27261  1.0000
  C   C51       1.0  0.45258  0.80534  0.30564  1.0000
  C   C52       1.0  0.50562  0.8091900000000002  0.29529  1.0000
  C   C53       1.0  0.44178000000000006  0.7513200000000001  0.22894000000000003  1.0000
  C   C54       1.0  0.49467  0.7548400000000001  0.21882000000000001  1.0000
  C   C55       1.0  0.5839000000000001  0.78587  0.24120000000000005  1.0000
  C   C56       1.0  0.5269  0.78372  0.25196  1.0000
  C   C57       1.0  0.86327  0.72832  0.7180000000000002  1.0000
  C   C58       1.0  0.92044  0.72386  0.7273900000000001  1.0000
  C   C59       1.0  0.9525800000000002  0.6946600000000002  0.69436  1.0000
  C   C60       1.0  0.00562  0.69081  0.70471  1.0000
  C   C61       1.0  0.9417800000000002  0.74868  0.7710700000000001  1.0000
  C   C62       1.0  0.99467  0.74516  0.78119  1.0000
  C   C63       1.0  0.0839  0.7141300000000003  0.7588  1.0000
  C   C64       1.0  0.0269  0.71629  0.74804  1.0000
  C   C65       1.0  0.782  0.13673  0.22832  1.0000
  C   C66       1.0  0.77261  0.07956000000000002  0.22386  1.0000
  C   C67       1.0  0.8056400000000002  0.04742000000000001  0.19466000000000006  1.0000
  C   C68       1.0  0.7952900000000002  0.99438  0.19081  1.0000
  C   C69       1.0  0.7289400000000001  0.05822  0.24868000000000007  1.0000
  C   C70       1.0  0.71882  0.00533  0.24516  1.0000
  C   C71       1.0  0.7412  0.9161  0.21413000000000001  1.0000
  C   C72       1.0  0.7519600000000002  0.9731000000000002  0.21628000000000006  1.0000
  C   C73       1.0  0.218  0.6367300000000002  0.27168  1.0000
  C   C74       1.0  0.22739  0.57956  0.27614  1.0000
  C   C75       1.0  0.19436000000000003  0.5474200000000001  0.30534  1.0000
  C   C76       1.0  0.20471000000000006  0.4943800000000001  0.30919  1.0000
  C   C77       1.0  0.27106  0.55822  0.25132  1.0000
  C   C78       1.0  0.28118  0.50533  0.25484  1.0000
  C   C79       1.0  0.2588  0.4161  0.28587  1.0000
  C   C80       1.0  0.24804  0.4731  0.28372  1.0000
  C   C81       1.0  0.282  0.36327000000000004  0.77168  1.0000
  C   C82       1.0  0.27261  0.42044  0.7761400000000002  1.0000
  C   C83       1.0  0.30564  0.45258  0.80534  1.0000
  C   C84       1.0  0.29529  0.50562  0.8091900000000002  1.0000
  C   C85       1.0  0.22894000000000003  0.44178000000000006  0.7513200000000001  1.0000
  C   C86       1.0  0.21882000000000001  0.49467  0.7548400000000001  1.0000
  C   C87       1.0  0.24120000000000005  0.5839000000000001  0.78587  1.0000
  C   C88       1.0  0.25196  0.5269  0.78372  1.0000
  C   C89       1.0  0.7180000000000002  0.86327  0.72832  1.0000
  C   C90       1.0  0.7273900000000001  0.92044  0.72386  1.0000
  C   C91       1.0  0.69436  0.9525800000000002  0.6946600000000002  1.0000
  C   C92       1.0  0.70471  0.00562  0.69081  1.0000
  C   C93       1.0  0.7710700000000001  0.9417800000000002  0.74868  1.0000
  C   C94       1.0  0.78119  0.99467  0.74516  1.0000
  C   C95       1.0  0.7588  0.0839  0.7141300000000003  1.0000
  C   C96       1.0  0.74804  0.0269  0.71629  1.0000
  C   C97       1.0  0.77168  0.218  0.86327  1.0000
  C   C98       1.0  0.7761400000000002  0.22739  0.92044  1.0000
  C   C99       1.0  0.80534  0.19436000000000003  0.9525800000000002  1.0000
  C   C100      1.0  0.8091900000000002  0.20471000000000006  0.00562  1.0000
  C   C101      1.0  0.7513200000000001  0.27106  0.9417800000000002  1.0000
  C   C102      1.0  0.7548400000000001  0.28118  0.99467  1.0000
  C   C103      1.0  0.78587  0.2588  0.0839  1.0000
  C   C104      1.0  0.78372  0.24804  0.0269  1.0000
  C   C105      1.0  0.72832  0.782  0.36327000000000004  1.0000
  C   C106      1.0  0.72386  0.77261  0.42044  1.0000
  C   C107      1.0  0.6946600000000002  0.8056400000000002  0.45258  1.0000
  C   C108      1.0  0.69081  0.7952900000000002  0.50562  1.0000
  C   C109      1.0  0.74868  0.7289400000000001  0.44178000000000006  1.0000
  C   C110      1.0  0.74516  0.71882  0.49467  1.0000
  C   C111      1.0  0.7141300000000003  0.7412  0.5839000000000001  1.0000
  C   C112      1.0  0.71629  0.7519600000000002  0.5269  1.0000
  C   C113      1.0  0.22832  0.7180000000000002  0.6367300000000002  1.0000
  C   C114      1.0  0.22386  0.7273900000000001  0.57956  1.0000
  C   C115      1.0  0.19466000000000006  0.69436  0.5474200000000001  1.0000
  C   C116      1.0  0.19081  0.70471  0.4943800000000001  1.0000
  C   C117      1.0  0.24868000000000007  0.7710700000000001  0.55822  1.0000
  C   C118      1.0  0.24516  0.78119  0.50533  1.0000
  C   C119      1.0  0.21413000000000001  0.7588  0.4161  1.0000
  C   C120      1.0  0.21628000000000006  0.74804  0.4731  1.0000
  C   C121      1.0  0.27168  0.282  0.13673  1.0000
  C   C122      1.0  0.27614  0.27261  0.07956000000000002  1.0000
  C   C123      1.0  0.30534  0.30564  0.04742000000000001  1.0000
  C   C124      1.0  0.30919  0.29529  0.99438  1.0000
  C   C125      1.0  0.25132  0.22894000000000003  0.05822  1.0000
  C   C126      1.0  0.25484  0.21882000000000001  0.00533  1.0000
  C   C127      1.0  0.28587  0.24120000000000005  0.9161  1.0000
  C   C128      1.0  0.28372  0.25196  0.9731000000000002  1.0000
  C   C129      1.0  0.86327  0.77168  0.218  1.0000
  C   C130      1.0  0.92044  0.7761400000000002  0.22739  1.0000
  C   C131      1.0  0.9525800000000002  0.80534  0.19436000000000003  1.0000
  C   C132      1.0  0.00562  0.8091900000000002  0.20471000000000006  1.0000
  C   C133      1.0  0.9417800000000002  0.7513200000000001  0.27106  1.0000
  C   C134      1.0  0.99467  0.7548400000000001  0.28118  1.0000
  C   C135      1.0  0.0839  0.78587  0.2588  1.0000
  C   C136      1.0  0.0269  0.78372  0.24804  1.0000
  C   C137      1.0  0.36327000000000004  0.72832  0.782  1.0000
  C   C138      1.0  0.42044  0.72386  0.77261  1.0000
  C   C139      1.0  0.45258  0.6946600000000002  0.8056400000000002  1.0000
  C   C140      1.0  0.50562  0.69081  0.7952900000000002  1.0000
  C   C141      1.0  0.44178000000000006  0.74868  0.7289400000000001  1.0000
  C   C142      1.0  0.49467  0.74516  0.71882  1.0000
  C   C143      1.0  0.5839000000000001  0.7141300000000003  0.7412  1.0000
  C   C144      1.0  0.5269  0.71629  0.7519600000000002  1.0000
  C   C145      1.0  0.6367300000000002  0.22832  0.7180000000000002  1.0000
  C   C146      1.0  0.57956  0.22386  0.7273900000000001  1.0000
  C   C147      1.0  0.5474200000000001  0.19466000000000006  0.69436  1.0000
  C   C148      1.0  0.4943800000000001  0.19081  0.70471  1.0000
  C   C149      1.0  0.55822  0.24868000000000007  0.7710700000000001  1.0000
  C   C150      1.0  0.50533  0.24516  0.78119  1.0000
  C   C151      1.0  0.4161  0.21413000000000001  0.7588  1.0000
  C   C152      1.0  0.4731  0.21628000000000006  0.74804  1.0000
  C   C153      1.0  0.13673  0.27168  0.282  1.0000
  C   C154      1.0  0.07956000000000002  0.27614  0.27261  1.0000
  C   C155      1.0  0.04742000000000001  0.30534  0.30564  1.0000
  C   C156      1.0  0.99438  0.30919  0.29529  1.0000
  C   C157      1.0  0.05822  0.25132  0.22894000000000003  1.0000
  C   C158      1.0  0.00533  0.25484  0.21882000000000001  1.0000
  C   C159      1.0  0.9161  0.28587  0.24120000000000005  1.0000
  C   C160      1.0  0.9731000000000002  0.28372  0.25196  1.0000
  C   C161      1.0  0.218  0.86327  0.77168  1.0000
  C   C162      1.0  0.22739  0.92044  0.7761400000000002  1.0000
  C   C163      1.0  0.19436000000000003  0.9525800000000002  0.80534  1.0000
  C   C164      1.0  0.20471000000000006  0.00562  0.8091900000000002  1.0000
  C   C165      1.0  0.27106  0.9417800000000002  0.7513200000000001  1.0000
  C   C166      1.0  0.28118  0.99467  0.7548400000000001  1.0000
  C   C167      1.0  0.2588  0.0839  0.78587  1.0000
  C   C168      1.0  0.24804  0.0269  0.78372  1.0000
  C   C169      1.0  0.782  0.36327000000000004  0.72832  1.0000
  C   C170      1.0  0.77261  0.42044  0.72386  1.0000
  C   C171      1.0  0.8056400000000002  0.45258  0.6946600000000002  1.0000
  C   C172      1.0  0.7952900000000002  0.50562  0.69081  1.0000
  C   C173      1.0  0.7289400000000001  0.44178000000000006  0.74868  1.0000
  C   C174      1.0  0.71882  0.49467  0.74516  1.0000
  C   C175      1.0  0.7412  0.5839000000000001  0.7141300000000003  1.0000
  C   C176      1.0  0.7519600000000002  0.5269  0.71629  1.0000
  C   C177      1.0  0.7180000000000002  0.6367300000000002  0.22832  1.0000
  C   C178      1.0  0.7273900000000001  0.57956  0.22386  1.0000
  C   C179      1.0  0.69436  0.5474200000000001  0.19466000000000006  1.0000
  C   C180      1.0  0.70471  0.4943800000000001  0.19081  1.0000
  C   C181      1.0  0.7710700000000001  0.55822  0.24868000000000007  1.0000
  C   C182      1.0  0.78119  0.50533  0.24516  1.0000
  C   C183      1.0  0.7588  0.4161  0.21413000000000001  1.0000
  C   C184      1.0  0.74804  0.4731  0.21628000000000006  1.0000
  C   C185      1.0  0.282  0.13673  0.27168  1.0000
  C   C186      1.0  0.27261  0.07956000000000002  0.27614  1.0000
  C   C187      1.0  0.30564  0.04742000000000001  0.30534  1.0000
  C   C188      1.0  0.29529  0.99438  0.30919  1.0000
  C   C189      1.0  0.22894000000000003  0.05822  0.25132  1.0000
  C   C190      1.0  0.21882000000000001  0.00533  0.25484  1.0000
  C   C191      1.0  0.24120000000000005  0.9161  0.28587  1.0000
  C   C192      1.0  0.25196  0.9731000000000002  0.28372  1.0000
  O   O1        1.0  0.20026  0.8176700000000001  0.15689  1.0000
  O   O2        1.0  0.17981  0.76557  0.88978  1.0000
  O   O3        1.0  0.24725  0.70841  0.89867  1.0000
  O   O4        1.0  0.26017  0.7525900000000001  0.16108  1.0000
  O   O5        1.0  0.29974  0.18233  0.6568900000000001  1.0000
  O   O6        1.0  0.32019000000000003  0.23443000000000003  0.3897800000000001  1.0000
  O   O7        1.0  0.25275  0.29159000000000007  0.39867  1.0000
  O   O8        1.0  0.23983  0.24741000000000005  0.66109  1.0000
  O   O9        1.0  0.79974  0.31767  0.34311000000000014  1.0000
  O   O10       1.0  0.82019  0.26557  0.61022  1.0000
  O   O11       1.0  0.75275  0.20841  0.60133  1.0000
  O   O12       1.0  0.73983  0.25259  0.3389200000000001  1.0000
  O   O13       1.0  0.7002600000000002  0.68233  0.84311  1.0000
  O   O14       1.0  0.6798100000000002  0.7344300000000001  0.11022000000000001  1.0000
  O   O15       1.0  0.74725  0.7915900000000001  0.10133000000000003  1.0000
  O   O16       1.0  0.76017  0.74741  0.83892  1.0000
  O   O17       1.0  0.15689  0.20026  0.8176700000000001  1.0000
  O   O18       1.0  0.88978  0.17981  0.76557  1.0000
  O   O19       1.0  0.89867  0.24725  0.70841  1.0000
  O   O20       1.0  0.16108  0.26017  0.7525900000000001  1.0000
  O   O21       1.0  0.6568900000000001  0.29974  0.18233  1.0000
  O   O22       1.0  0.3897800000000001  0.32019000000000003  0.23443000000000003  1.0000
  O   O23       1.0  0.39867  0.25275  0.29159000000000007  1.0000
  O   O24       1.0  0.6610800000000001  0.23983  0.24741000000000005  1.0000
  O   O25       1.0  0.34311000000000014  0.79974  0.31767  1.0000
  O   O26       1.0  0.61022  0.82019  0.26557  1.0000
  O   O27       1.0  0.60133  0.75275  0.20841  1.0000
  O   O28       1.0  0.3389200000000001  0.73983  0.25259  1.0000
  O   O29       1.0  0.84311  0.7002600000000002  0.68233  1.0000
  O   O30       1.0  0.11022000000000001  0.6798100000000002  0.7344300000000001  1.0000
  O   O31       1.0  0.10133000000000003  0.74725  0.7915900000000001  1.0000
  O   O32       1.0  0.83892  0.76017  0.74741  1.0000
  O   O33       1.0  0.8176700000000001  0.15689  0.20026  1.0000
  O   O34       1.0  0.76557  0.88978  0.17981  1.0000
  O   O35       1.0  0.70841  0.89867  0.24725  1.0000
  O   O36       1.0  0.7525900000000001  0.16108  0.26017  1.0000
  O   O37       1.0  0.18233  0.6568900000000001  0.29974  1.0000
  O   O38       1.0  0.23443000000000003  0.3897800000000001  0.32019000000000003  1.0000
  O   O39       1.0  0.29159000000000007  0.39867  0.25275  1.0000
  O   O40       1.0  0.24741000000000005  0.66109  0.23983  1.0000
  O   O41       1.0  0.31767  0.34311000000000014  0.79974  1.0000
  O   O42       1.0  0.26557  0.61022  0.82019  1.0000
  O   O43       1.0  0.20841  0.60133  0.75275  1.0000
  O   O44       1.0  0.25259  0.3389200000000001  0.73983  1.0000
  O   O45       1.0  0.68233  0.84311  0.7002600000000002  1.0000
  O   O46       1.0  0.7344300000000001  0.11022000000000001  0.6798100000000002  1.0000
  O   O47       1.0  0.7915900000000001  0.10133000000000003  0.74725  1.0000
  O   O48       1.0  0.74741  0.83892  0.76017  1.0000
  O   O49       1.0  0.79974  0.18233  0.84311  1.0000
  O   O50       1.0  0.82019  0.23443000000000003  0.11022000000000001  1.0000
  O   O51       1.0  0.75275  0.29159000000000007  0.10133000000000003  1.0000
  O   O52       1.0  0.73983  0.24741000000000005  0.83892  1.0000
  O   O53       1.0  0.7002600000000002  0.8176700000000001  0.34311000000000014  1.0000
  O   O54       1.0  0.6798100000000002  0.76557  0.61022  1.0000
  O   O55       1.0  0.74725  0.70841  0.60133  1.0000
  O   O56       1.0  0.76017  0.7525900000000001  0.3389200000000001  1.0000
  O   O57       1.0  0.20026  0.68233  0.6568900000000001  1.0000
  O   O58       1.0  0.17981  0.7344300000000001  0.3897800000000001  1.0000
  O   O59       1.0  0.24725  0.7915900000000001  0.39867  1.0000
  O   O60       1.0  0.26017  0.74741  0.66109  1.0000
  O   O61       1.0  0.29974  0.31767  0.15689  1.0000
  O   O62       1.0  0.32019000000000003  0.26557  0.88978  1.0000
  O   O63       1.0  0.25275  0.20841  0.89867  1.0000
  O   O64       1.0  0.23983  0.25259  0.16108  1.0000
  O   O65       1.0  0.84311  0.79974  0.18233  1.0000
  O   O66       1.0  0.11022000000000001  0.82019  0.23443000000000003  1.0000
  O   O67       1.0  0.10133000000000003  0.75275  0.29159000000000007  1.0000
  O   O68       1.0  0.83892  0.73983  0.24741000000000005  1.0000
  O   O69       1.0  0.34311000000000014  0.7002600000000002  0.8176700000000001  1.0000
  O   O70       1.0  0.61022  0.6798100000000002  0.76557  1.0000
  O   O71       1.0  0.60133  0.74725  0.70841  1.0000
  O   O72       1.0  0.3389200000000001  0.76017  0.7525900000000001  1.0000
  O   O73       1.0  0.6568900000000001  0.20026  0.68233  1.0000
  O   O74       1.0  0.3897800000000001  0.17981  0.7344300000000001  1.0000
  O   O75       1.0  0.39867  0.24725  0.7915900000000001  1.0000
  O   O76       1.0  0.6610800000000001  0.26017  0.74741  1.0000
  O   O77       1.0  0.15689  0.29974  0.31767  1.0000
  O   O78       1.0  0.88978  0.32019000000000003  0.26557  1.0000
  O   O79       1.0  0.89867  0.25275  0.20841  1.0000
  O   O80       1.0  0.16108  0.23983  0.25259  1.0000
  O   O81       1.0  0.18233  0.84311  0.79974  1.0000
  O   O82       1.0  0.23443000000000003  0.11022000000000001  0.82019  1.0000
  O   O83       1.0  0.29159000000000007  0.10133000000000003  0.75275  1.0000
  O   O84       1.0  0.24741000000000005  0.83892  0.73983  1.0000
  O   O85       1.0  0.8176700000000001  0.34311000000000014  0.7002600000000002  1.0000
  O   O86       1.0  0.76557  0.61022  0.6798100000000002  1.0000
  O   O87       1.0  0.70841  0.60133  0.74725  1.0000
  O   O88       1.0  0.7525900000000001  0.3389200000000001  0.76017  1.0000
  O   O89       1.0  0.68233  0.6568900000000001  0.20026  1.0000
  O   O90       1.0  0.7344300000000001  0.3897800000000001  0.17981  1.0000
  O   O91       1.0  0.7915900000000001  0.39867  0.24725  1.0000
  O   O92       1.0  0.74741  0.6610800000000001  0.26017  1.0000
  O   O93       1.0  0.31767  0.15689  0.29974  1.0000
  O   O94       1.0  0.26557  0.88978  0.32019000000000003  1.0000
  O   O95       1.0  0.20841  0.89867  0.25275  1.0000
  O   O96       1.0  0.25259  0.16108  0.23983  1.0000
  O   O97       1.0  0.22147000000000003  0.77853  0.27853  1.0000
  O   O98       1.0  0.27853  0.22147000000000003  0.77853  1.0000
  O   O99       1.0  0.77853  0.27853  0.22147000000000003  1.0000
  O   O100      1.0  0.7214700000000001  0.7214700000000001  0.7214700000000001  1.0000
  O   O101      1.0  0.77853  0.22147000000000003  0.7214700000000001  1.0000
  O   O102      1.0  0.7214700000000001  0.77853  0.22147000000000003  1.0000
  O   O103      1.0  0.22147000000000003  0.7214700000000001  0.77853  1.0000
  O   O104      1.0  0.27853  0.27853  0.27853  1.0000
