data_image0
_chemical_formula_structural       Zn8H144C192N24O40
_chemical_formula_sum              "Zn8 H144 C192 N24 O40"
_cell_length_a       16.37557
_cell_length_b       17.10316
_cell_length_c       18.27073
_cell_angle_alpha    92.3714
_cell_angle_beta     90.05556000000001
_cell_angle_gamma    89.93465

_symmetry_space_group_name_H-M    'P 1'
_symmetry_Int_Tables_number       1

loop_
  _symmetry_equiv_pos_as_xyz
  'x,y,z'

loop_
  _atom_site_type_symbol
  _atom_site_label
  _atom_site_symmetry_multiplicity
  _atom_site_fract_x
  _atom_site_fract_y
  _atom_site_fract_z
  _atom_site_occupancy
  Zn  Zn1       1.0  0.50031  0.72391  0.22325  1.0000
  Zn  Zn2       1.0  0.00529  0.71245  0.79088  1.0000
  Zn  Zn3       1.0  0.99962  0.22403  0.7232999999999999  1.0000
  Zn  Zn4       1.0  0.49576  0.21183  0.29082  1.0000
  Zn  Zn5       1.0  0.00038999999999999994  0.77597  0.27669999999999995  1.0000
  Zn  Zn6       1.0  0.50424  0.78818  0.7091799999999998  1.0000
  Zn  Zn7       1.0  0.4996900000000001  0.27609  0.77676  1.0000
  Zn  Zn8       1.0  0.99471  0.28756000000000004  0.20912  1.0000
  H   H1        1.0  0.83215  0.68622  0.52445  1.0000
  H   H2        1.0  0.82561  0.78805  0.53976  1.0000
  H   H3        1.0  0.6902099999999998  0.76334  0.6113  1.0000
  H   H4        1.0  0.71911  0.66444  0.6121  1.0000
  H   H5        1.0  0.7844499999999998  0.85068  0.30983  1.0000
  H   H6        1.0  0.82578  0.76183  0.39344  1.0000
  H   H7        1.0  0.7900399999999997  0.6648699999999999  0.38781999999999994  1.0000
  H   H8        1.0  0.8143899999999997  0.58673  0.59602  1.0000
  H   H9        1.0  0.25246  0.03403  0.76066  1.0000
  H   H10       1.0  0.5314199999999998  0.15449  0.53356  1.0000
  H   H11       1.0  0.67761  0.69905  0.4768899999999999  1.0000
  H   H12       1.0  0.70039  0.7989600000000002  0.47287999999999997  1.0000
  H   H13       1.0  0.8648399999999998  0.86828  0.7964299999999997  1.0000
  H   H14       1.0  0.14164  0.9399  0.7922  1.0000
  H   H15       1.0  0.49294  0.09236  0.65048  1.0000
  H   H16       1.0  0.14753  0.44479  0.71348  1.0000
  H   H17       1.0  0.26568  0.53519  0.73754  1.0000
  H   H18       1.0  0.30688  0.49354000000000003  0.9552599999999999  1.0000
  H   H19       1.0  0.28734  0.9824300000000001  0.542  1.0000
  H   H20       1.0  0.00521  0.43051999999999996  0.6641  1.0000
  H   H21       1.0  0.69137  0.59483  0.40735  1.0000
  H   H22       1.0  0.23188999999999996  0.77416  0.62995  1.0000
  H   H23       1.0  0.24150999999999995  0.28908999999999996  0.87081  1.0000
  H   H24       1.0  0.05301999999999999  0.53913  0.75147  1.0000
  H   H25       1.0  0.73425  0.85313  0.69657  1.0000
  H   H26       1.0  0.34835999999999995  0.86477  0.60255  1.0000
  H   H27       1.0  0.61208  0.4728800000000001  0.42092  1.0000
  H   H28       1.0  0.36237  0.37627  0.8925499999999998  1.0000
  H   H29       1.0  0.50262  0.6093500000000001  0.84639  1.0000
  H   H30       1.0  0.32601999999999987  0.04477  0.42565  1.0000
  H   H31       1.0  0.88463  0.45815  0.58242  1.0000
  H   H32       1.0  0.64912  0.86914  0.21704  1.0000
  H   H33       1.0  0.3475999999999999  0.55959  0.07348999999999999  1.0000
  H   H34       1.0  0.44025  0.55728  0.26255  1.0000
  H   H35       1.0  0.48506  0.44988  0.34528  1.0000
  H   H36       1.0  0.5422  0.67688  0.9653199999999998  1.0000
  H   H37       1.0  0.66799  0.18618  0.02424  1.0000
  H   H38       1.0  0.6743699999999998  0.28798  0.03971  1.0000
  H   H39       1.0  0.8098899999999998  0.26292  0.11136999999999998  1.0000
  H   H40       1.0  0.78099  0.1641  0.11203  1.0000
  H   H41       1.0  0.7155299999999998  0.35096000000000005  0.81013  1.0000
  H   H42       1.0  0.67431  0.26202  0.8935  1.0000
  H   H43       1.0  0.71012  0.16503  0.88779  1.0000
  H   H44       1.0  0.6855699999999998  0.08647  0.09538  1.0000
  H   H45       1.0  0.24703999999999998  0.53398  0.26173  1.0000
  H   H46       1.0  0.9686899999999998  0.65405  0.03343  1.0000
  H   H47       1.0  0.82254  0.19892  0.97707  1.0000
  H   H48       1.0  0.7996699999999998  0.29887  0.97317  1.0000
  H   H49       1.0  0.63472  0.36788000000000004  0.29619  1.0000
  H   H50       1.0  0.3592  0.44138  0.29335  1.0000
  H   H51       1.0  0.00733  0.5919400000000001  0.15038  1.0000
  H   H52       1.0  0.35223999999999994  0.9450000000000001  0.21358  1.0000
  H   H53       1.0  0.2342  0.03562  0.23806  1.0000
  H   H54       1.0  0.19294  0.9935299999999998  0.45558  1.0000
  H   H55       1.0  0.213  0.48161  0.04221  1.0000
  H   H56       1.0  0.49535000000000007  0.93015  0.1636  1.0000
  H   H57       1.0  0.8091199999999997  0.09492999999999999  0.9074499999999999  1.0000
  H   H58       1.0  0.27077  0.27418  0.13156  1.0000
  H   H59       1.0  0.25893  0.78899  0.37058  1.0000
  H   H60       1.0  0.44821  0.03834  0.25171  1.0000
  H   H61       1.0  0.76508  0.35322  0.19621  1.0000
  H   H62       1.0  0.15310999999999994  0.36373  0.10381999999999998  1.0000
  H   H63       1.0  0.88852  0.97289  0.9209799999999999  1.0000
  H   H64       1.0  0.138  0.87638  0.39268  1.0000
  H   H65       1.0  0.9969499999999999  0.10953  0.34638  1.0000
  H   H66       1.0  0.17414  0.54393  0.92585  1.0000
  H   H67       1.0  0.61534  0.95805  0.08157  1.0000
  H   H68       1.0  0.85062  0.36926999999999993  0.71725  1.0000
  H   H69       1.0  0.15215  0.05999000000000001  0.57368  1.0000
  H   H70       1.0  0.05982  0.0571  0.76249  1.0000
  H   H71       1.0  0.015430000000000003  0.94985  0.84533  1.0000
  H   H72       1.0  0.95748  0.1773  0.46503999999999995  1.0000
  H   H73       1.0  0.33201  0.81383  0.9757599999999998  1.0000
  H   H74       1.0  0.32562999999999986  0.7120300000000002  0.96029  1.0000
  H   H75       1.0  0.19011  0.73708  0.88863  1.0000
  H   H76       1.0  0.21900999999999995  0.8359  0.8879700000000001  1.0000
  H   H77       1.0  0.28448  0.64904  0.18987999999999994  1.0000
  H   H78       1.0  0.32569  0.73798  0.1065  1.0000
  H   H79       1.0  0.28989  0.83498  0.11220999999999999  1.0000
  H   H80       1.0  0.31443  0.91353  0.90462  1.0000
  H   H81       1.0  0.75296  0.46602  0.73827  1.0000
  H   H82       1.0  0.03131  0.34595  0.9665700000000002  1.0000
  H   H83       1.0  0.17747  0.80108  0.02293  1.0000
  H   H84       1.0  0.20033  0.70113  0.02683  1.0000
  H   H85       1.0  0.3652799999999999  0.63212  0.70381  1.0000
  H   H86       1.0  0.6408  0.55863  0.70665  1.0000
  H   H87       1.0  0.99267  0.40806000000000003  0.84962  1.0000
  H   H88       1.0  0.64776  0.05501000000000002  0.7864199999999999  1.0000
  H   H89       1.0  0.7658099999999998  0.96438  0.76194  1.0000
  H   H90       1.0  0.80707  0.006469999999999999  0.54442  1.0000
  H   H91       1.0  0.78701  0.51839  0.9577899999999999  1.0000
  H   H92       1.0  0.50466  0.06985  0.8364  1.0000
  H   H93       1.0  0.19088  0.90507  0.09255  1.0000
  H   H94       1.0  0.72923  0.72582  0.8684399999999999  1.0000
  H   H95       1.0  0.74107  0.21101  0.6294199999999999  1.0000
  H   H96       1.0  0.5518  0.96166  0.74829  1.0000
  H   H97       1.0  0.23491999999999993  0.64678  0.80379  1.0000
  H   H98       1.0  0.84689  0.63627  0.89618  1.0000
  H   H99       1.0  0.11147999999999997  0.02712  0.07902  1.0000
  H   H100      1.0  0.86201  0.12363  0.60732  1.0000
  H   H101      1.0  0.003059999999999998  0.8904700000000001  0.6536199999999999  1.0000
  H   H102      1.0  0.82586  0.45607  0.07415  1.0000
  H   H103      1.0  0.38466  0.04195  0.91844  1.0000
  H   H104      1.0  0.14938  0.63073  0.28275  1.0000
  H   H105      1.0  0.84785  0.94001  0.42631999999999987  1.0000
  H   H106      1.0  0.94018  0.9429  0.23751  1.0000
  H   H107      1.0  0.9845699999999998  0.05015  0.15467  1.0000
  H   H108      1.0  0.04252  0.8227  0.53496  1.0000
  H   H109      1.0  0.16785  0.31378  0.47555  1.0000
  H   H110      1.0  0.1744  0.21195  0.46025000000000005  1.0000
  H   H111      1.0  0.3097899999999999  0.23667  0.38871  1.0000
  H   H112      1.0  0.28089  0.33556  0.3879  1.0000
  H   H113      1.0  0.21556  0.14932  0.69017  1.0000
  H   H114      1.0  0.17421999999999996  0.23817000000000002  0.60656  1.0000
  H   H115      1.0  0.20995999999999995  0.33513  0.61218  1.0000
  H   H116      1.0  0.18561  0.41327  0.40398  1.0000
  H   H117      1.0  0.74754  0.9659800000000001  0.23934  1.0000
  H   H118      1.0  0.4685899999999999  0.84551  0.46643999999999997  1.0000
  H   H119      1.0  0.3224  0.30095  0.52311  1.0000
  H   H120      1.0  0.29961  0.20104  0.52712  1.0000
  H   H121      1.0  0.13517  0.13172  0.20357  1.0000
  H   H122      1.0  0.85836  0.06010000000000001  0.20779999999999998  1.0000
  H   H123      1.0  0.50707  0.90764  0.34952  1.0000
  H   H124      1.0  0.85248  0.55521  0.28652  1.0000
  H   H125      1.0  0.73433  0.46481  0.26246  1.0000
  H   H126      1.0  0.69312  0.50646  0.04474  1.0000
  H   H127      1.0  0.71266  0.01757  0.45801  1.0000
  H   H128      1.0  0.99479  0.5694800000000001  0.3359  1.0000
  H   H129      1.0  0.3086299999999999  0.4051700000000001  0.59266  1.0000
  H   H130      1.0  0.76811  0.22584  0.37005  1.0000
  H   H131      1.0  0.7584999999999998  0.71091  0.12919  1.0000
  H   H132      1.0  0.9469799999999998  0.46088  0.24853999999999998  1.0000
  H   H133      1.0  0.26575  0.14688  0.30343  1.0000
  H   H134      1.0  0.65164  0.13523  0.39745  1.0000
  H   H135      1.0  0.38792  0.52712  0.5790799999999999  1.0000
  H   H136      1.0  0.63763  0.6237400000000001  0.10744999999999999  1.0000
  H   H137      1.0  0.49738  0.39066  0.15361  1.0000
  H   H138      1.0  0.67398  0.95523  0.57436  1.0000
  H   H139      1.0  0.11537  0.54185  0.41758  1.0000
  H   H140      1.0  0.35088  0.13086  0.78296  1.0000
  H   H141      1.0  0.65241  0.44040999999999997  0.92651  1.0000
  H   H142      1.0  0.55975  0.44272  0.73745  1.0000
  H   H143      1.0  0.51495  0.55012  0.65472  1.0000
  H   H144      1.0  0.4577999999999999  0.32312  0.034679999999999996  1.0000
  C   C1        1.0  0.6456799999999998  0.71564  0.31264  1.0000
  C   C2        1.0  0.45025  0.14258  0.40334  1.0000
  C   C3        1.0  0.78868  0.73446  0.53491  1.0000
  C   C4        1.0  0.74303  0.72385  0.60693  1.0000
  C   C5        1.0  0.86246  0.70856  0.69733  1.0000
  C   C6        1.0  0.72975  0.81613  0.30004  1.0000
  C   C7        1.0  0.77065  0.72592  0.3973  1.0000
  C   C8        1.0  0.89769  0.63157  0.67991  1.0000
  C   C9        1.0  0.1152  0.7958  0.73239  1.0000
  C   C10       1.0  0.17971  0.8523200000000001  0.71199  1.0000
  C   C11       1.0  0.18655  0.36246  0.7920299999999999  1.0000
  C   C12       1.0  0.4034699999999999  0.54653  0.89433  1.0000
  C   C13       1.0  0.4697599999999999  0.66099  0.0986  1.0000
  C   C14       1.0  0.3046699999999999  0.9549000000000001  0.67876  1.0000
  C   C15       1.0  0.38836  0.03393  0.60249  1.0000
  C   C16       1.0  0.86802  0.5751200000000001  0.62875  1.0000
  C   C17       1.0  0.2471  0.97739  0.7320199999999999  1.0000
  C   C18       1.0  0.47849  0.11634000000000003  0.53566  1.0000
  C   C19       1.0  0.72834  0.74042  0.47122  1.0000
  C   C20       1.0  0.3185699999999999  0.46239  0.81833  1.0000
  C   C21       1.0  0.6062399999999998  0.64203  0.3295  1.0000
  C   C22       1.0  0.84924  0.8211099999999999  0.75775  1.0000
  C   C23       1.0  0.44779999999999986  0.62178  0.02733  1.0000
  C   C24       1.0  0.1856  0.92531  0.7492499999999999  1.0000
  C   C25       1.0  0.45754  0.08188  0.60063  1.0000
  C   C26       1.0  0.19372  0.4315  0.75386  1.0000
  C   C27       1.0  0.25923  0.48190999999999995  0.7672  1.0000
  C   C28       1.0  0.3586  0.53299  0.9576499999999999  1.0000
  C   C29       1.0  0.34063  0.01985  0.5398  1.0000
  C   C30       1.0  0.97454  0.48719  0.66582  1.0000
  C   C31       1.0  0.63478  0.58595  0.37729  1.0000
  C   C32       1.0  0.43077  0.10356  0.47220999999999996  1.0000
  C   C33       1.0  0.23685999999999993  0.83157  0.6574299999999997  1.0000
  C   C34       1.0  0.24696  0.34373  0.84288  1.0000
  C   C35       1.0  0.0012099999999999995  0.54651  0.7149199999999999  1.0000
  C   C36       1.0  0.7854  0.81541  0.70857  1.0000
  C   C37       1.0  0.30052  0.88206  0.6412899999999999  1.0000
  C   C38       1.0  0.59046  0.51699  0.38415  1.0000
  C   C39       1.0  0.3136799999999999  0.39292000000000005  0.85571  1.0000
  C   C40       1.0  0.46974  0.5984  0.89663  1.0000
  C   C41       1.0  0.36232999999999993  0.05466  0.47507  1.0000
  C   C42       1.0  0.9072399999999998  0.50266  0.62173  1.0000
  C   C43       1.0  0.66356  0.82342  0.25407  1.0000
  C   C44       1.0  0.38138  0.5702  0.023649999999999997  1.0000
  C   C45       1.0  0.49439999999999995  0.56294  0.29704  1.0000
  C   C46       1.0  0.51938  0.50433  0.34312  1.0000
  C   C47       1.0  0.49150999999999995  0.63582  0.96287  1.0000
  C   C48       1.0  0.11772  0.30708  0.77645  1.0000
  C   C49       1.0  0.85435  0.21564000000000003  0.81266  1.0000
  C   C50       1.0  0.049899999999999986  0.64145  0.9031299999999999  1.0000
  C   C51       1.0  0.71139  0.23436  0.03484  1.0000
  C   C52       1.0  0.75707  0.22357  0.10689  1.0000
  C   C53       1.0  0.63809  0.20796  0.19736  1.0000
  C   C54       1.0  0.77021  0.31632  0.80025  1.0000
  C   C55       1.0  0.7294899999999997  0.22603  0.89734  1.0000
  C   C56       1.0  0.60302  0.13093  0.17995  1.0000
  C   C57       1.0  0.38740999999999987  0.29697  0.23411  1.0000
  C   C58       1.0  0.3224399999999999  0.35308  0.2132  1.0000
  C   C59       1.0  0.31348  0.86252  0.29183  1.0000
  C   C60       1.0  0.09628  0.04666  0.3944  1.0000
  C   C61       1.0  0.030639999999999997  0.16147  0.59856  1.0000
  C   C62       1.0  0.19598999999999994  0.45453  0.17946  1.0000
  C   C63       1.0  0.11192999999999997  0.53322  0.1026  1.0000
  C   C64       1.0  0.63228  0.07471000000000001  0.12837  1.0000
  C   C65       1.0  0.2532099999999999  0.4775  0.23294  1.0000
  C   C66       1.0  0.02166  0.61582  0.03559  1.0000
  C   C67       1.0  0.77178  0.24036999999999997  0.97133  1.0000
  C   C68       1.0  0.18138  0.9625100000000001  0.31849  1.0000
  C   C69       1.0  0.89392  0.14201  0.82948  1.0000
  C   C70       1.0  0.65067  0.3207  0.25761  1.0000
  C   C71       1.0  0.05201  0.12217000000000001  0.52735  1.0000
  C   C72       1.0  0.3155  0.42611  0.25031  1.0000
  C   C73       1.0  0.04271  0.58133  0.1006  1.0000
  C   C74       1.0  0.30613  0.9317000000000001  0.25393  1.0000
  C   C75       1.0  0.24065999999999996  0.9821700000000001  0.26748  1.0000
  C   C76       1.0  0.14118  0.03303  0.45777  1.0000
  C   C77       1.0  0.15965  0.51906  0.03999  1.0000
  C   C78       1.0  0.52607  0.9867200000000002  0.16551  1.0000
  C   C79       1.0  0.86559  0.08597  0.8773099999999999  1.0000
  C   C80       1.0  0.06938  0.60286  0.9722499999999998  1.0000
  C   C81       1.0  0.26526  0.33166  0.15878999999999996  1.0000
  C   C82       1.0  0.25328  0.8437000000000001  0.34275  1.0000
  C   C83       1.0  0.49981  0.04583  0.21504  1.0000
  C   C84       1.0  0.71433  0.31524  0.20832  1.0000
  C   C85       1.0  0.20094  0.38152  0.14245  1.0000
  C   C86       1.0  0.90999  0.01696  0.88419  1.0000
  C   C87       1.0  0.18653  0.89293  0.35574999999999996  1.0000
  C   C88       1.0  0.02993  0.09858  0.39662  1.0000
  C   C89       1.0  0.13785  0.55386  0.97522  1.0000
  C   C90       1.0  0.59302  0.0023599999999999993  0.12121  1.0000
  C   C91       1.0  0.83626  0.32354999999999995  0.7542299999999997  1.0000
  C   C92       1.0  0.11838999999999997  0.07039  0.5237  1.0000
  C   C93       1.0  0.0057599999999999995  0.06282  0.7969999999999999  1.0000
  C   C94       1.0  0.9809699999999999  0.00426  0.84312  1.0000
  C   C95       1.0  0.00818  0.13612  0.46284  1.0000
  C   C96       1.0  0.38238  0.80726  0.276  1.0000
  C   C97       1.0  0.14565999999999996  0.78436  0.18735  1.0000
  C   C98       1.0  0.95011  0.35856  0.09688  1.0000
  C   C99       1.0  0.28860999999999987  0.76564  0.96516  1.0000
  C   C100      1.0  0.24293  0.77643  0.8931099999999998  1.0000
  C   C101      1.0  0.36191  0.79204  0.80264  1.0000
  C   C102      1.0  0.22979999999999995  0.68368  0.19976  1.0000
  C   C103      1.0  0.27051  0.7739700000000002  0.10266  1.0000
  C   C104      1.0  0.39698  0.8690700000000002  0.82006  1.0000
  C   C105      1.0  0.6125899999999999  0.7030300000000002  0.76589  1.0000
  C   C106      1.0  0.67757  0.64693  0.7868099999999999  1.0000
  C   C107      1.0  0.68652  0.13748  0.70818  1.0000
  C   C108      1.0  0.90373  0.95335  0.6055999999999999  1.0000
  C   C109      1.0  0.96936  0.83853  0.4014399999999999  1.0000
  C   C110      1.0  0.8040199999999997  0.54548  0.82054  1.0000
  C   C111      1.0  0.88808  0.46679  0.8974  1.0000
  C   C112      1.0  0.36772  0.92529  0.87163  1.0000
  C   C113      1.0  0.74679  0.5225100000000001  0.7670599999999999  1.0000
  C   C114      1.0  0.9783399999999999  0.38419  0.9644099999999999  1.0000
  C   C115      1.0  0.22823  0.75963  0.028669999999999998  1.0000
  C   C116      1.0  0.81863  0.03749  0.68151  1.0000
  C   C117      1.0  0.10608  0.8579900000000001  0.17052  1.0000
  C   C118      1.0  0.34933  0.6793  0.74239  1.0000
  C   C119      1.0  0.94799  0.8778300000000001  0.47264999999999996  1.0000
  C   C120      1.0  0.6845  0.57389  0.74969  1.0000
  C   C121      1.0  0.95729  0.41867  0.8994000000000001  1.0000
  C   C122      1.0  0.69387  0.0683  0.74607  1.0000
  C   C123      1.0  0.75934  0.01783  0.73253  1.0000
  C   C124      1.0  0.85883  0.96697  0.5422299999999999  1.0000
  C   C125      1.0  0.84035  0.4809399999999999  0.9600099999999999  1.0000
  C   C126      1.0  0.47393  0.013280000000000002  0.83449  1.0000
  C   C127      1.0  0.13442  0.91403  0.12269  1.0000
  C   C128      1.0  0.93063  0.39714  0.02775  1.0000
  C   C129      1.0  0.73474  0.66835  0.8412099999999999  1.0000
  C   C130      1.0  0.7467199999999998  0.15630000000000002  0.65725  1.0000
  C   C131      1.0  0.5002  0.9541799999999999  0.78496  1.0000
  C   C132      1.0  0.28567  0.68477  0.79168  1.0000
  C   C133      1.0  0.79907  0.61848  0.85755  1.0000
  C   C134      1.0  0.09001999999999998  0.98304  0.11582  1.0000
  C   C135      1.0  0.8134699999999998  0.10707  0.64425  1.0000
  C   C136      1.0  0.9700699999999998  0.90143  0.60339  1.0000
  C   C137      1.0  0.86215  0.44615  0.02478  1.0000
  C   C138      1.0  0.40698  0.9976399999999999  0.8788  1.0000
  C   C139      1.0  0.16374  0.67645  0.24577  1.0000
  C   C140      1.0  0.8816199999999997  0.92961  0.47629999999999995  1.0000
  C   C141      1.0  0.9942399999999999  0.9371900000000001  0.20300999999999997  1.0000
  C   C142      1.0  0.01904  0.9957400000000001  0.15688  1.0000
  C   C143      1.0  0.9918199999999999  0.86388  0.53716  1.0000
  C   C144      1.0  0.61763  0.19275  0.724  1.0000
  C   C145      1.0  0.35432  0.28436  0.68737  1.0000
  C   C146      1.0  0.5497499999999997  0.85742  0.59666  1.0000
  C   C147      1.0  0.21131999999999995  0.26554  0.4651  1.0000
  C   C148      1.0  0.25698  0.27615  0.39307  1.0000
  C   C149      1.0  0.13754  0.29144  0.30268  1.0000
  C   C150      1.0  0.27026  0.18387  0.69996  1.0000
  C   C151      1.0  0.22935  0.27408  0.6026999999999999  1.0000
  C   C152      1.0  0.10231  0.36844  0.32009  1.0000
  C   C153      1.0  0.8848  0.20421  0.26761  1.0000
  C   C154      1.0  0.8202899999999997  0.14769  0.28801  1.0000
  C   C155      1.0  0.8134499999999998  0.63754  0.20797  1.0000
  C   C156      1.0  0.59653  0.45347  0.10567  1.0000
  C   C157      1.0  0.53025  0.33901  0.9014  1.0000
  C   C158      1.0  0.6953299999999998  0.04510000000000001  0.32124  1.0000
  C   C159      1.0  0.61165  0.96607  0.39751  1.0000
  C   C160      1.0  0.13198  0.42489  0.37125  1.0000
  C   C161      1.0  0.7529  0.02261  0.26798  1.0000
  C   C162      1.0  0.52152  0.8836600000000001  0.4643399999999999  1.0000
  C   C163      1.0  0.27166  0.25958  0.52879  1.0000
  C   C164      1.0  0.68143  0.53762  0.18168  1.0000
  C   C165      1.0  0.39376  0.35797  0.6705  1.0000
  C   C166      1.0  0.15077  0.17889  0.24224999999999997  1.0000
  C   C167      1.0  0.5522  0.37822  0.97267  1.0000
  C   C168      1.0  0.8144099999999997  0.07469  0.25075  1.0000
  C   C169      1.0  0.54247  0.91812  0.39938  1.0000
  C   C170      1.0  0.80628  0.5685  0.24614  1.0000
  C   C171      1.0  0.74077  0.5181  0.2328  1.0000
  C   C172      1.0  0.64141  0.46701  0.04235  1.0000
  C   C173      1.0  0.65938  0.98015  0.4602  1.0000
  C   C174      1.0  0.025459999999999993  0.51282  0.33418  1.0000
  C   C175      1.0  0.3652199999999999  0.41406  0.6227099999999998  1.0000
  C   C176      1.0  0.56923  0.89644  0.52779  1.0000
  C   C177      1.0  0.76314  0.16843000000000002  0.34257  1.0000
  C   C178      1.0  0.75304  0.65627  0.15712  1.0000
  C   C179      1.0  0.99879  0.45349  0.28508  1.0000
  C   C180      1.0  0.2146  0.18459  0.29143  1.0000
  C   C181      1.0  0.69948  0.11794  0.35871  1.0000
  C   C182      1.0  0.40954  0.48301000000000005  0.61585  1.0000
  C   C183      1.0  0.6863299999999998  0.60709  0.14429  1.0000
  C   C184      1.0  0.53026  0.4016  0.10337  1.0000
  C   C185      1.0  0.63767  0.9453399999999998  0.52493  1.0000
  C   C186      1.0  0.09275999999999997  0.49734000000000006  0.37826999999999994  1.0000
  C   C187      1.0  0.33645  0.17657999999999996  0.74593  1.0000
  C   C188      1.0  0.61863  0.4298  0.97635  1.0000
  C   C189      1.0  0.5056  0.43707000000000007  0.70296  1.0000
  C   C190      1.0  0.4806299999999999  0.49567  0.65688  1.0000
  C   C191      1.0  0.50849  0.36418  0.03713  1.0000
  C   C192      1.0  0.88229  0.69292  0.22355  1.0000
  N   N1        1.0  0.7942299999999998  0.74454  0.67068  1.0000
  N   N2        1.0  0.71795  0.7482  0.3367  1.0000
  N   N3        1.0  0.96445  0.61641  0.7214  1.0000
  N   N4        1.0  0.53613  0.62959  0.29087  1.0000
  N   N5        1.0  0.6124  0.76145  0.26248  1.0000
  N   N6        1.0  0.89598  0.75502  0.75039  1.0000
  N   N7        1.0  0.70592  0.24424000000000004  0.17058  1.0000
  N   N8        1.0  0.7821299999999998  0.24831000000000003  0.8368199999999999  1.0000
  N   N9        1.0  0.53666  0.11557  0.22167999999999996  1.0000
  N   N10       1.0  0.96395  0.12951  0.7908  1.0000
  N   N11       1.0  0.88744  0.26144  0.76252  1.0000
  N   N12       1.0  0.60451  0.25435  0.25041  1.0000
  N   N13       1.0  0.29409  0.75576  0.82942  1.0000
  N   N14       1.0  0.21787999999999993  0.75169  0.16318  1.0000
  N   N15       1.0  0.46335  0.8844300000000003  0.77832  1.0000
  N   N16       1.0  0.03605  0.87049  0.2092  1.0000
  N   N17       1.0  0.11256  0.73856  0.23747999999999997  1.0000
  N   N18       1.0  0.3954899999999999  0.74565  0.74959  1.0000
  N   N19       1.0  0.20578  0.25546  0.32932  1.0000
  N   N20       1.0  0.28206  0.2518  0.6632999999999998  1.0000
  N   N21       1.0  0.03555  0.38359  0.27859999999999996  1.0000
  N   N22       1.0  0.46388  0.37041  0.70913  1.0000
  N   N23       1.0  0.3876  0.23855  0.73752  1.0000
  N   N24       1.0  0.10402  0.24498  0.24961  1.0000
  O   O1        1.0  0.51593  0.18372  0.39977  1.0000
  O   O2        1.0  0.3700999999999999  0.00534  0.67022  1.0000
  O   O3        1.0  0.40157  0.13616  0.34852  1.0000
  O   O4        1.0  0.07465  0.81255  0.79222  1.0000
  O   O5        1.0  0.38528  0.51254  0.82617  1.0000
  O   O6        1.0  0.10264  0.73458  0.6932999999999999  1.0000
  O   O7        1.0  0.5309599999999998  0.70692  0.10406  1.0000
  O   O8        1.0  0.4250499999999999  0.64806  0.15514  1.0000
  O   O9        1.0  0.06722  0.32452999999999993  0.7245999999999999  1.0000
  O   O10       1.0  0.11076  0.24564000000000002  0.81139  1.0000
  O   O11       1.0  0.9847699999999999  0.68365  0.8996  1.0000
  O   O12       1.0  0.13009  0.50447  0.17037  1.0000
  O   O13       1.0  0.09812  0.63334  0.8482499999999997  1.0000
  O   O14       1.0  0.4286299999999999  0.31429  0.2932  1.0000
  O   O15       1.0  0.11454  0.01262  0.32622  1.0000
  O   O16       1.0  0.3999799999999999  0.23477  0.19611  1.0000
  O   O17       1.0  0.9693199999999997  0.20752000000000004  0.6042  1.0000
  O   O18       1.0  0.0753  0.14829  0.65509  1.0000
  O   O19       1.0  0.43263  0.82451  0.22404999999999997  1.0000
  O   O20       1.0  0.38944  0.74578  0.31117  1.0000
  O   O21       1.0  0.015229999999999999  0.31635  0.10041  1.0000
  O   O22       1.0  0.86991  0.49553  0.82963  1.0000
  O   O23       1.0  0.90188  0.36666  0.15175  1.0000
  O   O24       1.0  0.57137  0.68571  0.70681  1.0000
  O   O25       1.0  0.88546  0.9873800000000001  0.67378  1.0000
  O   O26       1.0  0.6000299999999997  0.76524  0.80389  1.0000
  O   O27       1.0  0.030679999999999995  0.79248  0.3958  1.0000
  O   O28       1.0  0.9247  0.85171  0.34490999999999994  1.0000
  O   O29       1.0  0.56737  0.17549  0.77595  1.0000
  O   O30       1.0  0.61056  0.25422  0.68883  1.0000
  O   O31       1.0  0.48407  0.81629  0.60023  1.0000
  O   O32       1.0  0.6299  0.99466  0.32978  1.0000
  O   O33       1.0  0.59843  0.86384  0.65148  1.0000
  O   O34       1.0  0.92536  0.18745  0.20778  1.0000
  O   O35       1.0  0.61472  0.48746  0.17384  1.0000
  O   O36       1.0  0.89737  0.26543  0.3067  1.0000
  O   O37       1.0  0.46904  0.29308999999999996  0.89594  1.0000
  O   O38       1.0  0.57495  0.35194  0.84486  1.0000
  O   O39       1.0  0.93278  0.67548  0.27540999999999993  1.0000
  O   O40       1.0  0.8892399999999998  0.75436  0.18861  1.0000
