data_image0
_chemical_formula_structural       Co10H136C212N16O38
_chemical_formula_sum              "Co10 H136 C212 N16 O38"
_cell_length_a       16.2581
_cell_length_b       16.25537
_cell_length_c       29.86259
_cell_angle_alpha    72.82892
_cell_angle_beta     72.86405
_cell_angle_gamma    62.81113

_symmetry_space_group_name_H-M    'P 1'
_symmetry_Int_Tables_number       1

loop_
  _symmetry_equiv_pos_as_xyz
  'x,y,z'

loop_
  _atom_site_type_symbol
  _atom_site_label
  _atom_site_symmetry_multiplicity
  _atom_site_fract_x
  _atom_site_fract_y
  _atom_site_fract_z
  _atom_site_occupancy
  Co  Co1       1.0  0.87611  0.20720999999999998  0.4865  1.0000
  Co  Co2       1.0  0.17751000000000006  0.95216  0.4194  1.0000
  Co  Co3       1.0  0.79315  0.12408  0.0127  1.0000
  Co  Co4       1.0  0.04610999999999999  0.81913  0.08253  1.0000
  Co  Co5       1.0  0.12399999999999994  0.79308  0.51266  1.0000
  Co  Co6       1.0  0.81902  0.046469999999999984  0.58252  1.0000
  Co  Co7       1.0  0.20703999999999978  0.8760199999999999  0.9864700000000002  1.0000
  Co  Co8       1.0  0.9521799999999999  0.17752000000000012  0.91936  1.0000
  Co  Co9       1.0  0.99921  0.006239999999999997  0.49925  1.0000
  Co  Co10      1.0  0.006140000000000015  0.9992  0.99921  1.0000
  H   H1        1.0  0.98686  0.2709800000000001  0.39218  1.0000
  H   H2        1.0  0.95972  0.35536  0.30961  1.0000
  H   H3        1.0  0.6618799999999999  0.45603000000000005  0.36733  1.0000
  H   H4        1.0  0.70169  0.36656999999999995  0.4467100000000001  1.0000
  H   H5        1.0  0.8914600000000001  0.5192899999999999  0.26468  1.0000
  H   H6        1.0  0.7025699999999999  0.62737  0.16557  1.0000
  H   H7        1.0  0.6725300000000001  0.42085  0.29048  1.0000
  H   H8        1.0  0.9914  0.51664  0.17521  1.0000
  H   H9        1.0  0.07787  0.61479  0.12365  1.0000
  H   H10       1.0  0.83724  0.86006  0.1298  1.0000
  H   H11       1.0  0.7373400000000001  0.77176  0.17755000000000007  1.0000
  H   H12       1.0  0.5384199999999999  0.6048200000000001  0.13597  1.0000
  H   H13       1.0  0.30319  0.83158  0.19782  1.0000
  H   H14       1.0  0.50853  0.61643  0.28128  1.0000
  H   H15       1.0  0.43477000000000005  0.62495  0.09575000000000003  1.0000
  H   H16       1.0  0.35806  0.69  0.025180000000000004  1.0000
  H   H17       1.0  0.23602  0.9601900000000001  0.05229  1.0000
  H   H18       1.0  0.30779  0.90743  0.12419  1.0000
  H   H19       1.0  0.21277000000000001  0.86018  0.26169  1.0000
  H   H20       1.0  0.13072000000000011  0.93606  0.33238  1.0000
  H   H21       1.0  0.3645500000000001  0.7873099999999998  0.39594000000000007  1.0000
  H   H22       1.0  0.45957  0.71016  0.32679  1.0000
  H   H23       1.0  0.2713400000000001  0.037840000000000006  0.47172  1.0000
  H   H24       1.0  0.40475  0.08867000000000001  0.44943  1.0000
  H   H25       1.0  0.20805  0.37866999999999995  0.43034  1.0000
  H   H26       1.0  0.07431999999999996  0.3267700000000001  0.45228  1.0000
  H   H27       1.0  0.40396999999999983  0.16503  0.5113  1.0000
  H   H28       1.0  0.54286  0.12102000000000003  0.54724  1.0000
  H   H29       1.0  0.66011  0.2698900000000001  0.4208  1.0000
  H   H30       1.0  0.5256500000000003  0.30772  0.38252  1.0000
  H   H31       1.0  0.9547599999999999  0.8828899999999998  0.70189  1.0000
  H   H32       1.0  0.05252999999999986  0.8174199999999999  0.7657100000000002  1.0000
  H   H33       1.0  0.3018799999999999  0.78471  0.65787  1.0000
  H   H34       1.0  0.20282999999999993  0.8496500000000001  0.59411  1.0000
  H   H35       1.0  0.72995  0.011729999999999999  0.10897  1.0000
  H   H36       1.0  0.64528  0.03943000000000001  0.19162  1.0000
  H   H37       1.0  0.54375  0.33713  0.13314  1.0000
  H   H38       1.0  0.63346  0.29659  0.05389  1.0000
  H   H39       1.0  0.48046000000000005  0.10799000000000002  0.236  1.0000
  H   H40       1.0  0.37233999999999995  0.29747  0.33476  1.0000
  H   H41       1.0  0.57911  0.32687999999999995  0.21001000000000006  1.0000
  H   H42       1.0  0.48297999999999996  0.008170000000000007  0.32517  1.0000
  H   H43       1.0  0.38487000000000005  0.92104  0.3757  1.0000
  H   H44       1.0  0.13963000000000003  0.16165999999999997  0.3698  1.0000
  H   H45       1.0  0.22769999999999996  0.26207  0.32291000000000003  1.0000
  H   H46       1.0  0.39565999999999996  0.46155  0.36412  1.0000
  H   H47       1.0  0.16856  0.69676  0.30234  1.0000
  H   H48       1.0  0.38331  0.4913699999999999  0.21894  1.0000
  H   H49       1.0  0.3764899999999999  0.56534  0.4036300000000001  1.0000
  H   H50       1.0  0.31241  0.64036  0.47473  1.0000
  H   H51       1.0  0.04119999999999993  0.76127  0.44897  1.0000
  H   H52       1.0  0.09309000000000009  0.69095  0.37664  1.0000
  H   H53       1.0  0.1389899999999998  0.7870200000000002  0.23861  1.0000
  H   H54       1.0  0.06242000000000006  0.86862  0.1681  1.0000
  H   H55       1.0  0.21198000000000006  0.63497  0.10446  1.0000
  H   H56       1.0  0.2904  0.54047  0.17332  1.0000
  H   H57       1.0  0.96322  0.72903  0.02689  1.0000
  H   H58       1.0  0.91223  0.5959  0.048340000000000015  1.0000
  H   H59       1.0  0.62252  0.79289  0.06824  1.0000
  H   H60       1.0  0.67463  0.92628  0.04723  1.0000
  H   H61       1.0  0.8375299999999998  0.59373  0.98713  1.0000
  H   H62       1.0  0.8815699999999996  0.45371999999999996  0.95229  1.0000
  H   H63       1.0  0.72954  0.34033  0.07919000000000001  1.0000
  H   H64       1.0  0.69173  0.47623999999999994  0.11603000000000002  1.0000
  H   H65       1.0  0.11589  0.046219999999999886  0.7977500000000002  1.0000
  H   H66       1.0  0.1811899999999999  0.9484700000000001  0.73397  1.0000
  H   H67       1.0  0.2167599999999999  0.6985900000000002  0.8420000000000002  1.0000
  H   H68       1.0  0.15243000000000004  0.7975  0.9057100000000002  1.0000
  H   H69       1.0  0.011740000000000007  0.72984  0.60882  1.0000
  H   H70       1.0  0.03944000000000004  0.64522  0.69153  1.0000
  H   H71       1.0  0.33704999999999996  0.5437299999999998  0.6331600000000002  1.0000
  H   H72       1.0  0.29644  0.63345  0.55385  1.0000
  H   H73       1.0  0.10788999999999996  0.48056  0.7359800000000001  1.0000
  H   H74       1.0  0.29747000000000007  0.37216999999999995  0.83476  1.0000
  H   H75       1.0  0.3268900000000001  0.57899  0.70995  1.0000
  H   H76       1.0  0.008189999999999987  0.48315  0.82519  1.0000
  H   H77       1.0  0.92102  0.3850799999999999  0.87574  1.0000
  H   H78       1.0  0.16138000000000002  0.13965000000000002  0.86991  1.0000
  H   H79       1.0  0.26183  0.22763  0.82298  1.0000
  H   H80       1.0  0.4615099999999998  0.3954599999999999  0.8641  1.0000
  H   H81       1.0  0.6969000000000001  0.16862000000000002  0.80236  1.0000
  H   H82       1.0  0.4912700000000001  0.38319  0.71892  1.0000
  H   H83       1.0  0.56527  0.37655  0.90362  1.0000
  H   H84       1.0  0.6403799999999998  0.31250999999999995  0.9747300000000002  1.0000
  H   H85       1.0  0.7614699999999999  0.04119999999999999  0.94909  1.0000
  H   H86       1.0  0.6910499999999999  0.09301999999999994  0.8767500000000003  1.0000
  H   H87       1.0  0.7869399999999999  0.13906999999999994  0.7386900000000001  1.0000
  H   H88       1.0  0.86867  0.06264999999999998  0.6681800000000001  1.0000
  H   H89       1.0  0.63512  0.21218  0.6044  1.0000
  H   H90       1.0  0.54053  0.2904099999999999  0.6732200000000003  1.0000
  H   H91       1.0  0.7290699999999999  0.96321  0.527  1.0000
  H   H92       1.0  0.59599  0.9122300000000001  0.54842  1.0000
  H   H93       1.0  0.7929600000000002  0.6223999999999997  0.56831  1.0000
  H   H94       1.0  0.92629  0.67457  0.54727  1.0000
  H   H95       1.0  0.59363  0.83748  0.48726  1.0000
  H   H96       1.0  0.4536600000000001  0.8813900000000001  0.4524  1.0000
  H   H97       1.0  0.34043000000000007  0.7294  0.57938  1.0000
  H   H98       1.0  0.4761799999999999  0.69185  0.61628  1.0000
  H   H99       1.0  0.046119999999999974  0.11594  0.29776  1.0000
  H   H100      1.0  0.94823  0.18113  0.23397000000000004  1.0000
  H   H101      1.0  0.69864  0.21648  0.34206  1.0000
  H   H102      1.0  0.7977500000000001  0.15237  0.40571  1.0000
  H   H103      1.0  0.27107999999999993  0.9868000000000001  0.89213  1.0000
  H   H104      1.0  0.35545999999999994  0.95972  0.80961  1.0000
  H   H105      1.0  0.4559999999999999  0.6617099999999998  0.8674200000000002  1.0000
  H   H106      1.0  0.3664799999999999  0.70151  0.94674  1.0000
  H   H107      1.0  0.5193899999999998  0.8913699999999999  0.7648  1.0000
  H   H108      1.0  0.62701  0.70301  0.66552  1.0000
  H   H109      1.0  0.4207599999999999  0.6725799999999998  0.7904000000000002  1.0000
  H   H110      1.0  0.51668  0.9916599999999999  0.6752600000000001  1.0000
  H   H111      1.0  0.6148099999999999  0.07817000000000003  0.62378  1.0000
  H   H112      1.0  0.85995  0.8373899999999999  0.6300000000000002  1.0000
  H   H113      1.0  0.7716699999999995  0.73745  0.6776800000000002  1.0000
  H   H114      1.0  0.6044399999999996  0.53859  0.63584  1.0000
  H   H115      1.0  0.8313999999999999  0.30352000000000007  0.69775  1.0000
  H   H116      1.0  0.61617  0.50871  0.78113  1.0000
  H   H117      1.0  0.6248199999999999  0.43468  0.59559  1.0000
  H   H118      1.0  0.6901700000000001  0.3578100000000001  0.52511  1.0000
  H   H119      1.0  0.9601399999999999  0.23639999999999997  0.55238  1.0000
  H   H120      1.0  0.90717  0.30834  0.62421  1.0000
  H   H121      1.0  0.85993  0.21292  0.76168  1.0000
  H   H122      1.0  0.93589  0.13083  0.8324000000000001  1.0000
  H   H123      1.0  0.78737  0.3647599999999999  0.8958200000000001  1.0000
  H   H124      1.0  0.7101299999999999  0.45981  0.8266200000000001  1.0000
  H   H125      1.0  0.03803999999999992  0.27129999999999993  0.97168  1.0000
  H   H126      1.0  0.08888999999999991  0.4047399999999998  0.9494000000000002  1.0000
  H   H127      1.0  0.37873999999999997  0.20801000000000003  0.93026  1.0000
  H   H128      1.0  0.32688000000000006  0.07419999999999999  0.95222  1.0000
  H   H129      1.0  0.16536  0.40361  0.01125  1.0000
  H   H130      1.0  0.12124  0.54251  0.04721000000000001  1.0000
  H   H131      1.0  0.26976000000000006  0.66023  0.92084  1.0000
  H   H132      1.0  0.3078100000000002  0.5257099999999998  0.88253  1.0000
  H   H133      1.0  0.8830000000000001  0.95476  0.20175  1.0000
  H   H134      1.0  0.8174099999999999  0.05238000000000001  0.2656  1.0000
  H   H135      1.0  0.7845200000000001  0.30204  0.15777  1.0000
  H   H136      1.0  0.8496300000000001  0.20314  0.09402  1.0000
  C   C1        1.0  0.91603  0.31307  0.3848  1.0000
  C   C2        1.0  0.9002499999999997  0.36101  0.33907000000000004  1.0000
  C   C3        1.0  0.80764  0.41229  0.33097000000000004  1.0000
  C   C4        1.0  0.7351400000000001  0.41500000000000004  0.37097  1.0000
  C   C5        1.0  0.75682  0.36635  0.41554  1.0000
  C   C6        1.0  0.78466  0.46465000000000006  0.28365  1.0000
  C   C7        1.0  0.8333700000000004  0.51915  0.25372  1.0000
  C   C8        1.0  0.8039299999999999  0.57887  0.21146  1.0000
  C   C9        1.0  0.7259800000000001  0.5826799999999998  0.19846000000000005  1.0000
  C   C10       1.0  0.6813699999999999  0.52399  0.22711  1.0000
  C   C11       1.0  0.7089900000000001  0.46569999999999995  0.26942  1.0000
  C   C12       1.0  0.8564500000000002  0.63609  0.18108  1.0000
  C   C13       1.0  0.9541500000000002  0.59261  0.16581  1.0000
  C   C14       1.0  0.002930000000000026  0.6469  0.13755  1.0000
  C   C15       1.0  0.8676599999999999  0.7837  0.14  1.0000
  C   C16       1.0  0.81292  0.73412  0.16692  1.0000
  C   C17       1.0  0.52949  0.60487  0.20887000000000006  1.0000
  C   C18       1.0  0.49732  0.64031  0.16597  1.0000
  C   C19       1.0  0.4147199999999998  0.72316  0.16179  1.0000
  C   C20       1.0  0.36734999999999995  0.7681600000000001  0.20119  1.0000
  C   C21       1.0  0.3991199999999999  0.7319300000000001  0.24482000000000004  1.0000
  C   C22       1.0  0.4819  0.64899  0.24817  1.0000
  C   C23       1.0  0.37707  0.7602199999999998  0.11736000000000003  1.0000
  C   C24       1.0  0.39278  0.7002  0.08726000000000002  1.0000
  C   C25       1.0  0.3504899999999999  0.73599  0.04756000000000001  1.0000
  C   C26       1.0  0.28074000000000005  0.88664  0.06337  1.0000
  C   C27       1.0  0.32044999999999996  0.85614  0.10368  1.0000
  C   C28       1.0  0.34583  0.77783  0.28661  1.0000
  C   C29       1.0  0.25082  0.84246  0.29002  1.0000
  C   C30       1.0  0.20337  0.88441  0.32980000000000004  1.0000
  C   C31       1.0  0.33407  0.80228  0.36503  1.0000
  C   C32       1.0  0.3864699999999998  0.75866  0.3261300000000001  1.0000
  C   C33       1.0  0.08555999999999998  0.14992000000000003  0.4731  1.0000
  C   C34       1.0  0.16502000000000003  0.17941  0.46327  1.0000
  C   C35       1.0  0.25808  0.11220999999999996  0.4632900000000001  1.0000
  C   C36       1.0  0.33235  0.1404  0.45073  1.0000
  C   C37       1.0  0.31264  0.23668  0.43898  1.0000
  C   C38       1.0  0.22032  0.30460999999999994  0.4396  1.0000
  C   C39       1.0  0.14683999999999997  0.27562  0.45174  1.0000
  C   C40       1.0  0.45729000000000003  0.23897999999999994  0.44485000000000013  1.0000
  C   C41       1.0  0.46098999999999996  0.18622  0.49126  1.0000
  C   C42       1.0  0.53819  0.16260000000000002  0.51136  1.0000
  C   C43       1.0  0.61012  0.19301  0.48644  1.0000
  C   C44       1.0  0.6043899999999999  0.24625999999999995  0.4400000000000001  1.0000
  C   C45       1.0  0.52968  0.2680199999999999  0.4188100000000001  1.0000
  C   C46       1.0  0.6906200000000002  0.17226999999999998  0.50878  1.0000
  C   C47       1.0  0.014439999999999965  0.9155500000000001  0.60607  1.0000
  C   C48       1.0  0.07316999999999994  0.8712600000000001  0.64421  1.0000
  C   C49       1.0  0.03071  0.8610799999999998  0.6927  1.0000
  C   C50       1.0  0.08468999999999985  0.82432  0.7280800000000002  1.0000
  C   C51       1.0  0.18221000000000007  0.7978599999999999  0.7149500000000002  1.0000
  C   C52       1.0  0.22616000000000003  0.80494  0.667  1.0000
  C   C53       1.0  0.17122000000000004  0.84159  0.63184  1.0000
  C   C54       1.0  0.68745  0.08254999999999998  0.11630000000000003  1.0000
  C   C55       1.0  0.63941  0.09868999999999999  0.16199000000000002  1.0000
  C   C56       1.0  0.58781  0.19142999999999996  0.16977000000000003  1.0000
  C   C57       1.0  0.58498  0.26379  0.12968  1.0000
  C   C58       1.0  0.6338  0.24165  0.08521000000000001  1.0000
  C   C59       1.0  0.5352  0.21475999999999998  0.21702000000000005  1.0000
  C   C60       1.0  0.48058000000000006  0.16618000000000002  0.24689  1.0000
  C   C61       1.0  0.42073  0.19577000000000003  0.28907  1.0000
  C   C62       1.0  0.41698  0.27379  0.30195  1.0000
  C   C63       1.0  0.47582999999999986  0.31829000000000013  0.27337  1.0000
  C   C64       1.0  0.53419  0.29053  0.23112  1.0000
  C   C65       1.0  0.3635  0.14309  0.31934  1.0000
  C   C66       1.0  0.40697000000000005  0.04526999999999999  0.33441  1.0000
  C   C67       1.0  0.35255000000000003  0.99617  0.36215  1.0000
  C   C68       1.0  0.21596999999999997  0.13127999999999998  0.35975000000000007  1.0000
  C   C69       1.0  0.26547000000000015  0.18641  0.33332  1.0000
  C   C70       1.0  0.39520000000000005  0.47039  0.29135  1.0000
  C   C71       1.0  0.36006  0.50271  0.33416  1.0000
  C   C72       1.0  0.27730999999999967  0.58532  0.33827  1.0000
  C   C73       1.0  0.23204999999999995  0.63265  0.29897  1.0000
  C   C74       1.0  0.2680900000000001  0.60087  0.25534  1.0000
  C   C75       1.0  0.3510400000000001  0.5179699999999999  0.25204  1.0000
  C   C76       1.0  0.24065999999999999  0.62265  0.38275  1.0000
  C   C77       1.0  0.30127  0.60692  0.41253  1.0000
  C   C78       1.0  0.2660299999999998  0.64843  0.4524400000000001  1.0000
  C   C79       1.0  0.11477999999999995  0.7173400000000001  0.43741  1.0000
  C   C80       1.0  0.14475000000000002  0.67838  0.39691  1.0000
  C   C81       1.0  0.22195000000000004  0.6539799999999999  0.21367  1.0000
  C   C82       1.0  0.15677999999999997  0.7488500000000001  0.21034  1.0000
  C   C83       1.0  0.11428999999999997  0.7960300000000001  0.17072  1.0000
  C   C84       1.0  0.19709000000000004  0.66531  0.1354  1.0000
  C   C85       1.0  0.24133  0.61334  0.17411  1.0000
  C   C86       1.0  0.85221  0.91472  0.026120000000000004  1.0000
  C   C87       1.0  0.8219  0.83557  0.0356  1.0000
  C   C88       1.0  0.8888299999999999  0.74243  0.03524  1.0000
  C   C89       1.0  0.8604700000000001  0.66824  0.04739  1.0000
  C   C90       1.0  0.7641900000000001  0.6881299999999998  0.05915000000000001  1.0000
  C   C91       1.0  0.6965800000000001  0.78052  0.05899  1.0000
  C   C92       1.0  0.72575  0.8538  0.04732  1.0000
  C   C93       1.0  0.76171  0.54286  0.05357  1.0000
  C   C94       1.0  0.8156200000000001  0.5373  0.00748  1.0000
  C   C95       1.0  0.83935  0.45926  0.98797  1.0000
  C   C96       1.0  0.8079500000000001  0.38795  0.013210000000000003  1.0000
  C   C97       1.0  0.7539399999999998  0.39536  0.05941  1.0000
  C   C98       1.0  0.7320799999999998  0.47093  0.07994  1.0000
  C   C99       1.0  0.8284499999999999  0.30664999999999987  0.9915900000000002  1.0000
  C   C100      1.0  0.08745999999999983  0.98573  0.89346  1.0000
  C   C101      1.0  0.12959000000000007  0.9273699999999999  0.85546  1.0000
  C   C102      1.0  0.13824999999999987  0.97018  0.8069600000000001  1.0000
  C   C103      1.0  0.17481999999999975  0.9162000000000002  0.77161  1.0000
  C   C104      1.0  0.2022299999999999  0.8184799999999999  0.78485  1.0000
  C   C105      1.0  0.19591  0.77444  0.83282  1.0000
  C   C106      1.0  0.15963999999999998  0.82925  0.86795  1.0000
  C   C107      1.0  0.08254000000000002  0.68737  0.61619  1.0000
  C   C108      1.0  0.09865999999999998  0.63936  0.6619  1.0000
  C   C109      1.0  0.19139  0.58777  0.66971  1.0000
  C   C110      1.0  0.2637300000000001  0.58493  0.62964  1.0000
  C   C111      1.0  0.24155999999999986  0.63374  0.58516  1.0000
  C   C112      1.0  0.21469999999999984  0.5351900000000002  0.7169800000000001  1.0000
  C   C113      1.0  0.1661  0.4806  0.74687  1.0000
  C   C114      1.0  0.19570999999999994  0.42071999999999987  0.7890800000000001  1.0000
  C   C115      1.0  0.27376999999999985  0.41689  0.8019500000000003  1.0000
  C   C116      1.0  0.31828000000000006  0.47572999999999993  0.7733400000000001  1.0000
  C   C117      1.0  0.29048000000000007  0.53413  0.73108  1.0000
  C   C118      1.0  0.14299  0.36354  0.81938  1.0000
  C   C119      1.0  0.045219999999999906  0.40710999999999997  0.8344400000000001  1.0000
  C   C120      1.0  0.9961  0.3527199999999999  0.86219  1.0000
  C   C121      1.0  0.13108  0.21601  0.85984  1.0000
  C   C122      1.0  0.18622000000000002  0.26547999999999994  0.83338  1.0000
  C   C123      1.0  0.4703800000000001  0.39509999999999995  0.7913  1.0000
  C   C124      1.0  0.5027  0.3599300000000001  0.83413  1.0000
  C   C125      1.0  0.5853599999999998  0.2772499999999999  0.8382800000000002  1.0000
  C   C126      1.0  0.6327299999999999  0.23202  0.79897  1.0000
  C   C127      1.0  0.6008800000000001  0.26804  0.75534  1.0000
  C   C128      1.0  0.5179399999999998  0.35094999999999993  0.7520200000000002  1.0000
  C   C129      1.0  0.6227000000000001  0.24064000000000002  0.88277  1.0000
  C   C130      1.0  0.6069300000000004  0.30131  0.91253  1.0000
  C   C131      1.0  0.64846  0.26612  0.95244  1.0000
  C   C132      1.0  0.71747  0.11477999999999997  0.93749  1.0000
  C   C133      1.0  0.6784800000000001  0.14472000000000002  0.89698  1.0000
  C   C134      1.0  0.65399  0.222  0.71367  1.0000
  C   C135      1.0  0.74885  0.15686999999999995  0.7103700000000001  1.0000
  C   C136      1.0  0.7960800000000001  0.11448999999999998  0.67075  1.0000
  C   C137      1.0  0.66541  0.19726  0.63536  1.0000
  C   C138      1.0  0.6133799999999999  0.24141  0.67407  1.0000
  C   C139      1.0  0.9147699999999999  0.8521300000000002  0.52614  1.0000
  C   C140      1.0  0.83557  0.8218600000000001  0.53573  1.0000
  C   C141      1.0  0.7424699999999999  0.88879  0.53536  1.0000
  C   C142      1.0  0.66832  0.86043  0.54749  1.0000
  C   C143      1.0  0.68817  0.76414  0.55927  1.0000
  C   C144      1.0  0.7805499999999999  0.69647  0.55908  1.0000
  C   C145      1.0  0.8538299999999999  0.72567  0.5474  1.0000
  C   C146      1.0  0.5428399999999999  0.76169  0.55374  1.0000
  C   C147      1.0  0.5372399999999999  0.8155600000000001  0.50763  1.0000
  C   C148      1.0  0.4592399999999997  0.8392200000000002  0.4881100000000001  1.0000
  C   C149      1.0  0.38795000000000013  0.80784  0.51334  1.0000
  C   C150      1.0  0.3953699999999999  0.75386  0.55958  1.0000
  C   C151      1.0  0.4709200000000001  0.73209  0.58015  1.0000
  C   C152      1.0  0.30670000000000014  0.82835  0.49164  1.0000
  C   C153      1.0  0.9857400000000002  0.08759999999999996  0.39347000000000004  1.0000
  C   C154      1.0  0.9274299999999998  0.12955000000000005  0.35545  1.0000
  C   C155      1.0  0.97009  0.13822  0.30696  1.0000
  C   C156      1.0  0.91608  0.17471  0.27163  1.0000
  C   C157      1.0  0.8183999999999999  0.20205  0.28486  1.0000
  C   C158      1.0  0.7744299999999996  0.19571999999999992  0.33284000000000014  1.0000
  C   C159      1.0  0.8293499999999998  0.15955000000000005  0.36797  1.0000
  C   C160      1.0  0.31310999999999994  0.9159499999999999  0.88478  1.0000
  C   C161      1.0  0.36107999999999985  0.9001700000000001  0.83907  1.0000
  C   C162      1.0  0.41233999999999993  0.80753  0.8309900000000001  1.0000
  C   C163      1.0  0.4149799999999999  0.73501  0.87102  1.0000
  C   C164      1.0  0.36629000000000006  0.7566699999999998  0.9155700000000001  1.0000
  C   C165      1.0  0.46469999999999984  0.78457  0.78366  1.0000
  C   C166      1.0  0.5191900000000002  0.8333399999999999  0.7538  1.0000
  C   C167      1.0  0.5788299999999998  0.8040800000000001  0.71152  1.0000
  C   C168      1.0  0.5825099999999999  0.72629  0.6984400000000001  1.0000
  C   C169      1.0  0.5238300000000004  0.68161  0.72699  1.0000
  C   C170      1.0  0.46567000000000003  0.7089699999999999  0.7693500000000002  1.0000
  C   C171      1.0  0.63606  0.85663  0.68118  1.0000
  C   C172      1.0  0.5926200000000003  0.95437  0.6659  1.0000
  C   C173      1.0  0.6469100000000001  0.0031800000000000135  0.63767  1.0000
  C   C174      1.0  0.78363  0.86783  0.64017  1.0000
  C   C175      1.0  0.7340499999999999  0.8130699999999998  0.6670600000000001  1.0000
  C   C176      1.0  0.6046  0.52979  0.70867  1.0000
  C   C177      1.0  0.64003  0.49750999999999995  0.66582  1.0000
  C   C178      1.0  0.7228699999999999  0.41495000000000004  0.66168  1.0000
  C   C179      1.0  0.7679199999999999  0.3676200000000001  0.7011  1.0000
  C   C180      1.0  0.73167  0.39937  0.74472  1.0000
  C   C181      1.0  0.6486899999999999  0.48216999999999993  0.7480200000000002  1.0000
  C   C182      1.0  0.7600100000000001  0.37732  0.61728  1.0000
  C   C183      1.0  0.7000999999999997  0.39281999999999995  0.5871500000000002  1.0000
  C   C184      1.0  0.7360499999999999  0.35046  0.5475  1.0000
  C   C185      1.0  0.8865899999999997  0.28105  0.5634  1.0000
  C   C186      1.0  0.85597  0.32084000000000007  0.60366  1.0000
  C   C187      1.0  0.7776599999999999  0.34604000000000007  0.78653  1.0000
  C   C188      1.0  0.8422599999999999  0.251  0.78997  1.0000
  C   C189      1.0  0.8842599999999999  0.20352999999999996  0.82977  1.0000
  C   C190      1.0  0.80226  0.33427  0.86493  1.0000
  C   C191      1.0  0.7585799999999999  0.38669999999999993  0.826  1.0000
  C   C192      1.0  0.1499099999999999  0.08551  0.97308  1.0000
  C   C193      1.0  0.17951999999999999  0.16492  0.9632600000000001  1.0000
  C   C194      1.0  0.11238999999999995  0.2580199999999999  0.9632700000000002  1.0000
  C   C195      1.0  0.14056999999999992  0.33231999999999995  0.9507000000000002  1.0000
  C   C196      1.0  0.23681999999999992  0.31258  0.93892  1.0000
  C   C197      1.0  0.30469  0.22024000000000002  0.93955  1.0000
  C   C198      1.0  0.27571999999999997  0.14674  0.9517  1.0000
  C   C199      1.0  0.23914  0.4571999999999999  0.9448300000000002  1.0000
  C   C200      1.0  0.18646999999999994  0.4607299999999999  0.9912300000000003  1.0000
  C   C201      1.0  0.16277  0.5379  0.01134  1.0000
  C   C202      1.0  0.19306  0.60995  0.98645  1.0000
  C   C203      1.0  0.24625000000000008  0.60439  0.94002  1.0000
  C   C204      1.0  0.2681199999999999  0.52968  0.91881  1.0000
  C   C205      1.0  0.17222000000000004  0.69041  0.00885  1.0000
  C   C206      1.0  0.9156  0.014510000000000002  0.10602  1.0000
  C   C207      1.0  0.87138  0.07329  0.1441  1.0000
  C   C208      1.0  0.86119  0.030729999999999993  0.19259000000000004  1.0000
  C   C209      1.0  0.8243700000000002  0.08465  0.22797  1.0000
  C   C210      1.0  0.79783  0.18221999999999997  0.21488  1.0000
  C   C211      1.0  0.8049  0.22626999999999997  0.16692  1.0000
  C   C212      1.0  0.84162  0.17139  0.13174  1.0000
  N   N1        1.0  0.8460499999999999  0.3130800000000001  0.42297  1.0000
  N   N2        1.0  0.96147  0.74148  0.12506  1.0000
  N   N3        1.0  0.294  0.82784  0.03541  1.0000
  N   N4        1.0  0.24367999999999998  0.86641  0.36742  1.0000
  N   N5        1.0  0.6869099999999999  0.15237  0.07809  1.0000
  N   N6        1.0  0.25801999999999997  0.03736999999999998  0.37437000000000004  1.0000
  N   N7        1.0  0.17418999999999998  0.70435  0.465  1.0000
  N   N8        1.0  0.13209000000000007  0.75543  0.1332  1.0000
  N   N9        1.0  0.15230000000000005  0.68686  0.57799  1.0000
  N   N10       1.0  0.03722999999999998  0.25814  0.87445  1.0000
  N   N11       1.0  0.7044299999999999  0.17426999999999995  0.9650500000000002  1.0000
  N   N12       1.0  0.75553  0.13231  0.6332  1.0000
  N   N13       1.0  0.31303999999999993  0.84593  0.92296  1.0000
  N   N14       1.0  0.7414499999999999  0.9617  0.62522  1.0000
  N   N15       1.0  0.8279300000000002  0.29410999999999987  0.5354  1.0000
  N   N16       1.0  0.86634  0.24385000000000004  0.86735  1.0000
  O   O1        1.0  0.6092400000000001  0.5204099999999999  0.21235  1.0000
  O   O2        1.0  0.38251999999999986  0.27122  0.42201  1.0000
  O   O3        1.0  0.0036300000000000178  0.21672999999999998  0.47206  1.0000
  O   O4        1.0  0.10432999999999999  0.062220000000000004  0.48134  1.0000
  O   O5        1.0  0.69986  0.11321000000000003  0.54814  1.0000
  O   O6        1.0  0.7415699999999998  0.21770999999999993  0.4866200000000001  1.0000
  O   O7        1.0  0.9249199999999996  0.94959  0.62057  1.0000
  O   O8        1.0  0.05747999999999995  0.91697  0.56289  1.0000
  O   O9        1.0  0.8956999999999999  0.09647999999999997  0.53416  1.0000
  O   O10       1.0  0.47942999999999997  0.39024  0.28823  1.0000
  O   O11       1.0  0.72891  0.61865  0.07566  1.0000
  O   O12       1.0  0.78471  0.9962200000000001  0.02963  1.0000
  O   O13       1.0  0.9394900000000002  0.89585  0.01622  1.0000
  O   O14       1.0  0.8878000000000001  0.2957299999999999  0.9523600000000001  1.0000
  O   O15       1.0  0.78229  0.25631  0.01365  1.0000
  O   O16       1.0  0.05016000000000001  0.07527999999999999  0.87948  1.0000
  O   O17       1.0  0.09090000000000005  0.94244  0.93652  1.0000
  O   O18       1.0  0.9055599999999999  0.09544  0.96714  1.0000
  O   O19       1.0  0.3902899999999999  0.47936  0.78813  1.0000
  O   O20       1.0  0.61869  0.7288800000000002  0.5758  1.0000
  O   O21       1.0  0.9962600000000001  0.78451  0.52962  1.0000
  O   O22       1.0  0.8960200000000003  0.93939  0.5162  1.0000
  O   O23       1.0  0.29575  0.88776  0.45242  1.0000
  O   O24       1.0  0.25636000000000003  0.78215  0.51367  1.0000
  O   O25       1.0  0.07521999999999998  0.05018999999999999  0.37950000000000006  1.0000
  O   O26       1.0  0.9423799999999999  0.09126999999999995  0.4365100000000001  1.0000
  O   O27       1.0  0.09540000000000004  0.90561  0.46715000000000007  1.0000
  O   O28       1.0  0.52035  0.60984  0.71183  1.0000
  O   O29       1.0  0.27132  0.38251  0.92194  1.0000
  O   O30       1.0  0.21661999999999998  0.0035899999999999756  0.97189  1.0000
  O   O31       1.0  0.06219000000000003  0.10439999999999999  0.98135  1.0000
  O   O32       1.0  0.11321999999999996  0.6996000000000001  0.04818  1.0000
  O   O33       1.0  0.21750999999999998  0.7415299999999999  0.9866500000000002  1.0000
  O   O34       1.0  0.9495599999999998  0.9249700000000001  0.12057000000000001  1.0000
  O   O35       1.0  0.917  0.057490000000000006  0.0628  1.0000
  O   O36       1.0  0.09642999999999997  0.89554  0.03414  1.0000
  O   O37       1.0  0.23719999999999997  0.7631  0.75001  1.0000
  O   O38       1.0  0.76302  0.23711  0.24998  1.0000
