data_image0
_chemical_formula_structural       Zn12H168C408O48
_chemical_formula_sum              "Zn12 H168 C408 O48"
_cell_length_a       33.66328
_cell_length_b       33.66333
_cell_length_c       33.66337
_cell_angle_alpha    89.90587999999998
_cell_angle_beta     89.90603
_cell_angle_gamma    89.90603

_symmetry_space_group_name_H-M    'P 1'
_symmetry_Int_Tables_number       1

loop_
  _symmetry_equiv_pos_as_xyz
  'x,y,z'

loop_
  _atom_site_type_symbol
  _atom_site_label
  _atom_site_symmetry_multiplicity
  _atom_site_fract_x
  _atom_site_fract_y
  _atom_site_fract_z
  _atom_site_occupancy
  Zn  Zn1       1.0  0.37413  0.62583  0.12412999999999999  1.0000
  Zn  Zn2       1.0  0.12414  0.37413  0.62583  1.0000
  Zn  Zn3       1.0  0.62583  0.12414  0.37413  1.0000
  Zn  Zn4       1.0  0.8758  0.87579  0.87579  1.0000
  Zn  Zn5       1.0  0.42828  0.5723  0.07063  1.0000
  Zn  Zn6       1.0  0.07064  0.42828  0.5723  1.0000
  Zn  Zn7       1.0  0.5723  0.07063  0.4282800000000001  1.0000
  Zn  Zn8       1.0  0.92937  0.92936  0.92936  1.0000
  Zn  Zn9       1.0  0.32058  0.67951  0.17857  1.0000
  Zn  Zn10      1.0  0.17857  0.32058  0.67951  1.0000
  Zn  Zn11      1.0  0.8225  0.8224899999999998  0.82249  1.0000
  Zn  Zn12      1.0  0.67952  0.17857  0.32057  1.0000
  H   H1        1.0  0.3198  0.66734  0.032  1.0000
  H   H2        1.0  0.35566  0.56574  0.9633599999999999  1.0000
  H   H3        1.0  0.258  0.63874  0.9234200000000002  1.0000
  H   H4        1.0  0.17721  0.73988  0.9418400000000001  1.0000
  H   H5        1.0  0.13724  0.83755  0.01431  1.0000
  H   H6        1.0  0.191  0.8231099999999998  0.06296000000000003  1.0000
  H   H7        1.0  0.23746  0.76664  0.05149  1.0000
  H   H8        1.0  0.17976  0.33232  0.53344  1.0000
  H   H9        1.0  0.14375  0.4342999999999999  0.4653500000000001  1.0000
  H   H10       1.0  0.24105  0.3613  0.42434  1.0000
  H   H11       1.0  0.32312  0.2603  0.44151  1.0000
  H   H12       1.0  0.36295  0.16246  0.51408  1.0000
  H   H13       1.0  0.30909  0.17682  0.56274  1.0000
  H   H14       1.0  0.2627  0.23333999999999994  0.55129  1.0000
  H   H15       1.0  0.67958  0.16664  0.46642  1.0000
  H   H16       1.0  0.64444  0.06536  0.53604  1.0000
  H   H17       1.0  0.74124  0.13926  0.5755700000000002  1.0000
  H   H18       1.0  0.82224  0.23952  0.55804  1.0000
  H   H19       1.0  0.86249  0.33732  0.48573  1.0000
  H   H20       1.0  0.80893  0.3232  0.43687000000000004  1.0000
  H   H21       1.0  0.76247  0.26685  0.4481100000000001  1.0000
  H   H22       1.0  0.82037  0.8327399999999998  0.96752  1.0000
  H   H23       1.0  0.85596  0.93412  0.03634  1.0000
  H   H24       1.0  0.75826  0.86131  0.07622  1.0000
  H   H25       1.0  0.67724  0.7605199999999999  0.05849  1.0000
  H   H26       1.0  0.63746  0.66289  0.98612  1.0000
  H   H27       1.0  0.69124  0.67725  0.9373500000000002  1.0000
  H   H28       1.0  0.73758  0.73364  0.9486600000000002  1.0000
  H   H29       1.0  0.032  0.3198  0.66734  1.0000
  H   H30       1.0  0.96337  0.35565  0.56574  1.0000
  H   H31       1.0  0.92342  0.258  0.63874  1.0000
  H   H32       1.0  0.94185  0.1772  0.7398800000000002  1.0000
  H   H33       1.0  0.014310000000000002  0.13722999999999994  0.83755  1.0000
  H   H34       1.0  0.06296  0.191  0.82311  1.0000
  H   H35       1.0  0.05149  0.23745999999999998  0.76664  1.0000
  H   H36       1.0  0.53344  0.17976  0.33232  1.0000
  H   H37       1.0  0.46536  0.14375  0.4343  1.0000
  H   H38       1.0  0.42434  0.24105  0.36130000000000007  1.0000
  H   H39       1.0  0.44151  0.32311  0.2603  1.0000
  H   H40       1.0  0.51408  0.3629499999999999  0.16246  1.0000
  H   H41       1.0  0.56275  0.30909  0.17682  1.0000
  H   H42       1.0  0.5513  0.2627  0.23334  1.0000
  H   H43       1.0  0.46642  0.67957  0.16664  1.0000
  H   H44       1.0  0.53605  0.6444399999999999  0.06536  1.0000
  H   H45       1.0  0.57558  0.74124  0.13925  1.0000
  H   H46       1.0  0.55805  0.82224  0.23952000000000004  1.0000
  H   H47       1.0  0.48573000000000005  0.8624899999999998  0.33732  1.0000
  H   H48       1.0  0.43688  0.80893  0.3232  1.0000
  H   H49       1.0  0.44812  0.76247  0.26685  1.0000
  H   H50       1.0  0.9675299999999999  0.82037  0.83274  1.0000
  H   H51       1.0  0.03635  0.85596  0.93412  1.0000
  H   H52       1.0  0.07622  0.75826  0.86131  1.0000
  H   H53       1.0  0.05849000000000001  0.6772399999999998  0.76052  1.0000
  H   H54       1.0  0.98613  0.63746  0.66289  1.0000
  H   H55       1.0  0.93735  0.6912299999999998  0.67724  1.0000
  H   H56       1.0  0.94867  0.7375699999999997  0.73364  1.0000
  H   H57       1.0  0.66734  0.032  0.31979  1.0000
  H   H58       1.0  0.56574  0.96337  0.35565000000000013  1.0000
  H   H59       1.0  0.63875  0.92342  0.258  1.0000
  H   H60       1.0  0.73989  0.9418499999999997  0.1772  1.0000
  H   H61       1.0  0.83756  0.01431  0.13723000000000005  1.0000
  H   H62       1.0  0.82311  0.06296  0.191  1.0000
  H   H63       1.0  0.76664  0.05149  0.23746  1.0000
  H   H64       1.0  0.33232  0.53344  0.17976000000000006  1.0000
  H   H65       1.0  0.4343  0.4653499999999999  0.14375  1.0000
  H   H66       1.0  0.3613  0.42434  0.24105  1.0000
  H   H67       1.0  0.2603  0.44151  0.3231100000000001  1.0000
  H   H68       1.0  0.16246000000000002  0.5140799999999998  0.36295  1.0000
  H   H69       1.0  0.17682  0.56275  0.3090900000000001  1.0000
  H   H70       1.0  0.23334  0.5512999999999998  0.2627  1.0000
  H   H71       1.0  0.16664  0.46642  0.67957  1.0000
  H   H72       1.0  0.06536  0.53604  0.6444400000000002  1.0000
  H   H73       1.0  0.13926  0.57557  0.74124  1.0000
  H   H74       1.0  0.23953  0.55805  0.8222400000000002  1.0000
  H   H75       1.0  0.33733  0.48573  0.86249  1.0000
  H   H76       1.0  0.32321  0.43687  0.80893  1.0000
  H   H77       1.0  0.26685  0.44811  0.76247  1.0000
  H   H78       1.0  0.83275  0.9675199999999999  0.8203700000000002  1.0000
  H   H79       1.0  0.93412  0.03633999999999998  0.85595  1.0000
  H   H80       1.0  0.86131  0.07622  0.75826  1.0000
  H   H81       1.0  0.76052  0.05849000000000001  0.67724  1.0000
  H   H82       1.0  0.6629  0.98612  0.63746  1.0000
  H   H83       1.0  0.67725  0.93735  0.6912300000000002  1.0000
  H   H84       1.0  0.73364  0.94867  0.73757  1.0000
  H   H85       1.0  0.41648  0.57078  0.2163  1.0000
  H   H86       1.0  0.31521  0.60598  0.28597  1.0000
  H   H87       1.0  0.38908  0.50872  0.32537  1.0000
  H   H88       1.0  0.48922000000000004  0.42747  0.30847000000000013  1.0000
  H   H89       1.0  0.58712  0.3871  0.23632  1.0000
  H   H90       1.0  0.5731  0.44087  0.1874  1.0000
  H   H91       1.0  0.51666  0.48744  0.19854  1.0000
  H   H92       1.0  0.08268  0.42969  0.71782  1.0000
  H   H93       1.0  0.18439  0.39396999999999993  0.78638  1.0000
  H   H94       1.0  0.11142  0.4917000000000001  0.82623  1.0000
  H   H95       1.0  0.01045  0.5727699999999998  0.8083700000000003  1.0000
  H   H96       1.0  0.9127  0.61275  0.73602  1.0000
  H   H97       1.0  0.92706  0.55898  0.6873600000000002  1.0000
  H   H98       1.0  0.9835400000000001  0.51253  0.6987400000000001  1.0000
  H   H99       1.0  0.91727  0.92976  0.78267  1.0000
  H   H100      1.0  0.81587  0.8942699999999998  0.7138600000000003  1.0000
  H   H101      1.0  0.88877  0.9918499999999999  0.67392  1.0000
  H   H102      1.0  0.98972  0.07244  0.69206  1.0000
  H   H103      1.0  0.08733  0.11232  0.76438  1.0000
  H   H104      1.0  0.073  0.058570000000000004  0.81319  1.0000
  H   H105      1.0  0.01661  0.012229999999999996  0.80195  1.0000
  H   H106      1.0  0.58284  0.07033  0.28245  1.0000
  H   H107      1.0  0.68434  0.10583  0.2133  1.0000
  H   H108      1.0  0.61138  0.00829  0.17384  1.0000
  H   H109      1.0  0.51057  0.9274  0.19173000000000007  1.0000
  H   H110      1.0  0.41276  0.8875299999999998  0.26422  1.0000
  H   H111      1.0  0.42704  0.94116  0.31294  1.0000
  H   H112      1.0  0.48349  0.9874999999999999  0.30152  1.0000
  H   H113      1.0  0.07034  0.2824499999999999  0.58283  1.0000
  H   H114      1.0  0.10583  0.21329999999999996  0.6843400000000002  1.0000
  H   H115      1.0  0.0083  0.17383999999999994  0.61138  1.0000
  H   H116      1.0  0.9274  0.19172999999999996  0.5105700000000002  1.0000
  H   H117      1.0  0.88753  0.26422  0.41276  1.0000
  H   H118      1.0  0.94117  0.31294  0.42703  1.0000
  H   H119      1.0  0.9874999999999999  0.30152  0.48348  1.0000
  H   H120      1.0  0.92977  0.7826699999999999  0.91727  1.0000
  H   H121      1.0  0.89428  0.71386  0.81586  1.0000
  H   H122      1.0  0.9918599999999999  0.67392  0.88876  1.0000
  H   H123      1.0  0.07244  0.69206  0.98971  1.0000
  H   H124      1.0  0.11232  0.76438  0.08732  1.0000
  H   H125      1.0  0.05857  0.8131999999999998  0.073  1.0000
  H   H126      1.0  0.01224  0.80195  0.0166  1.0000
  H   H127      1.0  0.42969  0.71782  0.08268  1.0000
  H   H128      1.0  0.39397  0.78638  0.18439000000000005  1.0000
  H   H129      1.0  0.4917000000000001  0.8262299999999998  0.11141  1.0000
  H   H130      1.0  0.57277  0.80837  0.01045  1.0000
  H   H131      1.0  0.61276  0.73603  0.91269  1.0000
  H   H132      1.0  0.55899  0.68736  0.9270500000000003  1.0000
  H   H133      1.0  0.51254  0.69874  0.9835400000000001  1.0000
  H   H134      1.0  0.57078  0.21629999999999994  0.41648  1.0000
  H   H135      1.0  0.60598  0.28597  0.3152100000000001  1.0000
  H   H136      1.0  0.50872  0.32537  0.38908  1.0000
  H   H137      1.0  0.42747  0.30847  0.48922  1.0000
  H   H138      1.0  0.3871  0.23632  0.58712  1.0000
  H   H139      1.0  0.44087  0.1874  0.5731  1.0000
  H   H140      1.0  0.48744  0.19853999999999994  0.51666  1.0000
  H   H141      1.0  0.78268  0.9172699999999998  0.9297600000000003  1.0000
  H   H142      1.0  0.71387  0.8158699999999999  0.89427  1.0000
  H   H143      1.0  0.67392  0.88876  0.99185  1.0000
  H   H144      1.0  0.69207  0.9897099999999999  0.07243000000000002  1.0000
  H   H145      1.0  0.76438  0.08732  0.11232  1.0000
  H   H146      1.0  0.8132  0.073  0.05857000000000001  1.0000
  H   H147      1.0  0.80195  0.0166  0.012230000000000003  1.0000
  H   H148      1.0  0.28245  0.58283  0.07033  1.0000
  H   H149      1.0  0.2133  0.68434  0.10582000000000003  1.0000
  H   H150      1.0  0.17384  0.61138  0.008290000000000004  1.0000
  H   H151      1.0  0.19173  0.5105699999999999  0.92739  1.0000
  H   H152      1.0  0.26423  0.41276  0.88752  1.0000
  H   H153      1.0  0.31294  0.42704  0.9411600000000002  1.0000
  H   H154      1.0  0.30153  0.4834899999999999  0.9875000000000002  1.0000
  H   H155      1.0  0.2163  0.41648  0.57078  1.0000
  H   H156      1.0  0.28597  0.31521  0.60598  1.0000
  H   H157      1.0  0.32538  0.38908  0.50872  1.0000
  H   H158      1.0  0.30847  0.48921999999999993  0.42747  1.0000
  H   H159      1.0  0.23632000000000003  0.58712  0.3871000000000001  1.0000
  H   H160      1.0  0.18741  0.5731  0.44087  1.0000
  H   H161      1.0  0.19854  0.51666  0.48744  1.0000
  H   H162      1.0  0.71782  0.08268  0.42969  1.0000
  H   H163      1.0  0.78638  0.18439  0.39397  1.0000
  H   H164      1.0  0.82623  0.11141  0.4917  1.0000
  H   H165      1.0  0.80837  0.010449999999999997  0.57277  1.0000
  H   H166      1.0  0.73603  0.9127  0.6127500000000001  1.0000
  H   H167      1.0  0.68736  0.92706  0.55898  1.0000
  H   H168      1.0  0.69874  0.98354  0.51253  1.0000
  C   C1        1.0  0.31592  0.64878  0.00592  1.0000
  C   C2        1.0  0.34061  0.6157699999999998  0.00051  1.0000
  C   C3        1.0  0.33618  0.59121  0.9672500000000002  1.0000
  C   C4        1.0  0.30636  0.59938  0.9390500000000002  1.0000
  C   C5        1.0  0.28134  0.63247  0.9448000000000002  1.0000
  C   C6        1.0  0.28587  0.65731  0.97809  1.0000
  C   C7        1.0  0.37097  0.60638  0.031220000000000005  1.0000
  C   C8        1.0  0.25989  0.68989  0.9839600000000001  1.0000
  C   C9        1.0  0.23712000000000003  0.71766  0.98917  1.0000
  C   C10       1.0  0.18029  0.7580799999999998  0.96829  1.0000
  C   C11       1.0  0.1535  0.7895  0.9749899999999999  1.0000
  C   C12       1.0  0.15795  0.81328  0.00923  1.0000
  C   C13       1.0  0.18805  0.80498  0.03641  1.0000
  C   C14       1.0  0.21421  0.77344  0.03014  1.0000
  C   C15       1.0  0.2107  0.7497499999999998  0.99572  1.0000
  C   C16       1.0  0.29586  0.5518099999999998  0.8777800000000002  1.0000
  C   C17       1.0  0.30094  0.5741299999999998  0.90588  1.0000
  C   C18       1.0  0.18356  0.35095  0.50731  1.0000
  C   C19       1.0  0.1589  0.38406  0.50217  1.0000
  C   C20       1.0  0.16322  0.40877999999999987  0.4689100000000001  1.0000
  C   C21       1.0  0.19286  0.40069  0.4404000000000001  1.0000
  C   C22       1.0  0.21784  0.36752  0.4459400000000001  1.0000
  C   C23       1.0  0.21348  0.34248  0.47921  1.0000
  C   C24       1.0  0.12866  0.3935  0.53317  1.0000
  C   C25       1.0  0.23961000000000002  0.30986  0.48461000000000004  1.0000
  C   C26       1.0  0.26281  0.2822799999999999  0.48903  1.0000
  C   C27       1.0  0.32001  0.24204000000000003  0.4679800000000001  1.0000
  C   C28       1.0  0.34686  0.21061  0.4746800000000001  1.0000
  C   C29       1.0  0.3423  0.18679  0.50899  1.0000
  C   C30       1.0  0.31214  0.19504  0.53619  1.0000
  C   C31       1.0  0.28598  0.22658  0.52991  1.0000
  C   C32       1.0  0.28948  0.25029  0.49541  1.0000
  C   C33       1.0  0.20368  0.448  0.37875  1.0000
  C   C34       1.0  0.19827  0.42594  0.4070900000000001  1.0000
  C   C35       1.0  0.68355  0.14831  0.49273000000000006  1.0000
  C   C36       1.0  0.65914  0.11515  0.49842  1.0000
  C   C37       1.0  0.6637  0.09092  0.53197  1.0000
  C   C38       1.0  0.69335  0.09947  0.56017  1.0000
  C   C39       1.0  0.71807  0.13266  0.55414  1.0000
  C   C40       1.0  0.71345  0.15728  0.52058  1.0000
  C   C41       1.0  0.62894  0.10499999999999997  0.4677900000000001  1.0000
  C   C42       1.0  0.73932  0.18997  0.51479  1.0000
  C   C43       1.0  0.76234  0.21761999999999995  0.51028  1.0000
  C   C44       1.0  0.81925  0.25779  0.53157  1.0000
  C   C45       1.0  0.8461  0.28915999999999986  0.5249800000000002  1.0000
  C   C46       1.0  0.84178  0.31308  0.49073000000000006  1.0000
  C   C47       1.0  0.81179  0.30496  0.46343  1.0000
  C   C48       1.0  0.78561  0.27348  0.46958  1.0000
  C   C49       1.0  0.78892  0.24963999999999997  0.50402  1.0000
  C   C50       1.0  0.70411  0.05217  0.62177  1.0000
  C   C51       1.0  0.6989  0.07444  0.59358  1.0000
  C   C52       1.0  0.81642  0.8512199999999999  0.9936700000000002  1.0000
  C   C53       1.0  0.8411  0.88417  0.99914  1.0000
  C   C54       1.0  0.83656  0.90867  0.03242  1.0000
  C   C55       1.0  0.80665  0.90052  0.060590000000000005  1.0000
  C   C56       1.0  0.78166  0.8675299999999998  0.05481  1.0000
  C   C57       1.0  0.78628  0.84269  0.0215  1.0000
  C   C58       1.0  0.87148  0.8936399999999998  0.9683600000000001  1.0000
  C   C59       1.0  0.76028  0.81016  0.01576  1.0000
  C   C60       1.0  0.73734  0.78252  0.01098  1.0000
  C   C61       1.0  0.68035  0.74231  0.03203  1.0000
  C   C62       1.0  0.65357  0.7109499999999999  0.0254  1.0000
  C   C63       1.0  0.6581  0.68716  0.9911400000000001  1.0000
  C   C64       1.0  0.68822  0.69539  0.9638900000000001  1.0000
  C   C65       1.0  0.71435  0.7268699999999999  0.9701  1.0000
  C   C66       1.0  0.71082  0.7505499999999999  0.00456  1.0000
  C   C67       1.0  0.79629  0.94822  0.12179  1.0000
  C   C68       1.0  0.80121  0.9257699999999998  0.09376  1.0000
  C   C69       1.0  0.00592  0.31592  0.6487800000000002  1.0000
  C   C70       1.0  0.0005099999999999998  0.34061  0.6157700000000002  1.0000
  C   C71       1.0  0.96725  0.33617999999999987  0.59121  1.0000
  C   C72       1.0  0.93905  0.30636  0.59938  1.0000
  C   C73       1.0  0.94481  0.28134  0.63246  1.0000
  C   C74       1.0  0.97809  0.28586  0.65731  1.0000
  C   C75       1.0  0.03123  0.37096999999999997  0.60638  1.0000
  C   C76       1.0  0.9839599999999998  0.25988  0.68989  1.0000
  C   C77       1.0  0.9891700000000001  0.23711000000000002  0.71766  1.0000
  C   C78       1.0  0.9683  0.18028  0.7580800000000001  1.0000
  C   C79       1.0  0.9749899999999999  0.1535  0.7895  1.0000
  C   C80       1.0  0.00923  0.15794000000000002  0.81328  1.0000
  C   C81       1.0  0.03641  0.18805  0.80498  1.0000
  C   C82       1.0  0.03014  0.21421  0.77344  1.0000
  C   C83       1.0  0.99572  0.21069  0.74975  1.0000
  C   C84       1.0  0.87779  0.29586  0.5518  1.0000
  C   C85       1.0  0.90588  0.30094  0.57413  1.0000
  C   C86       1.0  0.50732  0.18356  0.35095  1.0000
  C   C87       1.0  0.50217  0.15889999999999996  0.38406  1.0000
  C   C88       1.0  0.46891  0.16321999999999995  0.40878  1.0000
  C   C89       1.0  0.4404  0.19286  0.40069  1.0000
  C   C90       1.0  0.44594  0.21784  0.36752  1.0000
  C   C91       1.0  0.47921  0.21348  0.3424800000000001  1.0000
  C   C92       1.0  0.53317  0.12865  0.3935  1.0000
  C   C93       1.0  0.48461  0.23961  0.30986  1.0000
  C   C94       1.0  0.48903  0.2628  0.28228000000000003  1.0000
  C   C95       1.0  0.46798  0.3200099999999999  0.24204  1.0000
  C   C96       1.0  0.47468999999999995  0.3468599999999999  0.21061  1.0000
  C   C97       1.0  0.50899  0.3422999999999999  0.18679000000000004  1.0000
  C   C98       1.0  0.5362  0.31214  0.19504000000000002  1.0000
  C   C99       1.0  0.52991  0.28597  0.22657000000000002  1.0000
  C   C100      1.0  0.49540999999999996  0.28948  0.2502900000000001  1.0000
  C   C101      1.0  0.37875  0.20367  0.448  1.0000
  C   C102      1.0  0.40709  0.19827  0.42594  1.0000
  C   C103      1.0  0.49273  0.68355  0.14831  1.0000
  C   C104      1.0  0.49842  0.65914  0.11515  1.0000
  C   C105      1.0  0.53197  0.66369  0.09092  1.0000
  C   C106      1.0  0.56017  0.69335  0.09947  1.0000
  C   C107      1.0  0.55415  0.71807  0.13266  1.0000
  C   C108      1.0  0.52059  0.71345  0.15728  1.0000
  C   C109      1.0  0.46779  0.62894  0.105  1.0000
  C   C110      1.0  0.51479  0.73932  0.18997  1.0000
  C   C111      1.0  0.51028  0.7623299999999997  0.21762  1.0000
  C   C112      1.0  0.53157  0.81925  0.25779  1.0000
  C   C113      1.0  0.52499  0.8461  0.28915  1.0000
  C   C114      1.0  0.49073  0.84178  0.31307  1.0000
  C   C115      1.0  0.46343  0.8117899999999999  0.30496  1.0000
  C   C116      1.0  0.46959  0.7856099999999998  0.27348  1.0000
  C   C117      1.0  0.50403  0.78892  0.24964000000000003  1.0000
  C   C118      1.0  0.62177  0.70411  0.05217  1.0000
  C   C119      1.0  0.59358  0.6989  0.07444  1.0000
  C   C120      1.0  0.9936799999999999  0.81641  0.85122  1.0000
  C   C121      1.0  0.9991399999999999  0.84109  0.88416  1.0000
  C   C122      1.0  0.03242  0.83656  0.90867  1.0000
  C   C123      1.0  0.06059  0.80665  0.90052  1.0000
  C   C124      1.0  0.05482  0.7816499999999998  0.86753  1.0000
  C   C125      1.0  0.02151  0.78628  0.8426900000000003  1.0000
  C   C126      1.0  0.96837  0.87147  0.89363  1.0000
  C   C127      1.0  0.01577  0.76028  0.81016  1.0000
  C   C128      1.0  0.01098  0.7373399999999998  0.78252  1.0000
  C   C129      1.0  0.03204  0.6803499999999998  0.74231  1.0000
  C   C130      1.0  0.0254  0.6535599999999998  0.71095  1.0000
  C   C131      1.0  0.99115  0.6581  0.68716  1.0000
  C   C132      1.0  0.9638999999999999  0.68822  0.69539  1.0000
  C   C133      1.0  0.97011  0.7143399999999998  0.7268700000000002  1.0000
  C   C134      1.0  0.004560000000000001  0.71082  0.75055  1.0000
  C   C135      1.0  0.1218  0.79629  0.94822  1.0000
  C   C136      1.0  0.09376  0.8012  0.92576  1.0000
  C   C137      1.0  0.64878  0.00592  0.31592  1.0000
  C   C138      1.0  0.61578  0.0005099999999999999  0.3406  1.0000
  C   C139      1.0  0.59122  0.9672500000000002  0.33618  1.0000
  C   C140      1.0  0.59938  0.93905  0.30636  1.0000
  C   C141      1.0  0.63247  0.9447999999999998  0.28134  1.0000
  C   C142      1.0  0.65731  0.97809  0.28586  1.0000
  C   C143      1.0  0.60638  0.03122  0.37097  1.0000
  C   C144      1.0  0.6899  0.9839600000000001  0.25988  1.0000
  C   C145      1.0  0.71766  0.98917  0.23711000000000004  1.0000
  C   C146      1.0  0.75808  0.9682999999999999  0.18028  1.0000
  C   C147      1.0  0.78951  0.97499  0.1535  1.0000
  C   C148      1.0  0.81328  0.00923  0.15794  1.0000
  C   C149      1.0  0.80498  0.03641  0.18805000000000005  1.0000
  C   C150      1.0  0.77344  0.030140000000000004  0.21421  1.0000
  C   C151      1.0  0.74976  0.9957199999999999  0.21069000000000004  1.0000
  C   C152      1.0  0.55181  0.8777799999999998  0.29586  1.0000
  C   C153      1.0  0.57413  0.9058799999999998  0.30094  1.0000
  C   C154      1.0  0.35095  0.50731  0.18355  1.0000
  C   C155      1.0  0.38406  0.50217  0.1589  1.0000
  C   C156      1.0  0.40878  0.46891  0.16322000000000003  1.0000
  C   C157      1.0  0.40069  0.4404  0.19286  1.0000
  C   C158      1.0  0.36752  0.44594  0.21784  1.0000
  C   C159      1.0  0.34248  0.47921  0.21348000000000006  1.0000
  C   C160      1.0  0.39351  0.5331699999999998  0.12865000000000004  1.0000
  C   C161      1.0  0.30986  0.48461  0.23961  1.0000
  C   C162      1.0  0.28228  0.48902999999999996  0.2628000000000001  1.0000
  C   C163      1.0  0.24204  0.4679799999999999  0.32001000000000007  1.0000
  C   C164      1.0  0.21062  0.47469  0.34686  1.0000
  C   C165      1.0  0.18679  0.50899  0.3423  1.0000
  C   C166      1.0  0.19504  0.53619  0.31214  1.0000
  C   C167      1.0  0.22658  0.52991  0.28597  1.0000
  C   C168      1.0  0.2503  0.49541  0.28948  1.0000
  C   C169      1.0  0.448  0.37875  0.20367  1.0000
  C   C170      1.0  0.42594  0.40709  0.19827  1.0000
  C   C171      1.0  0.14832  0.49272999999999995  0.68355  1.0000
  C   C172      1.0  0.11516  0.49842  0.65914  1.0000
  C   C173      1.0  0.09092  0.53197  0.66369  1.0000
  C   C174      1.0  0.09947  0.56017  0.69335  1.0000
  C   C175      1.0  0.13267  0.55414  0.71806  1.0000
  C   C176      1.0  0.15728  0.52058  0.71345  1.0000
  C   C177      1.0  0.105  0.46779  0.6289400000000002  1.0000
  C   C178      1.0  0.18997  0.51479  0.73932  1.0000
  C   C179      1.0  0.21763  0.51028  0.76233  1.0000
  C   C180      1.0  0.2578  0.53157  0.81925  1.0000
  C   C181      1.0  0.28916  0.52499  0.8461000000000002  1.0000
  C   C182      1.0  0.31308  0.49073  0.84178  1.0000
  C   C183      1.0  0.30497  0.46343  0.81179  1.0000
  C   C184      1.0  0.27348  0.46959  0.78561  1.0000
  C   C185      1.0  0.24965  0.50402  0.7889200000000002  1.0000
  C   C186      1.0  0.05218  0.62177  0.70411  1.0000
  C   C187      1.0  0.07445  0.59358  0.6989000000000002  1.0000
  C   C188      1.0  0.85123  0.99367  0.81641  1.0000
  C   C189      1.0  0.88417  0.99914  0.84109  1.0000
  C   C190      1.0  0.90868  0.03242  0.8365600000000002  1.0000
  C   C191      1.0  0.90053  0.06058999999999999  0.80664  1.0000
  C   C192      1.0  0.86753  0.05482  0.78165  1.0000
  C   C193      1.0  0.84269  0.02149999999999999  0.7862800000000001  1.0000
  C   C194      1.0  0.89364  0.96836  0.87147  1.0000
  C   C195      1.0  0.81016  0.01576  0.76028  1.0000
  C   C196      1.0  0.78253  0.01098  0.73734  1.0000
  C   C197      1.0  0.74231  0.03204  0.68035  1.0000
  C   C198      1.0  0.71095  0.025399999999999992  0.65356  1.0000
  C   C199      1.0  0.68716  0.9911499999999999  0.6581  1.0000
  C   C200      1.0  0.6954  0.9639  0.68822  1.0000
  C   C201      1.0  0.72688  0.9701  0.71434  1.0000
  C   C202      1.0  0.75055  0.004560000000000001  0.71082  1.0000
  C   C203      1.0  0.94822  0.12178999999999998  0.7962900000000003  1.0000
  C   C204      1.0  0.92577  0.09376  0.8012  1.0000
  C   C205      1.0  0.39818  0.56674  0.24261000000000002  1.0000
  C   C206      1.0  0.36514  0.59139  0.24834000000000003  1.0000
  C   C207      1.0  0.34078  0.58668  0.28181  1.0000
  C   C208      1.0  0.34927  0.55679  0.30995  1.0000
  C   C209      1.0  0.38248  0.53201  0.30396  1.0000
  C   C210      1.0  0.40711  0.5367  0.2704300000000001  1.0000
  C   C211      1.0  0.35561  0.62207  0.21778000000000006  1.0000
  C   C212      1.0  0.43982  0.51077  0.26475  1.0000
  C   C213      1.0  0.46743  0.48757999999999996  0.26055  1.0000
  C   C214      1.0  0.50754  0.43046  0.28202  1.0000
  C   C215      1.0  0.53892  0.4035399999999999  0.27549  1.0000
  C   C216      1.0  0.56287  0.40788  0.24125  1.0000
  C   C217      1.0  0.5548  0.43797  0.21391  1.0000
  C   C218      1.0  0.5233  0.46422  0.22001  1.0000
  C   C219      1.0  0.49942999999999993  0.4608699999999999  0.25443000000000005  1.0000
  C   C220      1.0  0.30226  0.54573  0.37174  1.0000
  C   C221      1.0  0.32432  0.55111  0.3434  1.0000
  C   C222      1.0  0.10125  0.43361  0.74388  1.0000
  C   C223      1.0  0.13425  0.4089  0.74929  1.0000
  C   C224      1.0  0.15888  0.4133999999999999  0.7824900000000002  1.0000
  C   C225      1.0  0.15075  0.44329  0.81064  1.0000
  C   C226      1.0  0.11767  0.46831  0.8048800000000003  1.0000
  C   C227      1.0  0.09277  0.46372999999999986  0.7716500000000002  1.0000
  C   C228      1.0  0.14355  0.37849  0.71854  1.0000
  C   C229      1.0  0.06018  0.48975  0.76587  1.0000
  C   C230      1.0  0.03251  0.5127  0.7609600000000002  1.0000
  C   C231      1.0  0.9922399999999999  0.56969  0.78193  1.0000
  C   C232      1.0  0.96082  0.5965  0.77527  1.0000
  C   C233      1.0  0.93699  0.59205  0.74106  1.0000
  C   C234      1.0  0.94524  0.5619499999999997  0.71387  1.0000
  C   C235      1.0  0.97678  0.5357799999999998  0.7201  1.0000
  C   C236      1.0  0.0004899999999999997  0.53926  0.7545  1.0000
  C   C237      1.0  0.19819  0.45409  0.87195  1.0000
  C   C238      1.0  0.17597  0.4488  0.84382  1.0000
  C   C239      1.0  0.89877  0.93379  0.75655  1.0000
  C   C240      1.0  0.86578  0.90921  0.75114  1.0000
  C   C241      1.0  0.8413  0.9136999999999997  0.71781  1.0000
  C   C242      1.0  0.84951  0.94354  0.68959  1.0000
  C   C243      1.0  0.88253  0.9685000000000001  0.69536  1.0000
  C   C244      1.0  0.90736  0.9638599999999999  0.72867  1.0000
  C   C245      1.0  0.85618  0.87888  0.7819  1.0000
  C   C246      1.0  0.93996  0.98973  0.73447  1.0000
  C   C247      1.0  0.9676599999999999  0.012499999999999997  0.73956  1.0000
  C   C248      1.0  0.00792  0.06936  0.71852  1.0000
  C   C249      1.0  0.03929  0.09611999999999998  0.72511  1.0000
  C   C250      1.0  0.06308  0.09166  0.75938  1.0000
  C   C251      1.0  0.05483  0.061579999999999996  0.78666  1.0000
  C   C252      1.0  0.02333  0.03546  0.7805  1.0000
  C   C253      1.0  0.99966  0.038950000000000005  0.74605  1.0000
  C   C254      1.0  0.80202  0.954  0.62824  1.0000
  C   C255      1.0  0.82434  0.94897  0.65635  1.0000
  C   C256      1.0  0.60134  0.06635  0.25628  1.0000
  C   C257      1.0  0.63433  0.09098  0.25067  1.0000
  C   C258      1.0  0.65886  0.08645  0.21734  1.0000
  C   C259      1.0  0.65068  0.056599999999999984  0.18924  1.0000
  C   C260      1.0  0.61765  0.03164  0.19518  1.0000
  C   C261      1.0  0.59279  0.03625  0.22854  1.0000
  C   C262      1.0  0.64379  0.12125  0.28143000000000007  1.0000
  C   C263      1.0  0.56021  0.01029  0.23439  1.0000
  C   C264      1.0  0.53254  0.98738  0.23919  1.0000
  C   C265      1.0  0.49231  0.9304599999999997  0.2182  1.0000
  C   C266      1.0  0.46093  0.9036799999999999  0.2249  1.0000
  C   C267      1.0  0.43705  0.90816  0.25917  1.0000
  C   C268      1.0  0.44525  0.93821  0.28638  1.0000
  C   C269      1.0  0.47675999999999996  0.9643299999999999  0.28011  1.0000
  C   C270      1.0  0.50051  0.96087  0.24564  1.0000
  C   C271      1.0  0.69826  0.0461  0.12783  1.0000
  C   C272      1.0  0.67588  0.051129999999999995  0.15596  1.0000
  C   C273      1.0  0.06635  0.25628  0.60134  1.0000
  C   C274      1.0  0.09098  0.25067  0.63433  1.0000
  C   C275      1.0  0.08646  0.21734  0.65886  1.0000
  C   C276      1.0  0.0566  0.18924  0.65067  1.0000
  C   C277      1.0  0.03164  0.19518  0.61764  1.0000
  C   C278      1.0  0.03625  0.22855  0.59279  1.0000
  C   C279      1.0  0.12124999999999998  0.2814299999999999  0.64379  1.0000
  C   C280      1.0  0.01029  0.23439  0.56021  1.0000
  C   C281      1.0  0.98738  0.23919  0.53253  1.0000
  C   C282      1.0  0.93047  0.21819999999999995  0.49231  1.0000
  C   C283      1.0  0.90369  0.22489999999999996  0.46092  1.0000
  C   C284      1.0  0.90816  0.25917  0.43705  1.0000
  C   C285      1.0  0.93821  0.28638  0.4452400000000001  1.0000
  C   C286      1.0  0.9643300000000001  0.28011  0.47675  1.0000
  C   C287      1.0  0.96087  0.24563999999999997  0.50051  1.0000
  C   C288      1.0  0.0461  0.12783  0.69826  1.0000
  C   C289      1.0  0.05114  0.15597  0.67588  1.0000
  C   C290      1.0  0.9338  0.7565499999999997  0.89876  1.0000
  C   C291      1.0  0.90922  0.75114  0.8657700000000003  1.0000
  C   C292      1.0  0.9137  0.71781  0.8412900000000002  1.0000
  C   C293      1.0  0.94354  0.6895899999999998  0.8495000000000003  1.0000
  C   C294      1.0  0.9685099999999999  0.6953599999999998  0.88252  1.0000
  C   C295      1.0  0.9638600000000002  0.72867  0.90735  1.0000
  C   C296      1.0  0.87888  0.7819  0.85618  1.0000
  C   C297      1.0  0.98973  0.73447  0.93995  1.0000
  C   C298      1.0  0.012500000000000002  0.7395599999999999  0.96765  1.0000
  C   C299      1.0  0.06936  0.71852  0.00792  1.0000
  C   C300      1.0  0.09612  0.7251099999999998  0.03929000000000001  1.0000
  C   C301      1.0  0.09166  0.7593799999999998  0.06308  1.0000
  C   C302      1.0  0.06158000000000001  0.78666  0.05483  1.0000
  C   C303      1.0  0.03546  0.7805  0.02333  1.0000
  C   C304      1.0  0.03896  0.74605  0.9996500000000001  1.0000
  C   C305      1.0  0.9540099999999999  0.62824  0.8020100000000002  1.0000
  C   C306      1.0  0.94897  0.65635  0.8243300000000002  1.0000
  C   C307      1.0  0.43361  0.74388  0.10125000000000003  1.0000
  C   C308      1.0  0.4089  0.74929  0.13425  1.0000
  C   C309      1.0  0.4134  0.7824899999999998  0.15888  1.0000
  C   C310      1.0  0.4433  0.81064  0.15074  1.0000
  C   C311      1.0  0.46832  0.8048799999999999  0.11767  1.0000
  C   C312      1.0  0.46373  0.77165  0.09277  1.0000
  C   C313      1.0  0.3785  0.7185399999999998  0.14355  1.0000
  C   C314      1.0  0.48975  0.76588  0.060180000000000004  1.0000
  C   C315      1.0  0.5127  0.76096  0.03251  1.0000
  C   C316      1.0  0.5697  0.7819299999999998  0.99223  1.0000
  C   C317      1.0  0.5965  0.77527  0.9608099999999999  1.0000
  C   C318      1.0  0.59206  0.74106  0.93698  1.0000
  C   C319      1.0  0.56195  0.71387  0.94523  1.0000
  C   C320      1.0  0.53578  0.7201  0.9767699999999999  1.0000
  C   C321      1.0  0.53926  0.7545099999999998  0.00049  1.0000
  C   C322      1.0  0.45409  0.8719499999999998  0.19818000000000005  1.0000
  C   C323      1.0  0.4488  0.84382  0.17596  1.0000
  C   C324      1.0  0.56675  0.24261  0.3981800000000001  1.0000
  C   C325      1.0  0.59139  0.24834  0.36513  1.0000
  C   C326      1.0  0.58668  0.28181  0.34077  1.0000
  C   C327      1.0  0.55679  0.30995  0.34927  1.0000
  C   C328      1.0  0.53201  0.30396  0.38248  1.0000
  C   C329      1.0  0.5367  0.27043  0.4071  1.0000
  C   C330      1.0  0.62207  0.21778  0.3556100000000001  1.0000
  C   C331      1.0  0.51077  0.26475  0.4398200000000001  1.0000
  C   C332      1.0  0.48758  0.26055  0.46743  1.0000
  C   C333      1.0  0.43046  0.28202  0.50753  1.0000
  C   C334      1.0  0.40354  0.27549  0.5389200000000001  1.0000
  C   C335      1.0  0.40789  0.24124999999999996  0.56287  1.0000
  C   C336      1.0  0.43797  0.21391  0.5548000000000001  1.0000
  C   C337      1.0  0.46422  0.22001  0.5233  1.0000
  C   C338      1.0  0.46087  0.25443  0.49943000000000004  1.0000
  C   C339      1.0  0.54573  0.37174  0.30226  1.0000
  C   C340      1.0  0.55111  0.3434  0.3243100000000001  1.0000
  C   C341      1.0  0.75656  0.89877  0.9337900000000002  1.0000
  C   C342      1.0  0.75115  0.8657699999999998  0.90921  1.0000
  C   C343      1.0  0.71782  0.8412999999999998  0.9137  1.0000
  C   C344      1.0  0.6896  0.8495  0.94354  1.0000
  C   C345      1.0  0.69537  0.88252  0.9685000000000001  1.0000
  C   C346      1.0  0.72868  0.9073499999999998  0.9638600000000002  1.0000
  C   C347      1.0  0.7819  0.85618  0.87888  1.0000
  C   C348      1.0  0.73447  0.93995  0.98973  1.0000
  C   C349      1.0  0.73957  0.9676599999999999  0.012500000000000004  1.0000
  C   C350      1.0  0.71852  0.00792  0.06936000000000002  1.0000
  C   C351      1.0  0.72511  0.03929  0.09612  1.0000
  C   C352      1.0  0.75938  0.06308  0.09165  1.0000
  C   C353      1.0  0.78667  0.05483  0.06157  1.0000
  C   C354      1.0  0.7805  0.02333  0.03546000000000001  1.0000
  C   C355      1.0  0.74605  0.99965  0.03895  1.0000
  C   C356      1.0  0.62824  0.80201  0.9540000000000001  1.0000
  C   C357      1.0  0.65636  0.82434  0.9489700000000002  1.0000
  C   C358      1.0  0.25628  0.60134  0.06635  1.0000
  C   C359      1.0  0.25068  0.63433  0.09098  1.0000
  C   C360      1.0  0.21734  0.65886  0.08645  1.0000
  C   C361      1.0  0.18924  0.65068  0.0566  1.0000
  C   C362      1.0  0.19518  0.61765  0.03164  1.0000
  C   C363      1.0  0.22855  0.59279  0.03625  1.0000
  C   C364      1.0  0.28143  0.64379  0.12125000000000001  1.0000
  C   C365      1.0  0.23439  0.56021  0.01029  1.0000
  C   C366      1.0  0.23918999999999999  0.53253  0.98737  1.0000
  C   C367      1.0  0.21821  0.49231  0.9304600000000002  1.0000
  C   C368      1.0  0.22491  0.46092  0.90368  1.0000
  C   C369      1.0  0.25917  0.4370499999999999  0.90816  1.0000
  C   C370      1.0  0.28638  0.44523999999999997  0.9382100000000002  1.0000
  C   C371      1.0  0.28012  0.47676  0.9643300000000001  1.0000
  C   C372      1.0  0.24564000000000002  0.50051  0.96087  1.0000
  C   C373      1.0  0.12783  0.6982599999999999  0.0461  1.0000
  C   C374      1.0  0.15597  0.6758799999999998  0.05113  1.0000
  C   C375      1.0  0.24262000000000003  0.39818  0.5667400000000002  1.0000
  C   C376      1.0  0.24835000000000002  0.36514  0.59139  1.0000
  C   C377      1.0  0.28181  0.3407699999999999  0.58668  1.0000
  C   C378      1.0  0.30995  0.3492699999999999  0.55678  1.0000
  C   C379      1.0  0.30396  0.38248  0.53201  1.0000
  C   C380      1.0  0.27043  0.4071099999999999  0.5367  1.0000
  C   C381      1.0  0.21778  0.35561  0.62207  1.0000
  C   C382      1.0  0.26475  0.43982  0.51077  1.0000
  C   C383      1.0  0.26055  0.46743  0.48758  1.0000
  C   C384      1.0  0.28202  0.50753  0.4304500000000001  1.0000
  C   C385      1.0  0.27549  0.53892  0.40354  1.0000
  C   C386      1.0  0.24125000000000002  0.56287  0.40788  1.0000
  C   C387      1.0  0.21392  0.5548  0.43797  1.0000
  C   C388      1.0  0.22002  0.5233  0.46421  1.0000
  C   C389      1.0  0.25443  0.49943000000000004  0.46087  1.0000
  C   C390      1.0  0.37174  0.30226  0.54573  1.0000
  C   C391      1.0  0.3434  0.32431  0.55111  1.0000
  C   C392      1.0  0.74389  0.10125  0.43361  1.0000
  C   C393      1.0  0.74929  0.13425  0.4089  1.0000
  C   C394      1.0  0.7825  0.15888  0.4134000000000001  1.0000
  C   C395      1.0  0.81065  0.15074  0.44329  1.0000
  C   C396      1.0  0.80488  0.11767  0.46831  1.0000
  C   C397      1.0  0.77165  0.09276999999999998  0.46373  1.0000
  C   C398      1.0  0.71854  0.14355  0.37849  1.0000
  C   C399      1.0  0.76588  0.06018  0.48975  1.0000
  C   C400      1.0  0.76096  0.03251  0.5127  1.0000
  C   C401      1.0  0.78194  0.9922399999999999  0.56969  1.0000
  C   C402      1.0  0.77528  0.9608099999999999  0.5965  1.0000
  C   C403      1.0  0.74107  0.9369899999999999  0.59205  1.0000
  C   C404      1.0  0.71388  0.94524  0.56195  1.0000
  C   C405      1.0  0.72011  0.9767700000000001  0.53578  1.0000
  C   C406      1.0  0.75451  0.00049  0.53925  1.0000
  C   C407      1.0  0.87196  0.19818  0.45409  1.0000
  C   C408      1.0  0.84382  0.17596  0.44880000000000003  1.0000
  O   O1        1.0  0.37485  0.62885  0.06125  1.0000
  O   O2        1.0  0.39275  0.5751499999999998  0.025540000000000007  1.0000
  O   O3        1.0  0.125  0.37093  0.5631700000000002  1.0000
  O   O4        1.0  0.10698  0.42483  0.52762  1.0000
  O   O5        1.0  0.62508  0.1269  0.43727  1.0000
  O   O6        1.0  0.60735  0.07373  0.47405  1.0000
  O   O7        1.0  0.87508  0.8712  0.9383  1.0000
  O   O8        1.0  0.89322  0.92482  0.97414  1.0000
  O   O9        1.0  0.06125  0.37484999999999996  0.62885  1.0000
  O   O10       1.0  0.02554  0.3927499999999999  0.57515  1.0000
  O   O11       1.0  0.56317  0.12498999999999999  0.37093  1.0000
  O   O12       1.0  0.52762  0.10698  0.4248300000000001  1.0000
  O   O13       1.0  0.43727  0.62508  0.1269  1.0000
  O   O14       1.0  0.47405  0.60735  0.07373  1.0000
  O   O15       1.0  0.93831  0.8750699999999999  0.8712000000000002  1.0000
  O   O16       1.0  0.9741499999999998  0.89322  0.92482  1.0000
  O   O17       1.0  0.62886  0.061250000000000006  0.37485  1.0000
  O   O18       1.0  0.57515  0.025539999999999993  0.39275  1.0000
  O   O19       1.0  0.37093  0.56317  0.12499  1.0000
  O   O20       1.0  0.42483  0.5276199999999998  0.10698  1.0000
  O   O21       1.0  0.12691  0.43727  0.62508  1.0000
  O   O22       1.0  0.07374  0.47405  0.60735  1.0000
  O   O23       1.0  0.87121  0.93831  0.8750700000000002  1.0000
  O   O24       1.0  0.92482  0.9741399999999999  0.89322  1.0000
  O   O25       1.0  0.37714  0.62503  0.18695  1.0000
  O   O26       1.0  0.32527  0.64486  0.22444000000000003  1.0000
  O   O27       1.0  0.12105999999999999  0.3749599999999999  0.68851  1.0000
  O   O28       1.0  0.17469  0.35661  0.7243  1.0000
  O   O29       1.0  0.8783  0.87514  0.81226  1.0000
  O   O30       1.0  0.82521  0.8569899999999998  0.77595  1.0000
  O   O31       1.0  0.62136  0.12486  0.31154  1.0000
  O   O32       1.0  0.675  0.14299  0.27564  1.0000
  O   O33       1.0  0.12486000000000001  0.3115399999999999  0.62136  1.0000
  O   O34       1.0  0.14299  0.27564  0.675  1.0000
  O   O35       1.0  0.87514  0.81226  0.87829  1.0000
  O   O36       1.0  0.85699  0.77595  0.82521  1.0000
  O   O37       1.0  0.37496  0.6885099999999997  0.12105999999999999  1.0000
  O   O38       1.0  0.35661  0.7243  0.17469  1.0000
  O   O39       1.0  0.62503  0.18695  0.37714  1.0000
  O   O40       1.0  0.64486  0.22444  0.32526  1.0000
  O   O41       1.0  0.81227  0.8782899999999998  0.8751400000000001  1.0000
  O   O42       1.0  0.77595  0.8252099999999998  0.85699  1.0000
  O   O43       1.0  0.31154  0.62136  0.12486  1.0000
  O   O44       1.0  0.27564  0.675  0.14299  1.0000
  O   O45       1.0  0.18695  0.37713999999999986  0.62503  1.0000
  O   O46       1.0  0.22444  0.32527  0.64486  1.0000
  O   O47       1.0  0.68852  0.12105999999999999  0.37496  1.0000
  O   O48       1.0  0.7243  0.17469  0.35661  1.0000
