data_image0
_chemical_formula_structural       Eu12H144C252N12O72
_chemical_formula_sum              "Eu12 H144 C252 N12 O72"
_cell_length_a       14.80093
_cell_length_b       23.69103
_cell_length_c       24.72998
_cell_angle_alpha    90.03942
_cell_angle_beta     102.74892
_cell_angle_gamma    89.95789

_space_group_name_H-M_alt    "P 1"
_space_group_IT_number       1

loop_
  _space_group_symop_operation_xyz
  'x, y, z'

loop_
  _atom_site_type_symbol
  _atom_site_label
  _atom_site_symmetry_multiplicity
  _atom_site_fract_x
  _atom_site_fract_y
  _atom_site_fract_z
  _atom_site_occupancy
  Eu  Eu1       1.0  0.7559099999999997  0.7443  0.7699  1.0000
  Eu  Eu2       1.0  0.25297  0.27281  0.06900999999999999  1.0000
  Eu  Eu3       1.0  0.75343  0.78165  0.10687  1.0000
  Eu  Eu4       1.0  0.24403  0.24458  0.72944  1.0000
  Eu  Eu5       1.0  0.7472099999999999  0.7728200000000001  0.43050999999999995  1.0000
  Eu  Eu6       1.0  0.24593  0.28193  0.39298  1.0000
  Eu  Eu7       1.0  0.24411000000000002  0.25573  0.23007  1.0000
  Eu  Eu8       1.0  0.7469  0.72728  0.9309799999999999  1.0000
  Eu  Eu9       1.0  0.24607999999999994  0.21831  0.8928599999999999  1.0000
  Eu  Eu10      1.0  0.75625  0.75571  0.26952  1.0000
  Eu  Eu11      1.0  0.25501  0.22732000000000002  0.56926  1.0000
  Eu  Eu12      1.0  0.7550299999999998  0.7184299999999999  0.60777  1.0000
  H   H1        1.0  0.14104999999999993  0.54291  0.9248399999999998  1.0000
  H   H2        1.0  0.1425599999999999  0.44132  0.9523799999999999  1.0000
  H   H3        1.0  0.37372999999999995  0.47213000000000005  0.08721999999999999  1.0000
  H   H4        1.0  0.3729  0.57441  0.06122  1.0000
  H   H5        1.0  0.4127  0.59545  0.94826  1.0000
  H   H6        1.0  0.55624  0.65436  0.96382  1.0000
  H   H7        1.0  0.4269799999999999  0.77803  0.049359999999999994  1.0000
  H   H8        1.0  0.2810399999999999  0.71999  0.03179  1.0000
  H   H9        1.0  0.24338999999999994  0.7059600000000001  0.90412  1.0000
  H   H10       1.0  0.09725999999999996  0.7522500000000001  0.85268  1.0000
  H   H11       1.0  0.9396999999999999  0.65226  0.94384  1.0000
  H   H12       1.0  0.08330999999999991  0.60567  0.9944599999999999  1.0000
  H   H13       1.0  0.11320999999999999  0.55986  0.84215  1.0000
  H   H14       1.0  0.9621099999999999  0.60769  0.80232  1.0000
  H   H15       1.0  0.08307000000000002  0.6874500000000001  0.67977  1.0000
  H   H16       1.0  0.23683  0.64353  0.722  1.0000
  H   H17       1.0  0.37521999999999994  0.51351  0.8894899999999999  1.0000
  H   H18       1.0  0.36667  0.40977  0.908  1.0000
  H   H19       1.0  0.14863  0.39136  0.7627  1.0000
  H   H20       1.0  0.15180000000000002  0.49548  0.7456  1.0000
  H   H21       1.0  0.42019999999999985  0.5206  0.78525  1.0000
  H   H22       1.0  0.5711599999999997  0.56896  0.7877599999999999  1.0000
  H   H23       1.0  0.4633900000000001  0.7226  0.83988  1.0000
  H   H24       1.0  0.3092199999999999  0.6762600000000001  0.8338799999999997  1.0000
  H   H25       1.0  0.6678599999999996  0.04302  0.8041099999999998  1.0000
  H   H26       1.0  0.6674899999999998  0.93878  0.78448  1.0000
  H   H27       1.0  0.8104799999999998  0.90779  0.9524  1.0000
  H   H28       1.0  0.81978  0.01221  0.9709399999999998  1.0000
  H   H29       1.0  0.73308  0.19611  0.85129  1.0000
  H   H30       1.0  0.5831599999999999  0.24626000000000003  0.8137799999999997  1.0000
  H   H31       1.0  0.43408999999999986  0.11309  0.87222  1.0000
  H   H32       1.0  0.58201  0.06044  0.90702  1.0000
  H   H33       1.0  0.9108999999999998  0.05800000000000001  0.88134  1.0000
  H   H34       1.0  0.06347999999999997  0.10516  0.9163999999999999  1.0000
  H   H35       1.0  0.93368  0.22894  0.0006199999999999999  1.0000
  H   H36       1.0  0.7792799999999999  0.18341000000000002  0.9645699999999999  1.0000
  H   H37       1.0  0.85884  0.0429  0.57515  1.0000
  H   H38       1.0  0.8572900000000001  0.94126  0.54771  1.0000
  H   H39       1.0  0.62625  0.97205  0.4127  1.0000
  H   H40       1.0  0.6272599999999998  0.07442  0.4386  1.0000
  H   H41       1.0  0.5879899999999998  0.09563000000000002  0.55149  1.0000
  H   H42       1.0  0.44438  0.15453  0.53615  1.0000
  H   H43       1.0  0.5730799999999998  0.27815  0.45048  1.0000
  H   H44       1.0  0.7190999999999995  0.22004  0.46779999999999994  1.0000
  H   H45       1.0  0.75701  0.20624  0.5952  1.0000
  H   H46       1.0  0.9034399999999997  0.25263  0.64614  1.0000
  H   H47       1.0  0.06061000000000002  0.15127  0.55579  1.0000
  H   H48       1.0  0.9165299999999997  0.10470000000000002  0.50527  1.0000
  H   H49       1.0  0.8873799999999997  0.060689999999999994  0.65804  1.0000
  H   H50       1.0  0.03798999999999993  0.10883999999999999  0.6978899999999999  1.0000
  H   H51       1.0  0.9165299999999997  0.18784  0.82084  1.0000
  H   H52       1.0  0.76326  0.14368  0.77848  1.0000
  H   H53       1.0  0.62517  0.01389  0.61054  1.0000
  H   H54       1.0  0.63322  0.91016  0.59216  1.0000
  H   H55       1.0  0.85145  0.8916499999999999  0.73735  1.0000
  H   H56       1.0  0.84844  0.99569  0.75446  1.0000
  H   H57       1.0  0.57914  0.02126  0.71375  1.0000
  H   H58       1.0  0.42848  0.07  0.71142  1.0000
  H   H59       1.0  0.53781  0.22394  0.66155  1.0000
  H   H60       1.0  0.69137  0.17708  0.66669  1.0000
  H   H61       1.0  0.3321599999999999  0.54289  0.6956299999999999  1.0000
  H   H62       1.0  0.3321199999999999  0.43868  0.71505  1.0000
  H   H63       1.0  0.18987  0.408  0.54687  1.0000
  H   H64       1.0  0.18058  0.51244  0.52864  1.0000
  H   H65       1.0  0.26694  0.69614  0.64873  1.0000
  H   H66       1.0  0.4167  0.7463200000000001  0.68637  1.0000
  H   H67       1.0  0.5662099999999998  0.61323  0.6277799999999999  1.0000
  H   H68       1.0  0.4184099999999999  0.56053  0.59286  1.0000
  H   H69       1.0  0.08956000000000001  0.55828  0.61861  1.0000
  H   H70       1.0  0.9368099999999999  0.60533  0.58355  1.0000
  H   H71       1.0  0.06623999999999997  0.72904  0.49929999999999997  1.0000
  H   H72       1.0  0.22073999999999996  0.6835  0.53526  1.0000
  H   H73       1.0  0.8591599999999998  0.45722000000000007  0.0752  1.0000
  H   H74       1.0  0.85763  0.55879  0.0476  1.0000
  H   H75       1.0  0.6261799999999997  0.52792  0.91293  1.0000
  H   H76       1.0  0.62713  0.42566  0.93898  1.0000
  H   H77       1.0  0.58747  0.40459  0.05184  1.0000
  H   H78       1.0  0.44397  0.34567000000000003  0.03641  1.0000
  H   H79       1.0  0.5733999999999999  0.22201  0.9507799999999997  1.0000
  H   H80       1.0  0.71908  0.2802  0.9683  1.0000
  H   H81       1.0  0.7567  0.29402  0.09589999999999999  1.0000
  H   H82       1.0  0.9027799999999998  0.24761  0.14722  1.0000
  H   H83       1.0  0.06039  0.34769  0.05624  1.0000
  H   H84       1.0  0.91688  0.39442  0.00568  1.0000
  H   H85       1.0  0.88674  0.43966  0.15748  1.0000
  H   H86       1.0  0.03782999999999999  0.39191  0.19740999999999997  1.0000
  H   H87       1.0  0.9172199999999998  0.313  0.32056  1.0000
  H   H88       1.0  0.7633700000000001  0.35673999999999995  0.27814  1.0000
  H   H89       1.0  0.6245999999999998  0.48653  0.11051  1.0000
  H   H90       1.0  0.63294  0.59031  0.09223  1.0000
  H   H91       1.0  0.8515  0.60853  0.23726999999999998  1.0000
  H   H92       1.0  0.84837  0.50442  0.25422  1.0000
  H   H93       1.0  0.5798699999999998  0.47934  0.21468  1.0000
  H   H94       1.0  0.42906  0.43092  0.21253  1.0000
  H   H95       1.0  0.53668  0.27726  0.16034  1.0000
  H   H96       1.0  0.6908099999999998  0.32365  0.16610999999999998  1.0000
  H   H97       1.0  0.33145  0.95713  0.19585  1.0000
  H   H98       1.0  0.3316199999999999  0.06145  0.21524  1.0000
  H   H99       1.0  0.18937  0.09204000000000001  0.04713  1.0000
  H   H100      1.0  0.18021  0.98756  0.028819999999999995  1.0000
  H   H101      1.0  0.26697  0.8039600000000001  0.14875  1.0000
  H   H102      1.0  0.41685  0.75377  0.18638  1.0000
  H   H103      1.0  0.5661499999999998  0.88692  0.12805  1.0000
  H   H104      1.0  0.4182899999999999  0.9396  0.09315999999999999  1.0000
  H   H105      1.0  0.08946999999999997  0.94182  0.11886  1.0000
  H   H106      1.0  0.93679  0.8947899999999999  0.08378  1.0000
  H   H107      1.0  0.06639999999999999  0.7711  0.99929  1.0000
  H   H108      1.0  0.22087999999999994  0.8165900000000001  0.0354  1.0000
  H   H109      1.0  0.14090999999999998  0.95783  0.4254299999999999  1.0000
  H   H110      1.0  0.1447  0.05957  0.45299  1.0000
  H   H111      1.0  0.3761  0.02758  0.58726  1.0000
  H   H112      1.0  0.37308  0.92504  0.56131  1.0000
  H   H113      1.0  0.41221  0.9045  0.44842  1.0000
  H   H114      1.0  0.5555  0.8453300000000001  0.46363  1.0000
  H   H115      1.0  0.42662  0.72202  0.54961  1.0000
  H   H116      1.0  0.28068999999999994  0.78023  0.53196  1.0000
  H   H117      1.0  0.24347999999999992  0.79446  0.40434999999999993  1.0000
  H   H118      1.0  0.09771999999999997  0.7478700000000001  0.35285  1.0000
  H   H119      1.0  0.9393699999999999  0.8480099999999999  0.44369  1.0000
  H   H120      1.0  0.08265000000000003  0.89486  0.4943  1.0000
  H   H121      1.0  0.1131  0.93979  0.3425  1.0000
  H   H122      1.0  0.96208  0.8921100000000001  0.30249  1.0000
  H   H123      1.0  0.08301  0.81273  0.17956  1.0000
  H   H124      1.0  0.2366999999999999  0.85655  0.22194  1.0000
  H   H125      1.0  0.37528  0.98686  0.38933  1.0000
  H   H126      1.0  0.36650999999999995  0.09058000000000001  0.40755  1.0000
  H   H127      1.0  0.14792  0.1084  0.26239  1.0000
  H   H128      1.0  0.15135999999999994  0.00427  0.24564  1.0000
  H   H129      1.0  0.41999  0.97936  0.28553  1.0000
  H   H130      1.0  0.57094  0.93098  0.28766  1.0000
  H   H131      1.0  0.4636199999999999  0.77723  0.3394199999999999  1.0000
  H   H132      1.0  0.3094  0.82358  0.33389  1.0000
  H   H133      1.0  0.6682  0.45677999999999996  0.30402  1.0000
  H   H134      1.0  0.66768  0.56096  0.2843  1.0000
  H   H135      1.0  0.8100699999999996  0.59229  0.45225  1.0000
  H   H136      1.0  0.81957  0.48793000000000003  0.47092  1.0000
  H   H137      1.0  0.73309  0.30394  0.35105  1.0000
  H   H138      1.0  0.58323  0.25382  0.31339  1.0000
  H   H139      1.0  0.43387  0.38703  0.37191  1.0000
  H   H140      1.0  0.58172  0.43968999999999997  0.4067899999999999  1.0000
  H   H141      1.0  0.9107399999999998  0.44158  0.3814999999999999  1.0000
  H   H142      1.0  0.06328999999999997  0.39446  0.41683  1.0000
  H   H143      1.0  0.93323  0.27102  0.50105  1.0000
  H   H144      1.0  0.77891  0.31663  0.46477  1.0000
  C   C1        1.0  0.25614  0.56548  0.99157  1.0000
  C   C2        1.0  0.19135999999999995  0.52757  0.96057  1.0000
  C   C3        1.0  0.19195  0.47119000000000005  0.9757899999999999  1.0000
  C   C4        1.0  0.25747  0.45106000000000007  0.021589999999999998  1.0000
  C   C5        1.0  0.3235499999999999  0.48847  0.05168  1.0000
  C   C6        1.0  0.32319  0.54516  0.03717999999999999  1.0000
  C   C7        1.0  0.25576  0.3905  0.03853  1.0000
  C   C8        1.0  0.4161699999999998  0.63547  0.97019  1.0000
  C   C9        1.0  0.49603999999999976  0.66839  0.9788599999999997  1.0000
  C   C10       1.0  0.49907  0.72023  0.00668  1.0000
  C   C11       1.0  0.42179  0.7386700000000002  0.026199999999999998  1.0000
  C   C12       1.0  0.34147  0.70645  0.01688  1.0000
  C   C13       1.0  0.3384799999999999  0.65483  0.98855  1.0000
  C   C14       1.0  0.58606  0.7546200000000001  0.01892  1.0000
  C   C15       1.0  0.17239999999999991  0.65122  0.95106  1.0000
  C   C16       1.0  0.17666999999999988  0.6943  0.91227  1.0000
  C   C17       1.0  0.09586999999999989  0.72028  0.8840399999999999  1.0000
  C   C18       1.0  0.009569999999999959  0.7043299999999999  0.8937799999999998  1.0000
  C   C19       1.0  0.00589  0.66331  0.93432  1.0000
  C   C20       1.0  0.08631999999999991  0.63703  0.9628299999999999  1.0000
  C   C21       1.0  0.923  0.72901  0.85898  1.0000
  C   C22       1.0  0.18407999999999994  0.59878  0.78447  1.0000
  C   C23       1.0  0.10648999999999992  0.58849  0.8072099999999999  1.0000
  C   C24       1.0  0.02243000000000001  0.61446  0.78474  1.0000
  C   C25       1.0  0.013550000000000019  0.64994  0.73838  1.0000
  C   C26       1.0  0.09150999999999998  0.66071  0.71628  1.0000
  C   C27       1.0  0.17659  0.63611  0.73944  1.0000
  C   C28       1.0  0.92046  0.67442  0.71205  1.0000
  C   C29       1.0  0.2635099999999999  0.51076  0.8165399999999999  1.0000
  C   C30       1.0  0.32544  0.48671  0.86218  1.0000
  C   C31       1.0  0.32137  0.42918  0.8721799999999998  1.0000
  C   C32       1.0  0.2572999999999999  0.39481  0.8363799999999999  1.0000
  C   C33       1.0  0.19623999999999997  0.41880000000000006  0.7907  1.0000
  C   C34       1.0  0.19826999999999986  0.4765400000000001  0.7811499999999999  1.0000
  C   C35       1.0  0.2529599999999999  0.33336  0.84872  1.0000
  C   C36       1.0  0.3546799999999999  0.59562  0.80902  1.0000
  C   C37       1.0  0.42953  0.56481  0.79694  1.0000
  C   C38       1.0  0.5136699999999997  0.59138  0.7988499999999998  1.0000
  C   C39       1.0  0.52613  0.64843  0.81418  1.0000
  C   C40       1.0  0.4523299999999999  0.67869  0.82728  1.0000
  C   C41       1.0  0.3668999999999999  0.65293  0.82419  1.0000
  C   C42       1.0  0.61662  0.6763899999999999  0.8141499999999999  1.0000
  C   C43       1.0  0.74467  0.03349  0.8883899999999999  1.0000
  C   C44       1.0  0.6997399999999999  0.01313  0.8359999999999999  1.0000
  C   C45       1.0  0.6985999999999998  0.95547  0.82534  1.0000
  C   C46       1.0  0.73935  0.91744  0.86714  1.0000
  C   C47       1.0  0.7817599999999998  0.93799  0.9199699999999998  1.0000
  C   C48       1.0  0.7860799999999998  0.99578  0.93045  1.0000
  C   C49       1.0  0.73851  0.85506  0.8555  1.0000
  C   C50       1.0  0.66674  0.12464  0.88091  1.0000
  C   C51       1.0  0.6676  0.17799  0.85567  1.0000
  C   C52       1.0  0.5845  0.20602  0.83514  1.0000
  C   C53       1.0  0.49991  0.18255  0.84069  1.0000
  C   C54       1.0  0.4998299999999999  0.13021  0.8672499999999999  1.0000
  C   C55       1.0  0.5819399999999998  0.10116  0.8867699999999998  1.0000
  C   C56       1.0  0.41053000000000006  0.21213  0.8173  1.0000
  C   C57       1.0  0.83524  0.11822000000000002  0.92005  1.0000
  C   C58       1.0  0.91623  0.09506  0.90777  1.0000
  C   C59       1.0  0.0010999999999999287  0.12107  0.9274999999999998  1.0000
  C   C60       1.0  0.007690000000000018  0.16978000000000001  0.96053  1.0000
  C   C61       1.0  0.9271199999999997  0.19193  0.9739199999999998  1.0000
  C   C62       1.0  0.84152  0.16677  0.95379  1.0000
  C   C63       1.0  0.09917999999999995  0.19862  0.98057  1.0000
  C   C64       1.0  0.74396  0.06542  0.50821  1.0000
  C   C65       1.0  0.8085999999999995  0.02753  0.53937  1.0000
  C   C66       1.0  0.80789  0.97109  0.52424  1.0000
  C   C67       1.0  0.7424  0.95094  0.47839999999999994  1.0000
  C   C68       1.0  0.6763899999999998  0.98837  0.44826  1.0000
  C   C69       1.0  0.67687  0.045099999999999994  0.46265  1.0000
  C   C70       1.0  0.74416  0.89043  0.46122  1.0000
  C   C71       1.0  0.5842899999999998  0.13563  0.52956  1.0000
  C   C72       1.0  0.50443  0.16855  0.521  1.0000
  C   C73       1.0  0.50131  0.22035  0.4931499999999999  1.0000
  C   C74       1.0  0.5784599999999998  0.23879  0.47359  1.0000
  C   C75       1.0  0.6587799999999998  0.20653  0.4828  1.0000
  C   C76       1.0  0.66184  0.15493  0.51111  1.0000
  C   C77       1.0  0.41432999999999987  0.25471  0.48097  1.0000
  C   C78       1.0  0.8278399999999998  0.1511  0.54838  1.0000
  C   C79       1.0  0.8236499999999995  0.19442  0.58698  1.0000
  C   C80       1.0  0.9045199999999998  0.22042  0.61492  1.0000
  C   C81       1.0  0.99062  0.20412  0.60509  1.0000
  C   C82       1.0  0.9943099999999998  0.16258  0.56502  1.0000
  C   C83       1.0  0.9137699999999997  0.1364  0.53667  1.0000
  C   C84       1.0  0.07725000000000001  0.22907  0.63928  1.0000
  C   C85       1.0  0.81619  0.09924  0.71583  1.0000
  C   C86       1.0  0.89388  0.08919  0.6930999999999998  1.0000
  C   C87       1.0  0.97769  0.11541000000000001  0.71556  1.0000
  C   C88       1.0  0.9864  0.15083  0.76199  1.0000
  C   C89       1.0  0.9083799999999997  0.16125  0.7842099999999997  1.0000
  C   C90       1.0  0.82353  0.13643  0.76102  1.0000
  C   C91       1.0  0.07929000000000001  0.17551000000000003  0.78829  1.0000
  C   C92       1.0  0.73671  0.0112  0.68355  1.0000
  C   C93       1.0  0.67485  0.98712  0.63791  1.0000
  C   C94       1.0  0.6786799999999997  0.92956  0.62795  1.0000
  C   C95       1.0  0.74254  0.89507  0.66374  1.0000
  C   C96       1.0  0.8038099999999999  0.91908  0.70935  1.0000
  C   C97       1.0  0.80188  0.97688  0.71888  1.0000
  C   C98       1.0  0.7456399999999999  0.8335000000000001  0.65135  1.0000
  C   C99       1.0  0.64558  0.09633  0.69098  1.0000
  C   C100      1.0  0.57029  0.06561  0.7025699999999998  1.0000
  C   C101      1.0  0.48631  0.09239  0.70077  1.0000
  C   C102      1.0  0.4743199999999999  0.1497  0.6863  1.0000
  C   C103      1.0  0.54847  0.17987  0.67362  1.0000
  C   C104      1.0  0.6336599999999999  0.1538  0.67634  1.0000
  C   C105      1.0  0.38373  0.17749  0.68676  1.0000
  C   C106      1.0  0.25555  0.53356  0.61127  1.0000
  C   C107      1.0  0.30033  0.51307  0.66364  1.0000
  C   C108      1.0  0.30127  0.4554  0.67418  1.0000
  C   C109      1.0  0.26061  0.41746  0.63224  1.0000
  C   C110      1.0  0.21843999999999994  0.43812  0.57943  1.0000
  C   C111      1.0  0.21418999999999996  0.49593  0.56911  1.0000
  C   C112      1.0  0.26135  0.35502  0.64366  1.0000
  C   C113      1.0  0.3334799999999999  0.6247  0.61902  1.0000
  C   C114      1.0  0.3324699999999998  0.67803  0.6443499999999999  1.0000
  C   C115      1.0  0.41548  0.70609  0.6649599999999999  1.0000
  C   C116      1.0  0.50013  0.68263  0.65938  1.0000
  C   C117      1.0  0.50039  0.63032  0.63274  1.0000
  C   C118      1.0  0.4183499999999999  0.60125  0.61315  1.0000
  C   C119      1.0  0.5893999999999999  0.71224  0.68277  1.0000
  C   C120      1.0  0.16498  0.6184  0.57983  1.0000
  C   C121      1.0  0.08409000000000003  0.5953  0.59218  1.0000
  C   C122      1.0  0.99913  0.62126  0.57245  1.0000
  C   C123      1.0  0.99237  0.66992  0.53941  1.0000
  C   C124      1.0  0.07287  0.6920599999999999  0.52601  1.0000
  C   C125      1.0  0.15856  0.66691  0.5461  1.0000
  C   C126      1.0  0.90075  0.69867  0.51938  1.0000
  C   C127      1.0  0.74397  0.43462  0.00856  1.0000
  C   C128      1.0  0.80879  0.47254  0.0395  1.0000
  C   C129      1.0  0.8081899999999997  0.52892  0.02424  1.0000
  C   C130      1.0  0.74258  0.54901  0.9784699999999997  1.0000
  C   C131      1.0  0.67644  0.5116  0.94845  1.0000
  C   C132      1.0  0.6768599999999998  0.45491000000000004  0.96297  1.0000
  C   C133      1.0  0.7442299999999997  0.60955  0.96151  1.0000
  C   C134      1.0  0.58399  0.36456  0.02997  1.0000
  C   C135      1.0  0.50413  0.33165  0.02132  1.0000
  C   C136      1.0  0.5011099999999999  0.27981  0.9934899999999999  1.0000
  C   C137      1.0  0.5783799999999997  0.26137  0.9739299999999997  1.0000
  C   C138      1.0  0.65865  0.29364  0.9832399999999999  1.0000
  C   C139      1.0  0.66167  0.34524  0.0116  1.0000
  C   C140      1.0  0.41404  0.2455  0.9812299999999999  1.0000
  C   C141      1.0  0.82772  0.34883  0.04903  1.0000
  C   C142      1.0  0.8234199999999999  0.3057  0.08776  1.0000
  C   C143      1.0  0.90418  0.27964  0.11591999999999998  1.0000
  C   C144      1.0  0.9904799999999999  0.29561  0.10623  1.0000
  C   C145      1.0  0.9942  0.33668  0.06574  1.0000
  C   C146      1.0  0.9138099999999998  0.36302  0.03726  1.0000
  C   C147      1.0  0.07702  0.27094  0.14103  1.0000
  C   C148      1.0  0.81601  0.40112  0.21541  1.0000
  C   C149      1.0  0.8934999999999997  0.41117  0.19254  1.0000
  C   C150      1.0  0.97759  0.38525000000000004  0.2151  1.0000
  C   C151      1.0  0.98663  0.35008999999999996  0.2617  1.0000
  C   C152      1.0  0.9087099999999999  0.33951999999999993  0.2839  1.0000
  C   C153      1.0  0.8235899999999997  0.36403  0.26064  1.0000
  C   C154      1.0  0.07980999999999999  0.32562  0.28812  1.0000
  C   C155      1.0  0.73653  0.48916  0.18335  1.0000
  C   C156      1.0  0.67449  0.51325  0.1378  1.0000
  C   C157      1.0  0.6783899999999999  0.57079  0.12793  1.0000
  C   C158      1.0  0.7424299999999998  0.60514  0.16371999999999998  1.0000
  C   C159      1.0  0.8037899999999998  0.58113  0.20927  1.0000
  C   C160      1.0  0.8018299999999998  0.52336  0.21870999999999996  1.0000
  C   C161      1.0  0.7454999999999998  0.66665  0.15139  1.0000
  C   C162      1.0  0.64541  0.40430000000000005  0.19097  1.0000
  C   C163      1.0  0.57056  0.43509  0.20311  1.0000
  C   C164      1.0  0.4864799999999999  0.40850000000000003  0.20132999999999998  1.0000
  C   C165      1.0  0.4740099999999999  0.35144  0.18602  1.0000
  C   C166      1.0  0.54779  0.32119  0.17288  1.0000
  C   C167      1.0  0.6331899999999997  0.34697  0.17589999999999997  1.0000
  C   C168      1.0  0.38341  0.32352  0.18589999999999998  1.0000
  C   C169      1.0  0.2552  0.9665  0.11145  1.0000
  C   C170      1.0  0.29974  0.98696  0.16387  1.0000
  C   C171      1.0  0.30078  0.04464  0.17439  1.0000
  C   C172      1.0  0.26043  0.08257  0.13242  1.0000
  C   C173      1.0  0.21803999999999998  0.0619  0.07964  1.0000
  C   C174      1.0  0.2138  0.0041  0.06929  1.0000
  C   C175      1.0  0.26161  0.14499  0.14385  1.0000
  C   C176      1.0  0.3334199999999999  0.8754099999999999  0.11916999999999998  1.0000
  C   C177      1.0  0.33249  0.82207  0.14442  1.0000
  C   C178      1.0  0.41553  0.7940100000000001  0.16501  1.0000
  C   C179      1.0  0.50015  0.81748  0.15951  1.0000
  C   C180      1.0  0.50035  0.86983  0.13297  1.0000
  C   C181      1.0  0.4182799999999999  0.8989  0.11341  1.0000
  C   C182      1.0  0.5893999999999999  0.78781  0.18283  1.0000
  C   C183      1.0  0.16494999999999999  0.88168  0.07998  1.0000
  C   C184      1.0  0.08402999999999997  0.90481  0.09235999999999998  1.0000
  C   C185      1.0  0.9991099999999999  0.8788599999999999  0.07262  1.0000
  C   C186      1.0  0.9924499999999998  0.8301999999999999  0.03951  1.0000
  C   C187      1.0  0.07297999999999998  0.80807  0.026059999999999996  1.0000
  C   C188      1.0  0.15862999999999997  0.83318  0.04619999999999999  1.0000
  C   C189      1.0  0.9009199999999998  0.8014  0.019439999999999995  1.0000
  C   C190      1.0  0.2563  0.93471  0.49184  1.0000
  C   C191      1.0  0.19187  0.97294  0.461  1.0000
  C   C192      1.0  0.19370999999999997  0.02939  0.47622999999999993  1.0000
  C   C193      1.0  0.2600199999999999  0.04916000000000001  0.52186  1.0000
  C   C194      1.0  0.32552  0.01139  0.55183  1.0000
  C   C195      1.0  0.3239399999999999  0.9546500000000001  0.53735  1.0000
  C   C196      1.0  0.25943  0.10973  0.53898  1.0000
  C   C197      1.0  0.4157099999999999  0.86452  0.47037  1.0000
  C   C198      1.0  0.49547999999999975  0.83152  0.47893  1.0000
  C   C199      1.0  0.49867999999999985  0.7797000000000001  0.50683  1.0000
  C   C200      1.0  0.4215999999999999  0.76139  0.52652  1.0000
  C   C201      1.0  0.34121999999999997  0.79368  0.51716  1.0000
  C   C202      1.0  0.33810999999999997  0.84524  0.48879999999999996  1.0000
  C   C203      1.0  0.58596  0.7454200000000001  0.5181  1.0000
  C   C204      1.0  0.17208  0.84915  0.45112  1.0000
  C   C205      1.0  0.17662  0.80603  0.41238  1.0000
  C   C206      1.0  0.09601999999999995  0.77994  0.38411  1.0000
  C   C207      1.0  0.00956999999999999  0.79586  0.39368  1.0000
  C   C208      1.0  0.00560000000000001  0.83699  0.43417  1.0000
  C   C209      1.0  0.08585999999999995  0.86341  0.46273  1.0000
  C   C210      1.0  0.92318  0.77108  0.35875  1.0000
  C   C211      1.0  0.18397  0.9011  0.28463  1.0000
  C   C212      1.0  0.10639999999999995  0.9112700000000001  0.30743999999999994  1.0000
  C   C213      1.0  0.022340000000000002  0.88537  0.28483  1.0000
  C   C214      1.0  0.013379999999999998  0.85008  0.23827  1.0000
  C   C215      1.0  0.09139999999999998  0.8393699999999998  0.21617999999999998  1.0000
  C   C216      1.0  0.17646999999999996  0.8639  0.23944  1.0000
  C   C217      1.0  0.9202099999999998  0.82562  0.21181999999999998  1.0000
  C   C218      1.0  0.26327  0.98922  0.31653  1.0000
  C   C219      1.0  0.3252799999999999  0.01348  0.362  1.0000
  C   C220      1.0  0.32103  0.07102  0.37188  1.0000
  C   C221      1.0  0.25664999999999993  0.10523  0.33612  1.0000
  C   C222      1.0  0.19562999999999994  0.08109  0.29049  1.0000
  C   C223      1.0  0.19787999999999994  0.02332  0.2811  1.0000
  C   C224      1.0  0.25246  0.16668  0.34854  1.0000
  C   C225      1.0  0.35456  0.90429  0.30908  1.0000
  C   C226      1.0  0.42934  0.9351  0.29698  1.0000
  C   C227      1.0  0.5134799999999998  0.90854  0.29871999999999993  1.0000
  C   C228      1.0  0.52602  0.85147  0.31391  1.0000
  C   C229      1.0  0.45229999999999987  0.82116  0.32693  1.0000
  C   C230      1.0  0.3668899999999999  0.84693  0.32405  1.0000
  C   C231      1.0  0.61665  0.82353  0.31408  1.0000
  C   C232      1.0  0.74471  0.46645  0.38836  1.0000
  C   C233      1.0  0.69996  0.48672000000000004  0.3359  1.0000
  C   C234      1.0  0.69878  0.54437  0.32518  1.0000
  C   C235      1.0  0.7393199999999999  0.58251  0.36693  1.0000
  C   C236      1.0  0.7815799999999998  0.56203  0.41980999999999996  1.0000
  C   C237      1.0  0.78595  0.50426  0.43038  1.0000
  C   C238      1.0  0.73849  0.6449  0.35523  1.0000
  C   C239      1.0  0.6665899999999998  0.37542  0.38073  1.0000
  C   C240      1.0  0.66756  0.32207  0.35542  1.0000
  C   C241      1.0  0.58452  0.29406  0.33479  1.0000
  C   C242      1.0  0.4998699999999999  0.31757  0.34033  1.0000
  C   C243      1.0  0.4996699999999999  0.36992  0.36693999999999993  1.0000
  C   C244      1.0  0.58172  0.39896  0.38652  1.0000
  C   C245      1.0  0.4106199999999999  0.28787  0.31711  1.0000
  C   C246      1.0  0.8349999999999997  0.38161  0.42023999999999995  1.0000
  C   C247      1.0  0.9160199999999997  0.40462000000000004  0.408  1.0000
  C   C248      1.0  0.0008800000000000022  0.37860000000000005  0.42785  1.0000
  C   C249      1.0  0.007490000000000023  0.32995  0.46091  1.0000
  C   C250      1.0  0.92685  0.30793  0.47427  1.0000
  C   C251      1.0  0.84123  0.33314  0.45404  1.0000
  C   C252      1.0  0.09923999999999997  0.30122  0.48081  1.0000
  N   N1        1.0  0.25457  0.62317  0.97745  1.0000
  N   N2        1.0  0.7488099999999999  0.09282000000000001  0.89829  1.0000
  N   N3        1.0  0.2679099999999998  0.56928  0.8053199999999999  1.0000
  N   N4        1.0  0.74561  0.12316  0.52211  1.0000
  N   N5        1.0  0.25145  0.59291  0.60151  1.0000
  N   N6        1.0  0.7323299999999998  0.0698  0.69478  1.0000
  N   N7        1.0  0.7455599999999998  0.37692  0.02268  1.0000
  N   N8        1.0  0.25135  0.9071700000000001  0.10165  1.0000
  N   N9        1.0  0.7321399999999999  0.43063000000000007  0.19454  1.0000
  N   N10       1.0  0.25424  0.87702  0.4777  1.0000
  N   N11       1.0  0.7486499999999998  0.40714  0.3983599999999999  1.0000
  N   N12       1.0  0.26776999999999995  0.93063  0.30550999999999995  1.0000
  O   O1        1.0  0.18631  0.36008000000000007  0.01587  1.0000
  O   O2        1.0  0.32345  0.37154  0.07524  1.0000
  O   O3        1.0  0.65364  0.74021  0.99736  1.0000
  O   O4        1.0  0.59142  0.79508  0.05323  1.0000
  O   O5        1.0  0.8446599999999997  0.70865  0.86529  1.0000
  O   O6        1.0  0.9272599999999999  0.76577  0.8228  1.0000
  O   O7        1.0  0.8590699999999999  0.67475  0.7406  1.0000
  O   O8        1.0  0.9089799999999996  0.69156  0.66196  1.0000
  O   O9        1.0  0.20978  0.29933  0.81141  1.0000
  O   O10       1.0  0.2910099999999999  0.31717  0.89748  1.0000
  O   O11       1.0  0.63625  0.72305  0.84102  1.0000
  O   O12       1.0  0.66857  0.65443  0.78567  1.0000
  O   O13       1.0  0.74536  0.82269  0.89718  1.0000
  O   O14       1.0  0.73185  0.83964  0.80557  1.0000
  O   O15       1.0  0.40992999999999996  0.25433  0.7859499999999998  1.0000
  O   O16       1.0  0.33583  0.19146  0.82811  1.0000
  O   O17       1.0  0.16766999999999996  0.18237  0.9605599999999999  1.0000
  O   O18       1.0  0.10321999999999998  0.23771  0.01601  1.0000
  O   O19       1.0  0.81345  0.8599200000000001  0.48412  1.0000
  O   O20       1.0  0.67695  0.8716700000000001  0.42402999999999996  1.0000
  O   O21       1.0  0.34707999999999994  0.24029  0.50275  1.0000
  O   O22       1.0  0.40858  0.29506  0.44657  1.0000
  O   O23       1.0  0.15539  0.20866999999999997  0.6326  1.0000
  O   O24       1.0  0.07304999999999999  0.26608  0.6751999999999999  1.0000
  O   O25       1.0  0.14017999999999994  0.17715  0.75941  1.0000
  O   O26       1.0  0.09124999999999998  0.19160000000000002  0.83871  1.0000
  O   O27       1.0  0.79036  0.7994199999999999  0.68819  1.0000
  O   O28       1.0  0.70503  0.81711  0.6031  1.0000
  O   O29       1.0  0.36407  0.22498  0.66122  1.0000
  O   O30       1.0  0.3314  0.1544  0.7142299999999999  1.0000
  O   O31       1.0  0.25877  0.32289  0.60217  1.0000
  O   O32       1.0  0.26369  0.33971  0.69311  1.0000
  O   O33       1.0  0.58988  0.7544400000000001  0.7141599999999999  1.0000
  O   O34       1.0  0.66417  0.69155  0.67192  1.0000
  O   O35       1.0  0.8323799999999999  0.68256  0.53953  1.0000
  O   O36       1.0  0.89641  0.7376  0.48379  1.0000
  O   O37       1.0  0.8136699999999997  0.63998  0.9841599999999998  1.0000
  O   O38       1.0  0.6765  0.6285  0.92481  1.0000
  O   O39       1.0  0.34655999999999987  0.25979  0.00288  1.0000
  O   O40       1.0  0.4086099999999999  0.20524  0.9466799999999999  1.0000
  O   O41       1.0  0.15536  0.29133  0.13474  1.0000
  O   O42       1.0  0.07275999999999998  0.23416  0.17719  1.0000
  O   O43       1.0  0.14100999999999994  0.32527  0.25942  1.0000
  O   O44       1.0  0.09132999999999997  0.30847  0.3381899999999999  1.0000
  O   O45       1.0  0.79046  0.7007  0.18815  1.0000
  O   O46       1.0  0.7045699999999999  0.68297  0.10321  1.0000
  O   O47       1.0  0.36375999999999986  0.27689  0.15898  1.0000
  O   O48       1.0  0.33132  0.34555  0.21426  1.0000
  O   O49       1.0  0.25457  0.17728  0.1021  1.0000
  O   O50       1.0  0.26854  0.16053  0.19376  1.0000
  O   O51       1.0  0.58994  0.7456199999999998  0.21416  1.0000
  O   O52       1.0  0.6641499999999999  0.8084200000000001  0.17190999999999998  1.0000
  O   O53       1.0  0.8324199999999999  0.8176200000000001  0.03946  1.0000
  O   O54       1.0  0.89678  0.7623499999999999  0.98394  1.0000
  O   O55       1.0  0.19015  0.14023  0.51618  1.0000
  O   O56       1.0  0.32726  0.12846  0.57577  1.0000
  O   O57       1.0  0.65087  0.7599  0.49454  1.0000
  O   O58       1.0  0.5942099999999998  0.70537  0.55303  1.0000
  O   O59       1.0  0.8448199999999998  0.7915  0.36503  1.0000
  O   O60       1.0  0.9275  0.7341600000000001  0.32269  1.0000
  O   O61       1.0  0.8590699999999999  0.82531  0.24057999999999993  1.0000
  O   O62       1.0  0.9086099999999998  0.8084700000000001  0.16175  1.0000
  O   O63       1.0  0.20952  0.20083999999999996  0.31128  1.0000
  O   O64       1.0  0.2905799999999999  0.18284  0.39731  1.0000
  O   O65       1.0  0.6362199999999998  0.77695  0.34099999999999997  1.0000
  O   O66       1.0  0.66869  0.84549  0.2857  1.0000
  O   O67       1.0  0.74551  0.6773200000000001  0.39694  1.0000
  O   O68       1.0  0.73176  0.6603  0.30529  1.0000
  O   O69       1.0  0.41013  0.2456  0.28581  1.0000
  O   O70       1.0  0.33587  0.30846  0.32808  1.0000
  O   O71       1.0  0.16742999999999994  0.31765  0.46061  1.0000
  O   O72       1.0  0.10397  0.26218  0.51629  1.0000
