data_image0
_chemical_formula_structural       Zn8H168C216N56
_chemical_formula_sum              "Zn8 H168 C216 N56"
_cell_length_a       9.38877
_cell_length_b       31.301390000000005
_cell_length_c       20.72124
_cell_angle_alpha    90.11709
_cell_angle_beta     90.41596999999999
_cell_angle_gamma    89.82547

_symmetry_space_group_name_H-M    'P 1'
_symmetry_Int_Tables_number       1

loop_
  _symmetry_equiv_pos_as_xyz
  'x,y,z'

loop_
  _atom_site_type_symbol
  _atom_site_label
  _atom_site_symmetry_multiplicity
  _atom_site_fract_x
  _atom_site_fract_y
  _atom_site_fract_z
  _atom_site_occupancy
  Zn  Zn1       1.0  0.9252400000000002  0.47942  0.8196200000000002  1.0000
  Zn  Zn2       1.0  0.56761  0.9792299999999998  0.68652  1.0000
  Zn  Zn3       1.0  0.06086  0.4796  0.31331  1.0000
  Zn  Zn4       1.0  0.43915000000000004  0.97952  0.18374000000000001  1.0000
  Zn  Zn5       1.0  0.92536  0.51839  0.69002  1.0000
  Zn  Zn6       1.0  0.5749300000000002  0.01959  0.81642  1.0000
  Zn  Zn7       1.0  0.06124000000000001  0.5207699999999997  0.18363  1.0000
  Zn  Zn8       1.0  0.4326  0.02072  0.31339  1.0000
  H   H1        1.0  0.60032  0.8348899999999998  0.7440500000000001  1.0000
  H   H2        1.0  0.50995  0.6900599999999998  0.56191  1.0000
  H   H3        1.0  0.27774  0.8237999999999999  0.60143  1.0000
  H   H4        1.0  0.77678  0.69201  0.5901000000000001  1.0000
  H   H5        1.0  0.9484800000000001  0.66741  0.5094  1.0000
  H   H6        1.0  0.25668  0.58245  0.78545  1.0000
  H   H7        1.0  0.50255  0.7648499999999998  0.7734  1.0000
  H   H8        1.0  0.44057  0.7666499999999998  0.56759  1.0000
  H   H9        1.0  0.9500600000000001  0.5249099999999998  0.44669000000000003  1.0000
  H   H10       1.0  0.63702  0.56225  0.61626  1.0000
  H   H11       1.0  0.57883  0.68888  0.7671900000000001  1.0000
  H   H12       1.0  0.8197  0.5369999999999998  0.54125  1.0000
  H   H13       1.0  0.33045  0.9100299999999998  0.6273100000000001  1.0000
  H   H14       1.0  0.34107  0.63275  0.7038300000000001  1.0000
  H   H15       1.0  0.19206  0.51941  0.82009  1.0000
  H   H16       1.0  0.3386  0.58972  0.42322000000000004  1.0000
  H   H17       1.0  0.6867400000000001  0.53446  0.8089700000000001  1.0000
  H   H18       1.0  0.16133  0.6395899999999999  0.4987400000000001  1.0000
  H   H19       1.0  0.77085  0.58682  0.72908  1.0000
  H   H20       1.0  0.41531  0.46013  0.9720300000000001  1.0000
  H   H21       1.0  0.60554  0.51035  0.9038  1.0000
  H   H22       1.0  0.89601  0.33438  0.7553100000000001  1.0000
  H   H23       1.0  0.988  0.19097  0.93868  1.0000
  H   H24       1.0  0.22118  0.32385  0.8968700000000001  1.0000
  H   H25       1.0  0.72015  0.19222  0.91035  1.0000
  H   H26       1.0  0.54964  0.16779  0.9913100000000001  1.0000
  H   H27       1.0  0.24068000000000003  0.0815  0.71464  1.0000
  H   H28       1.0  0.99571  0.2638099999999999  0.72609  1.0000
  H   H29       1.0  0.05725000000000001  0.26737  0.9318400000000002  1.0000
  H   H30       1.0  0.55394  0.02512  0.054290000000000005  1.0000
  H   H31       1.0  0.86801  0.06271  0.8864300000000002  1.0000
  H   H32       1.0  0.9199100000000001  0.18801  0.7333600000000001  1.0000
  H   H33       1.0  0.68693  0.03754  0.9620100000000001  1.0000
  H   H34       1.0  0.16555  0.40998  0.8712300000000001  1.0000
  H   H35       1.0  0.15784  0.13185  0.79705  1.0000
  H   H36       1.0  0.30445  0.01849  0.6793100000000001  1.0000
  H   H37       1.0  0.16422  0.08986  0.07889  1.0000
  H   H38       1.0  0.80985  0.03481  0.69151  1.0000
  H   H39       1.0  0.34026  0.14  0.004040000000000001  1.0000
  H   H40       1.0  0.7274  0.08713999999999997  0.7723300000000001  1.0000
  H   H41       1.0  0.07945  0.95985  0.52735  1.0000
  H   H42       1.0  0.89027  0.01051  0.59622  1.0000
  H   H43       1.0  0.40088000000000007  0.83457  0.24389  1.0000
  H   H44       1.0  0.47741000000000006  0.6905999999999998  0.06022000000000001  1.0000
  H   H45       1.0  0.71673  0.82327  0.10018000000000002  1.0000
  H   H46       1.0  0.21304000000000003  0.6921899999999997  0.08953  1.0000
  H   H47       1.0  0.03675  0.6673499999999998  0.00998  1.0000
  H   H48       1.0  0.73621  0.5817599999999998  0.28746  1.0000
  H   H49       1.0  0.50184  0.7641199999999998  0.27249  1.0000
  H   H50       1.0  0.54804  0.7669499999999998  0.06629  1.0000
  H   H51       1.0  0.03894000000000001  0.5249799999999998  0.9467400000000001  1.0000
  H   H52       1.0  0.36103  0.56279  0.11370000000000002  1.0000
  H   H53       1.0  0.42406  0.68846  0.26601  1.0000
  H   H54       1.0  0.17496  0.53724  0.03945  1.0000
  H   H55       1.0  0.66412  0.9095399999999998  0.12628  1.0000
  H   H56       1.0  0.65381  0.6320399999999998  0.20439  1.0000
  H   H57       1.0  0.79773  0.5171899999999998  0.32021  1.0000
  H   H58       1.0  0.64434  0.58814  0.9271  1.0000
  H   H59       1.0  0.30506  0.5352899999999998  0.30750000000000005  1.0000
  H   H60       1.0  0.82417  0.63877  0.00095  1.0000
  H   H61       1.0  0.22271000000000002  0.5877699999999998  0.22651  1.0000
  H   H62       1.0  0.57634  0.46062  0.47327000000000014  1.0000
  H   H63       1.0  0.3876  0.51239  0.40504  1.0000
  H   H64       1.0  0.10147000000000002  0.33533  0.25733000000000006  1.0000
  H   H65       1.0  0.02243  0.19124  0.43978000000000006  1.0000
  H   H66       1.0  0.78564  0.32451999999999986  0.4009200000000001  1.0000
  H   H67       1.0  0.28723  0.1924  0.4101000000000001  1.0000
  H   H68       1.0  0.46243000000000006  0.16736999999999994  0.49002  1.0000
  H   H69       1.0  0.76451  0.08264  0.21134000000000003  1.0000
  H   H70       1.0  0.99963  0.26511  0.22811  1.0000
  H   H71       1.0  0.9530100000000001  0.26784  0.43434000000000006  1.0000
  H   H72       1.0  0.45775999999999994  0.02525  0.5537400000000001  1.0000
  H   H73       1.0  0.13900000000000004  0.06323  0.38543  1.0000
  H   H74       1.0  0.07616  0.18914  0.23394000000000004  1.0000
  H   H75       1.0  0.32451  0.03746  0.45986  1.0000
  H   H76       1.0  0.8375400000000001  0.4107099999999999  0.37527  1.0000
  H   H77       1.0  0.84611  0.1332  0.29428  1.0000
  H   H78       1.0  0.7040100000000001  0.01718  0.18034  1.0000
  H   H79       1.0  0.85144  0.08789  0.5759900000000001  1.0000
  H   H80       1.0  0.19563  0.03517  0.19261000000000003  1.0000
  H   H81       1.0  0.67452  0.1383  0.50025  1.0000
  H   H82       1.0  0.27736  0.08815  0.27305  1.0000
  H   H83       1.0  0.92537  0.9596  0.02743  1.0000
  H   H84       1.0  0.11331  0.01207  0.09463000000000002  1.0000
  H   H85       1.0  0.60138  0.1648  0.7568200000000003  1.0000
  H   H86       1.0  0.52075  0.3086  0.9403000000000001  1.0000
  H   H87       1.0  0.28262  0.17568  0.8992300000000002  1.0000
  H   H88       1.0  0.78735  0.3068999999999999  0.90981  1.0000
  H   H89       1.0  0.96182  0.3312  0.9905800000000002  1.0000
  H   H90       1.0  0.25809  0.4176199999999999  0.7160600000000001  1.0000
  H   H91       1.0  0.49889000000000006  0.23525  0.7278100000000002  1.0000
  H   H92       1.0  0.45055999999999996  0.23224  0.9339100000000001  1.0000
  H   H93       1.0  0.95425  0.4727299999999999  0.05781000000000001  1.0000
  H   H94       1.0  0.63686  0.4363  0.8884200000000001  1.0000
  H   H95       1.0  0.57584  0.31101  0.73459  1.0000
  H   H96       1.0  0.8211600000000001  0.46137  0.9640000000000002  1.0000
  H   H97       1.0  0.33603  0.08946999999999997  0.8729200000000003  1.0000
  H   H98       1.0  0.34429  0.3671399999999999  0.7979200000000002  1.0000
  H   H99       1.0  0.19473  0.48254999999999987  0.68384  1.0000
  H   H100      1.0  0.34955  0.41006  0.07844  1.0000
  H   H101      1.0  0.68745  0.46488  0.6938700000000001  1.0000
  H   H102      1.0  0.17328  0.36011  0.0017700000000000003  1.0000
  H   H103      1.0  0.77322  0.41248  0.77409  1.0000
  H   H104      1.0  0.41147000000000006  0.5389  0.5292200000000001  1.0000
  H   H105      1.0  0.60271  0.48754  0.59684  1.0000
  H   H106      1.0  0.89601  0.66495  0.7463000000000001  1.0000
  H   H107      1.0  0.97853  0.8078099999999998  0.56156  1.0000
  H   H108      1.0  0.2128  0.67449  0.60291  1.0000
  H   H109      1.0  0.71341  0.80711  0.59021  1.0000
  H   H110      1.0  0.54036  0.83165  0.50902  1.0000
  H   H111      1.0  0.24249000000000004  0.9162499999999998  0.7855  1.0000
  H   H112      1.0  0.9965899999999999  0.73532  0.7744  1.0000
  H   H113      1.0  0.047619999999999996  0.73125  0.56841  1.0000
  H   H114      1.0  0.54645  0.9733  0.44329  1.0000
  H   H115      1.0  0.8592100000000001  0.93654  0.6147500000000001  1.0000
  H   H116      1.0  0.9204300000000001  0.81125  0.76707  1.0000
  H   H117      1.0  0.67556  0.96182  0.53912  1.0000
  H   H118      1.0  0.1603  0.58856  0.63001  1.0000
  H   H119      1.0  0.15485  0.86587  0.70359  1.0000
  H   H120      1.0  0.30729  0.98157  0.81688  1.0000
  H   H121      1.0  0.153  0.91064  0.42011  1.0000
  H   H122      1.0  0.8145800000000001  0.96556  0.80768  1.0000
  H   H123      1.0  0.32811  0.86065  0.49741  1.0000
  H   H124      1.0  0.72722  0.91308  0.72775  1.0000
  H   H125      1.0  0.09305  0.03867000000000001  0.9723000000000003  1.0000
  H   H126      1.0  0.90066  0.98751  0.9051000000000002  1.0000
  H   H127      1.0  0.39662  0.16757999999999995  0.25813  1.0000
  H   H128      1.0  0.48333  0.30979  0.44377000000000005  1.0000
  H   H129      1.0  0.72553  0.17762999999999995  0.3979  1.0000
  H   H130      1.0  0.21973000000000004  0.30823  0.41729000000000005  1.0000
  H   H131      1.0  0.046130000000000004  0.33217999999999986  0.49765000000000004  1.0000
  H   H132      1.0  0.7377  0.4204599999999999  0.2245  1.0000
  H   H133      1.0  0.49631  0.23846  0.22968  1.0000
  H   H134      1.0  0.55604  0.23359  0.43543  1.0000
  H   H135      1.0  0.035960000000000006  0.47478  0.55881  1.0000
  H   H136      1.0  0.34948  0.4387599999999999  0.3892  1.0000
  H   H137      1.0  0.41720000000000007  0.31405  0.23843000000000003  1.0000
  H   H138      1.0  0.16535  0.46321999999999997  0.4640000000000001  1.0000
  H   H139      1.0  0.67334  0.09158  0.37018  1.0000
  H   H140      1.0  0.65314  0.3711399999999999  0.30719  1.0000
  H   H141      1.0  0.80011  0.4810299999999999  0.18382000000000004  1.0000
  H   H142      1.0  0.64961  0.40866  0.58164  1.0000
  H   H143      1.0  0.30442  0.4640299999999999  0.19346000000000002  1.0000
  H   H144      1.0  0.83057  0.35903  0.5074  1.0000
  H   H145      1.0  0.22112000000000004  0.4125899999999999  0.27484  1.0000
  H   H146      1.0  0.57669  0.53612  0.028440000000000007  1.0000
  H   H147      1.0  0.38672  0.48761  0.09941  1.0000
  H   H148      1.0  0.10807000000000001  0.6682399999999997  0.24201000000000003  1.0000
  H   H149      1.0  0.022010000000000005  0.8101199999999997  0.05672  1.0000
  H   H150      1.0  0.77646  0.67906  0.10356  1.0000
  H   H151      1.0  0.28606  0.80814  0.08336000000000002  1.0000
  H   H152      1.0  0.45998999999999995  0.83151  0.00307  1.0000
  H   H153      1.0  0.76446  0.9218  0.27385  1.0000
  H   H154      1.0  0.00878  0.73961  0.27103  1.0000
  H   H155      1.0  0.9481700000000001  0.73416  0.06530000000000001  1.0000
  H   H156      1.0  0.46974  0.9739199999999998  0.9418400000000001  1.0000
  H   H157      1.0  0.15511  0.9389299999999998  0.11068000000000001  1.0000
  H   H158      1.0  0.08894  0.8149399999999998  0.26199  1.0000
  H   H159      1.0  0.33927  0.9628  0.03574  1.0000
  H   H160      1.0  0.82869  0.5929399999999998  0.13066  1.0000
  H   H161      1.0  0.8517000000000002  0.87236  0.19134  1.0000
  H   H162      1.0  0.70106  0.9829199999999998  0.31429000000000007  1.0000
  H   H163      1.0  0.8584  0.90795  0.9211600000000001  1.0000
  H   H164      1.0  0.19684  0.96458  0.30779  1.0000
  H   H165      1.0  0.6763300000000001  0.8582999999999997  0.99403  1.0000
  H   H166      1.0  0.28291  0.91297  0.2267  1.0000
  H   H167      1.0  0.9203400000000002  0.03736999999999999  0.47140000000000004  1.0000
  H   H168      1.0  0.11162000000000001  0.9879999999999998  0.40170000000000006  1.0000
  C   C1        1.0  0.69574  0.62866  0.6106  1.0000
  C   C2        1.0  0.51816  0.8447  0.7102200000000001  1.0000
  C   C3        1.0  0.509  0.70658  0.6081200000000001  1.0000
  C   C4        1.0  0.46525  0.55402  0.8019000000000002  1.0000
  C   C5        1.0  0.55355  0.68451  0.66389  1.0000
  C   C6        1.0  0.46991  0.77099  0.67073  1.0000
  C   C7        1.0  0.35340000000000005  0.8393  0.6332900000000001  1.0000
  C   C8        1.0  0.9003700000000001  0.6004899999999997  0.52103  1.0000
  C   C9        1.0  0.7832699999999999  0.65818  0.57868  1.0000
  C   C10       1.0  0.8820000000000001  0.64417  0.53367  1.0000
  C   C11       1.0  0.56048  0.61273  0.70966  1.0000
  C   C12       1.0  0.36895  0.58259  0.77294  1.0000
  C   C13       1.0  0.50618  0.74858  0.72701  1.0000
  C   C14       1.0  0.46946  0.74945  0.6113400000000001  1.0000
  C   C15       1.0  0.03413  0.5485499999999998  0.45053  1.0000
  C   C16       1.0  0.70631  0.5853599999999998  0.59349  1.0000
  C   C17       1.0  0.54871  0.7060099999999998  0.72355  1.0000
  C   C18       1.0  0.8092700000000002  0.57113  0.5502500000000001  1.0000
  C   C19       1.0  0.37909  0.8815399999999998  0.6479400000000001  1.0000
  C   C20       1.0  0.4167  0.6113199999999998  0.7269500000000001  1.0000
  C   C21       1.0  0.2761  0.50988  0.8532600000000001  1.0000
  C   C22       1.0  0.2311  0.58338  0.4392200000000001  1.0000
  C   C23       1.0  0.61  0.55586  0.7860000000000001  1.0000
  C   C24       1.0  0.14438  0.60908  0.47569  1.0000
  C   C25       1.0  0.65787  0.58549  0.7408100000000001  1.0000
  C   C26       1.0  0.39607  0.47987  0.9299800000000001  1.0000
  C   C27       1.0  0.49252  0.50444  0.89693  1.0000
  C   C28       1.0  0.80489  0.12894  0.8909200000000002  1.0000
  C   C29       1.0  0.97848  0.34433  0.78886  1.0000
  C   C30       1.0  0.98907  0.20706  0.8922200000000002  1.0000
  C   C31       1.0  0.03168000000000001  0.05369  0.6983600000000002  1.0000
  C   C32       1.0  0.94505  0.18452  0.83673  1.0000
  C   C33       1.0  0.028300000000000002  0.27081  0.8286500000000001  1.0000
  C   C34       1.0  0.14451  0.33922  0.8652900000000001  1.0000
  C   C35       1.0  0.60191  0.10091999999999998  0.9809000000000001  1.0000
  C   C36       1.0  0.7156200000000001  0.15848  0.9223400000000003  1.0000
  C   C37       1.0  0.6176400000000001  0.14453999999999995  0.9675200000000002  1.0000
  C   C38       1.0  0.93817  0.11251999999999997  0.7914  1.0000
  C   C39       1.0  0.12861  0.0819  0.7274600000000001  1.0000
  C   C40       1.0  0.99211  0.24796  0.7727000000000002  1.0000
  C   C41       1.0  0.02851000000000001  0.24982  0.8883500000000002  1.0000
  C   C42       1.0  0.46950000000000003  0.048809999999999985  0.05091  1.0000
  C   C43       1.0  0.79715  0.08578999999999998  0.90878  1.0000
  C   C44       1.0  0.9498100000000002  0.20549  0.7767600000000001  1.0000
  C   C45       1.0  0.69503  0.07161  0.95228  1.0000
  C   C46       1.0  0.11737000000000002  0.38141  0.8507400000000002  1.0000
  C   C47       1.0  0.08176  0.11068999999999997  0.77383  1.0000
  C   C48       1.0  0.22003000000000003  0.00926  0.64617  1.0000
  C   C49       1.0  0.27185  0.08359  0.06280000000000001  1.0000
  C   C50       1.0  0.88715  0.055879999999999985  0.71464  1.0000
  C   C51       1.0  0.358  0.10942  0.026670000000000003  1.0000
  C   C52       1.0  0.84019  0.08554999999999997  0.7602900000000001  1.0000
  C   C53       1.0  0.09927000000000001  0.9795499999999998  0.5694700000000001  1.0000
  C   C54       1.0  0.003260000000000003  0.004339999999999998  0.6028400000000002  1.0000
  C   C55       1.0  0.29804  0.62896  0.10905  1.0000
  C   C56       1.0  0.48139  0.84432  0.20983  1.0000
  C   C57       1.0  0.48211  0.70684  0.10662  1.0000
  C   C58       1.0  0.527  0.5541199999999997  0.30214  1.0000
  C   C59       1.0  0.44175  0.6845399999999998  0.1625  1.0000
  C   C60       1.0  0.52727  0.77071  0.16969000000000006  1.0000
  C   C61       1.0  0.64268  0.83881  0.13242000000000004  1.0000
  C   C62       1.0  0.08933  0.60057  0.020710000000000003  1.0000
  C   C63       1.0  0.20733  0.65839  0.07788  1.0000
  C   C64       1.0  0.10627  0.64426  0.03351  1.0000
  C   C65       1.0  0.43391  0.61281  0.20863000000000004  1.0000
  C   C66       1.0  0.62419  0.58221  0.27373  1.0000
  C   C67       1.0  0.49468000000000006  0.74812  0.22596000000000002  1.0000
  C   C68       1.0  0.52257  0.74954  0.11004  1.0000
  C   C69       1.0  0.9537  0.54831  0.9513  1.0000
  C   C70       1.0  0.28904  0.58574  0.09151  1.0000
  C   C71       1.0  0.45115000000000005  0.7057299999999997  0.22234000000000004  1.0000
  C   C72       1.0  0.18407  0.5713499999999999  0.04886  1.0000
  C   C73       1.0  0.6172100000000001  0.88106  0.14720000000000003  1.0000
  C   C74       1.0  0.57761  0.6108999999999998  0.22701  1.0000
  C   C75       1.0  0.71445  0.50867  0.35377000000000003  1.0000
  C   C76       1.0  0.75363  0.58235  0.9419000000000001  1.0000
  C   C77       1.0  0.3824  0.55638  0.28503  1.0000
  C   C78       1.0  0.84146  0.60839  0.97756  1.0000
  C   C79       1.0  0.33559000000000005  0.5860399999999998  0.23918000000000003  1.0000
  C   C80       1.0  0.5955  0.48009  0.4310900000000001  1.0000
  C   C81       1.0  0.4997400000000001  0.50547  0.39807000000000003  1.0000
  C   C82       1.0  0.20183  0.12932  0.39044  1.0000
  C   C83       1.0  0.02094  0.34521  0.29144  1.0000
  C   C84       1.0  0.01809  0.20755  0.3935100000000001  1.0000
  C   C85       1.0  0.97374  0.05446  0.19740000000000002  1.0000
  C   C86       1.0  0.058300000000000005  0.18521  0.33743  1.0000
  C   C87       1.0  0.97443  0.27164  0.33097  1.0000
  C   C88       1.0  0.8596800000000001  0.33996  0.36881  1.0000
  C   C89       1.0  0.40979  0.10065  0.47912000000000005  1.0000
  C   C90       1.0  0.29265  0.15859999999999994  0.4217100000000001  1.0000
  C   C91       1.0  0.39322  0.14435  0.46628000000000003  1.0000
  C   C92       1.0  0.06605000000000001  0.11351  0.29067  1.0000
  C   C93       1.0  0.8763900000000001  0.08298  0.22529  1.0000
  C   C94       1.0  0.006570000000000003  0.24900999999999995  0.27449000000000007  1.0000
  C   C95       1.0  0.9784400000000001  0.25039  0.39045  1.0000
  C   C96       1.0  0.54306  0.04842999999999999  0.54975  1.0000
  C   C97       1.0  0.21083  0.0861  0.40778  1.0000
  C   C98       1.0  0.04929000000000001  0.20645999999999995  0.27775  1.0000
  C   C99       1.0  0.31544  0.07157999999999998  0.4505900000000001  1.0000
  C   C100      1.0  0.88499  0.38218  0.35432000000000013  1.0000
  C   C101      1.0  0.9225699999999999  0.11186  0.2718900000000001  1.0000
  C   C102      1.0  0.78709  0.00847  0.14665000000000003  1.0000
  C   C103      1.0  0.74275  0.08216  0.56038  1.0000
  C   C104      1.0  0.11818000000000001  0.05658999999999999  0.21468000000000004  1.0000
  C   C105      1.0  0.65636  0.10811  0.52377  1.0000
  C   C106      1.0  0.16457  0.08649  0.26029  1.0000
  C   C107      1.0  0.9061200000000001  0.9793899999999998  0.06942  1.0000
  C   C108      1.0  0.00145  0.00511  0.10194  1.0000
  C   C109      1.0  0.7008100000000002  0.3701699999999999  0.8918500000000001  1.0000
  C   C110      1.0  0.5203  0.15492  0.7905100000000002  1.0000
  C   C111      1.0  0.5164700000000002  0.29242  0.8938300000000001  1.0000
  C   C112      1.0  0.46625000000000005  0.44572  0.70037  1.0000
  C   C113      1.0  0.5572800000000001  0.3147799999999999  0.8380600000000001  1.0000
  C   C114      1.0  0.47282  0.22852  0.8305500000000001  1.0000
  C   C115      1.0  0.35762  0.16023  0.86734  1.0000
  C   C116      1.0  0.9078400000000001  0.3979999999999999  0.98143  1.0000
  C   C117      1.0  0.79206  0.34058  0.9224000000000002  1.0000
  C   C118      1.0  0.89221  0.3544299999999999  0.96739  1.0000
  C   C119      1.0  0.56337  0.38674999999999987  0.79274  1.0000
  C   C120      1.0  0.37052  0.41732  0.72902  1.0000
  C   C121      1.0  0.50555  0.25122  0.7743800000000001  1.0000
  C   C122      1.0  0.4764999999999999  0.24966999999999995  0.89023  1.0000
  C   C123      1.0  0.04014  0.44962  0.05324000000000001  1.0000
  C   C124      1.0  0.70889  0.41324  0.91033  1.0000
  C   C125      1.0  0.54846  0.29367  0.7781600000000002  1.0000
  C   C126      1.0  0.81301  0.42735  0.9536700000000001  1.0000
  C   C127      1.0  0.38358  0.118  0.85248  1.0000
  C   C128      1.0  0.4193  0.3884799999999999  0.7750700000000003  1.0000
  C   C129      1.0  0.27699  0.49106  0.6497500000000002  1.0000
  C   C130      1.0  0.24071000000000004  0.41588  0.06296  1.0000
  C   C131      1.0  0.61119  0.4436599999999999  0.71676  1.0000
  C   C132      1.0  0.1547  0.39017  0.025860000000000005  1.0000
  C   C133      1.0  0.66005  0.41394  0.76204  1.0000
  C   C134      1.0  0.39366000000000007  0.51954  0.57163  1.0000
  C   C135      1.0  0.49060000000000004  0.4943699999999999  0.6043  1.0000
  C   C136      1.0  0.79791  0.87031  0.60975  1.0000
  C   C137      1.0  0.9766499999999999  0.6547699999999997  0.7124400000000001  1.0000
  C   C138      1.0  0.9818  0.7918  0.60808  1.0000
  C   C139      1.0  0.03523  0.94537  0.80109  1.0000
  C   C140      1.0  0.94043  0.81451  0.6636300000000002  1.0000
  C   C141      1.0  0.023810000000000008  0.7280599999999998  0.67173  1.0000
  C   C142      1.0  0.13834  0.65936  0.63515  1.0000
  C   C143      1.0  0.59214  0.8984499999999997  0.5195600000000001  1.0000
  C   C144      1.0  0.70808  0.8408499999999998  0.57826  1.0000
  C   C145      1.0  0.60867  0.85483  0.5329600000000001  1.0000
  C   C146      1.0  0.93633  0.88656  0.7088100000000002  1.0000
  C   C147      1.0  0.13007  0.91642  0.77249  1.0000
  C   C148      1.0  0.99058  0.75108  0.7277300000000001  1.0000
  C   C149      1.0  0.02122  0.74895  0.61195  1.0000
  C   C150      1.0  0.4608900000000001  0.95021  0.44733  1.0000
  C   C151      1.0  0.78852  0.9134899999999998  0.59213  1.0000
  C   C152      1.0  0.9480799999999999  0.79362  0.72364  1.0000
  C   C153      1.0  0.685  0.9277299999999998  0.5485800000000001  1.0000
  C   C154      1.0  0.11275  0.6172599999999998  0.65038  1.0000
  C   C155      1.0  0.08052000000000001  0.8876499999999998  0.72644  1.0000
  C   C156      1.0  0.22557999999999997  0.9903599999999998  0.85122  1.0000
  C   C157      1.0  0.26130000000000003  0.9164599999999998  0.4362400000000001  1.0000
  C   C158      1.0  0.89015  0.9439099999999998  0.78481  1.0000
  C   C159      1.0  0.3468  0.8907299999999999  0.47363000000000005  1.0000
  C   C160      1.0  0.84049  0.9142  0.73966  1.0000
  C   C161      1.0  0.11012000000000001  0.019219999999999994  0.9297600000000003  1.0000
  C   C162      1.0  0.012630000000000002  0.9942  0.8973400000000001  1.0000
  C   C163      1.0  0.29639  0.37199  0.39606  1.0000
  C   C164      1.0  0.48050000000000004  0.15748  0.29089  1.0000
  C   C165      1.0  0.48535  0.29402  0.39698000000000006  1.0000
  C   C166      1.0  0.52732  0.4465599999999999  0.20382000000000003  1.0000
  C   C167      1.0  0.44067000000000006  0.31684  0.34191  1.0000
  C   C168      1.0  0.52811  0.23079  0.33212  1.0000
  C   C169      1.0  0.6487  0.16232999999999995  0.36638  1.0000
  C   C170      1.0  0.08976  0.3993  0.48524000000000006  1.0000
  C   C171      1.0  0.21102000000000004  0.34206  0.4283600000000001  1.0000
  C   C172      1.0  0.11117000000000002  0.35569  0.47314000000000006  1.0000
  C   C173      1.0  0.43249000000000004  0.38884  0.29757  1.0000
  C   C174      1.0  0.62474  0.41968  0.23559000000000002  1.0000
  C   C175      1.0  0.49148  0.25397  0.27662  1.0000
  C   C176      1.0  0.52688  0.25137  0.39227000000000006  1.0000
  C   C177      1.0  0.95292  0.45081  0.55501  1.0000
  C   C178      1.0  0.28227  0.41532  0.41248  1.0000
  C   C179      1.0  0.44720000000000004  0.2963  0.28151  1.0000
  C   C180      1.0  0.17844  0.42911  0.45555000000000007  1.0000
  C   C181      1.0  0.6233  0.12021  0.35073  1.0000
  C   C182      1.0  0.57704  0.39149  0.28229  1.0000
  C   C183      1.0  0.71594  0.4895899999999999  0.15011000000000002  1.0000
  C   C184      1.0  0.7571600000000002  0.41529  0.56595  1.0000
  C   C185      1.0  0.382  0.44389  0.21836  1.0000
  C   C186      1.0  0.84564  0.38976  0.53008  1.0000
  C   C187      1.0  0.33448  0.4147299999999999  0.26436  1.0000
  C   C188      1.0  0.59605  0.51746  0.07159000000000001  1.0000
  C   C189      1.0  0.49967  0.49371  0.10600000000000001  1.0000
  C   C190      1.0  0.20898  0.87209  0.10424  1.0000
  C   C191      1.0  0.02345  0.6583499999999998  0.20953000000000002  1.0000
  C   C192      1.0  0.01986  0.79453  0.10355  1.0000
  C   C193      1.0  0.9742300000000002  0.9474899999999998  0.29599  1.0000
  C   C194      1.0  0.06489  0.81741  0.15855  1.0000
  C   C195      1.0  0.9762500000000001  0.7317099999999997  0.16862  1.0000
  C   C196      1.0  0.85377  0.6636099999999998  0.13474  1.0000
  C   C197      1.0  0.41575  0.89872  0.015080000000000001  1.0000
  C   C198      1.0  0.29458  0.8419  0.07209000000000002  1.0000
  C   C199      1.0  0.39456  0.8552  0.027360000000000006  1.0000
  C   C200      1.0  0.07207  0.88962  0.20249  1.0000
  C   C201      1.0  0.87775  0.9208299999999998  0.2634  1.0000
  C   C202      1.0  0.01355  0.75494  0.22405000000000005  1.0000
  C   C203      1.0  0.9777  0.7520299999999998  0.10840000000000001  1.0000
  C   C204      1.0  0.55318  0.9499499999999997  0.94597  1.0000
  C   C205      1.0  0.22264000000000003  0.91532  0.08755  1.0000
  C   C206      1.0  0.05841  0.7971199999999998  0.21900000000000003  1.0000
  C   C207      1.0  0.3265100000000001  0.92875  0.04444  1.0000
  C   C208      1.0  0.87916  0.62144  0.15011000000000002  1.0000
  C   C209      1.0  0.92702  0.8926  0.21679000000000004  1.0000
  C   C210      1.0  0.78427  0.9912199999999998  0.3486  1.0000
  C   C211      1.0  0.75018  0.9145199999999998  0.93614  1.0000
  C   C212      1.0  0.12  0.9445699999999998  0.28229  1.0000
  C   C213      1.0  0.66114  0.88897  0.9713300000000002  1.0000
  C   C214      1.0  0.16915000000000002  0.91535  0.2364  1.0000
  C   C215      1.0  0.90208  0.01874  0.42806  1.0000
  C   C216      1.0  0.99903  0.99449  0.39436  1.0000
  N   N1        1.0  0.60328  0.64194  0.66057  1.0000
  N   N2        1.0  0.48137  0.8844699999999998  0.6961400000000002  1.0000
  N   N3        1.0  0.01735  0.58679  0.48284  1.0000
  N   N4        1.0  0.16207  0.54569  0.42381  1.0000
  N   N5        1.0  0.44234  0.8155499999999998  0.67361  1.0000
  N   N6        1.0  0.41472  0.52394  0.84759  1.0000
  N   N7        1.0  0.26151  0.48328  0.90244  1.0000
  N   N8        1.0  0.89625  0.14198999999999995  0.8406  1.0000
  N   N9        1.0  0.01432  0.38416  0.80285  1.0000
  N   N10       1.0  0.4855  0.08717  0.01916  1.0000
  N   N11       1.0  0.34173  0.04586  0.07768000000000001  1.0000
  N   N12       1.0  0.0557  0.31531  0.8252200000000001  1.0000
  N   N13       1.0  0.08156  0.02366  0.65217  1.0000
  N   N14       1.0  0.23409000000000002  0.9826399999999997  0.5968  1.0000
  N   N15       1.0  0.39202  0.64209  0.15906000000000003  1.0000
  N   N16       1.0  0.51726  0.88404  0.19575000000000006  1.0000
  N   N17       1.0  0.9704300000000001  0.58659  0.98348  1.0000
  N   N18       1.0  0.82399  0.54499  0.92575  1.0000
  N   N19       1.0  0.55567  0.8151499999999998  0.17288  1.0000
  N   N20       1.0  0.5769  0.52401  0.34835  1.0000
  N   N21       1.0  0.72899  0.4821299999999999  0.4031600000000001  1.0000
  N   N22       1.0  0.10767999999999998  0.14265  0.34055  1.0000
  N   N23       1.0  0.9849500000000001  0.38501  0.30579  1.0000
  N   N24       1.0  0.52765  0.08652  0.51703  1.0000
  N   N25       1.0  0.67177  0.04504  0.57636  1.0000
  N   N26       1.0  0.94668  0.31617  0.32818  1.0000
  N   N27       1.0  0.92422  0.023989999999999994  0.15158  1.0000
  N   N28       1.0  0.77283  0.98153  0.09761  1.0000
  N   N29       1.0  0.60715  0.35722  0.84163  1.0000
  N   N30       1.0  0.48456  0.11512999999999997  0.8043500000000001  1.0000
  N   N31       1.0  0.025420000000000005  0.4117599999999999  0.01975  1.0000
  N   N32       1.0  0.16892  0.45288  0.07979  1.0000
  N   N33       1.0  0.44505  0.18401999999999996  0.8272200000000001  1.0000
  N   N34       1.0  0.41486  0.47585999999999995  0.65453  1.0000
  N   N35       1.0  0.26088  0.51744  0.60027  1.0000
  N   N36       1.0  0.89161  0.8571499999999997  0.65985  1.0000
  N   N37       1.0  0.012420000000000004  0.6148499999999998  0.69881  1.0000
  N   N38       1.0  0.47546  0.9123199999999998  0.48065  1.0000
  N   N39       1.0  0.33277  0.9534799999999998  0.42009  1.0000
  N   N40       1.0  0.0513  0.68354  0.6753000000000001  1.0000
  N   N41       1.0  0.08757  0.9754599999999998  0.8468400000000001  1.0000
  N   N42       1.0  0.24245  0.016819999999999995  0.9006900000000002  1.0000
  N   N43       1.0  0.38997  0.3592599999999999  0.34632  1.0000
  N   N44       1.0  0.51889  0.11762999999999997  0.30345000000000005  1.0000
  N   N45       1.0  0.9718000000000001  0.4125199999999999  0.5231600000000001  1.0000
  N   N46       1.0  0.82443  0.45328  0.58125  1.0000
  N   N47       1.0  0.55727  0.18635999999999994  0.32763  1.0000
  N   N48       1.0  0.57743  0.4755799999999999  0.15654  1.0000
  N   N49       1.0  0.73052  0.51489  0.09941  1.0000
  N   N50       1.0  0.11575000000000003  0.8596999999999998  0.15409  1.0000
  N   N51       1.0  0.98443  0.6186  0.19696  1.0000
  N   N52       1.0  0.53416  0.91167  0.9774800000000001  1.0000
  N   N53       1.0  0.68239  0.95246  0.9205600000000002  1.0000
  N   N54       1.0  0.94625  0.68741  0.17322  1.0000
  N   N55       1.0  0.9226700000000001  0.9765799999999998  0.34320000000000006  1.0000
  N   N56       1.0  0.76858  0.01669  0.3992200000000001  1.0000
