data_image0
_chemical_formula_structural       Cd24H104C192N80Cl8
_chemical_formula_sum              "Cd24 H104 C192 N80 Cl8"
_cell_length_a       20.51186
_cell_length_b       28.42457
_cell_length_c       28.42457
_cell_angle_alpha    90.0
_cell_angle_beta     90.0
_cell_angle_gamma    90.0

_symmetry_space_group_name_H-M    'P 1'
_symmetry_Int_Tables_number       1

loop_
  _symmetry_equiv_pos_as_xyz
  'x,y,z'

loop_
  _atom_site_type_symbol
  _atom_site_label
  _atom_site_symmetry_multiplicity
  _atom_site_fract_x
  _atom_site_fract_y
  _atom_site_fract_z
  _atom_site_occupancy
  Cd  Cd1       1.0  0.5  0.01965  0.10651  1.0000
  Cd  Cd2       1.0  0.64381  0.53617  0.30241  1.0000
  Cd  Cd3       1.0  0.5  0.60651  0.51965  1.0000
  Cd  Cd4       1.0  0.64381  0.30241  0.46383  1.0000
  Cd  Cd5       1.0  0.64381  0.19759  0.96383  1.0000
  Cd  Cd6       1.0  0.35617999999999994  0.80241  0.03617  1.0000
  Cd  Cd7       1.0  0.35617999999999994  0.96383  0.80241  1.0000
  Cd  Cd8       1.0  0.35617999999999994  0.46383  0.6975899999999999  1.0000
  Cd  Cd9       1.0  0.35617999999999994  0.6975899999999999  0.53617  1.0000
  Cd  Cd10      1.0  0.5  0.8935  0.01965  1.0000
  Cd  Cd11      1.0  0.64381  0.6975899999999999  0.53617  1.0000
  Cd  Cd12      1.0  0.35617999999999994  0.30241  0.46383  1.0000
  Cd  Cd13      1.0  0.64381  0.03617  0.19759  1.0000
  Cd  Cd14      1.0  0.5  0.10651  0.9803499999999998  1.0000
  Cd  Cd15      1.0  0.64381  0.96383  0.80241  1.0000
  Cd  Cd16      1.0  0.64381  0.80241  0.03617  1.0000
  Cd  Cd17      1.0  0.5  0.9803499999999998  0.8935  1.0000
  Cd  Cd18      1.0  0.35617999999999994  0.03617  0.19759  1.0000
  Cd  Cd19      1.0  0.5  0.3934899999999999  0.48035  1.0000
  Cd  Cd20      1.0  0.35617999999999994  0.19759  0.96383  1.0000
  Cd  Cd21      1.0  0.5  0.51965  0.3934899999999999  1.0000
  Cd  Cd22      1.0  0.64381  0.46383  0.6975899999999999  1.0000
  Cd  Cd23      1.0  0.35617999999999994  0.53617  0.30241  1.0000
  Cd  Cd24      1.0  0.5  0.48035  0.60651  1.0000
  H   H1        1.0  0.1897  0.74204  0.41802  1.0000
  H   H2        1.0  0.28515  0.19936999999999994  0.04854  1.0000
  H   H3        1.0  0.8103  0.25796  0.5819799999999999  1.0000
  H   H4        1.0  0.71485  0.30063  0.54854  1.0000
  H   H5        1.0  0.93384  0.34836  0.59271  1.0000
  H   H6        1.0  0.8103  0.91802  0.24204  1.0000
  H   H7        1.0  0.28515  0.04854  0.8006299999999998  1.0000
  H   H8        1.0  0.06616  0.59271  0.65164  1.0000
  H   H9        1.0  0.28515  0.69937  0.45146  1.0000
  H   H10       1.0  0.8352199999999997  0.36655999999999994  0.68531  1.0000
  H   H11       1.0  0.16478  0.68531  0.63344  1.0000
  H   H12       1.0  0.2483  0.81406  0.24697  1.0000
  H   H13       1.0  0.8352199999999997  0.63344  0.31469  1.0000
  H   H14       1.0  0.71485  0.54854  0.69937  1.0000
  H   H15       1.0  0.16478  0.86656  0.8146899999999999  1.0000
  H   H16       1.0  0.71485  0.19936999999999994  0.04854  1.0000
  H   H17       1.0  0.28515  0.8006299999999998  0.9514599999999999  1.0000
  H   H18       1.0  0.74022  0.09002999999999997  0.15214999999999995  1.0000
  H   H19       1.0  0.2483  0.24697  0.18594  1.0000
  H   H20       1.0  0.8352199999999997  0.68531  0.63344  1.0000
  H   H21       1.0  0.7517  0.75304  0.81406  1.0000
  H   H22       1.0  0.06616  0.84837  0.90729  1.0000
  H   H23       1.0  0.93384  0.59271  0.65164  1.0000
  H   H24       1.0  0.16478  0.8146899999999999  0.13344  1.0000
  H   H25       1.0  0.94826  0.22013  0.72013  1.0000
  H   H26       1.0  0.71485  0.8006299999999998  0.9514599999999999  1.0000
  H   H27       1.0  0.7517  0.81406  0.24697  1.0000
  H   H28       1.0  0.71485  0.69937  0.45146  1.0000
  H   H29       1.0  0.05174  0.27987  0.22013  1.0000
  H   H30       1.0  0.1897  0.5819799999999999  0.74204  1.0000
  H   H31       1.0  0.74022  0.8478499999999999  0.09002999999999997  1.0000
  H   H32       1.0  0.06616  0.90729  0.15164  1.0000
  H   H33       1.0  0.74022  0.59003  0.34785  1.0000
  H   H34       1.0  0.05174  0.72013  0.7798699999999997  1.0000
  H   H35       1.0  0.1897  0.08198  0.75796  1.0000
  H   H36       1.0  0.05174  0.7798699999999997  0.27987  1.0000
  H   H37       1.0  0.1897  0.75796  0.91802  1.0000
  H   H38       1.0  0.74022  0.90997  0.8478499999999999  1.0000
  H   H39       1.0  0.94826  0.7798699999999997  0.27987  1.0000
  H   H40       1.0  0.25978  0.34785  0.40996999999999995  1.0000
  H   H41       1.0  0.8103  0.5819799999999999  0.74204  1.0000
  H   H42       1.0  0.74022  0.65215  0.59003  1.0000
  H   H43       1.0  0.28515  0.45146  0.30063  1.0000
  H   H44       1.0  0.7517  0.24697  0.18594  1.0000
  H   H45       1.0  0.93384  0.65164  0.4072899999999999  1.0000
  H   H46       1.0  0.71485  0.04854  0.8006299999999998  1.0000
  H   H47       1.0  0.28515  0.54854  0.69937  1.0000
  H   H48       1.0  0.25978  0.65215  0.59003  1.0000
  H   H49       1.0  0.7517  0.7469699999999998  0.31405999999999995  1.0000
  H   H50       1.0  0.7517  0.18594  0.75304  1.0000
  H   H51       1.0  0.93384  0.90729  0.15164  1.0000
  H   H52       1.0  0.2483  0.7469699999999998  0.31405999999999995  1.0000
  H   H53       1.0  0.74022  0.15214999999999995  0.90997  1.0000
  H   H54       1.0  0.25978  0.90997  0.8478499999999999  1.0000
  H   H55       1.0  0.71485  0.9514599999999999  0.19936999999999994  1.0000
  H   H56       1.0  0.16478  0.18531  0.86656  1.0000
  H   H57       1.0  0.8103  0.24204  0.08198  1.0000
  H   H58       1.0  0.25978  0.15214999999999995  0.90997  1.0000
  H   H59       1.0  0.1897  0.24204  0.08198  1.0000
  H   H60       1.0  0.2483  0.75304  0.81406  1.0000
  H   H61       1.0  0.93384  0.4072899999999999  0.34836  1.0000
  H   H62       1.0  0.16478  0.13344  0.18531  1.0000
  H   H63       1.0  0.93384  0.84837  0.90729  1.0000
  H   H64       1.0  0.2483  0.25303  0.68594  1.0000
  H   H65       1.0  0.28515  0.9514599999999999  0.19936999999999994  1.0000
  H   H66       1.0  0.7517  0.31405999999999995  0.25303  1.0000
  H   H67       1.0  0.8352199999999997  0.8146899999999999  0.13344  1.0000
  H   H68       1.0  0.94826  0.72013  0.7798699999999997  1.0000
  H   H69       1.0  0.8103  0.75796  0.91802  1.0000
  H   H70       1.0  0.25978  0.59003  0.34785  1.0000
  H   H71       1.0  0.25978  0.8478499999999999  0.09002999999999997  1.0000
  H   H72       1.0  0.06616  0.15164  0.09271  1.0000
  H   H73       1.0  0.8352199999999997  0.13344  0.18531  1.0000
  H   H74       1.0  0.74022  0.34785  0.40996999999999995  1.0000
  H   H75       1.0  0.28515  0.30063  0.54854  1.0000
  H   H76       1.0  0.8352199999999997  0.18531  0.86656  1.0000
  H   H77       1.0  0.93384  0.15164  0.09271  1.0000
  H   H78       1.0  0.94826  0.27987  0.22013  1.0000
  H   H79       1.0  0.16478  0.31469  0.36655999999999994  1.0000
  H   H80       1.0  0.8103  0.74204  0.41802  1.0000
  H   H81       1.0  0.7517  0.25303  0.68594  1.0000
  H   H82       1.0  0.25978  0.09002999999999997  0.15214999999999995  1.0000
  H   H83       1.0  0.71485  0.45146  0.30063  1.0000
  H   H84       1.0  0.8103  0.08198  0.75796  1.0000
  H   H85       1.0  0.8352199999999997  0.86656  0.8146899999999999  1.0000
  H   H86       1.0  0.16478  0.63344  0.31469  1.0000
  H   H87       1.0  0.2483  0.18594  0.75304  1.0000
  H   H88       1.0  0.1897  0.91802  0.24204  1.0000
  H   H89       1.0  0.7517  0.68594  0.7469699999999998  1.0000
  H   H90       1.0  0.1897  0.25796  0.5819799999999999  1.0000
  H   H91       1.0  0.06616  0.34836  0.59271  1.0000
  H   H92       1.0  0.1897  0.41802  0.25796  1.0000
  H   H93       1.0  0.16478  0.36655999999999994  0.68531  1.0000
  H   H94       1.0  0.25978  0.40996999999999995  0.65215  1.0000
  H   H95       1.0  0.06616  0.4072899999999999  0.34836  1.0000
  H   H96       1.0  0.2483  0.31405999999999995  0.25303  1.0000
  H   H97       1.0  0.8352199999999997  0.31469  0.36655999999999994  1.0000
  H   H98       1.0  0.05174  0.22013  0.72013  1.0000
  H   H99       1.0  0.06616  0.09271  0.84837  1.0000
  H   H100      1.0  0.93384  0.09271  0.84837  1.0000
  H   H101      1.0  0.2483  0.68594  0.7469699999999998  1.0000
  H   H102      1.0  0.8103  0.41802  0.25796  1.0000
  H   H103      1.0  0.06616  0.65164  0.4072899999999999  1.0000
  H   H104      1.0  0.74022  0.40996999999999995  0.65215  1.0000
  C   C1        1.0  0.1914  0.35244999999999993  0.65533  1.0000
  C   C2        1.0  0.053079999999999995  0.2073  0.14899  1.0000
  C   C3        1.0  0.24476999999999993  0.13686  0.87649  1.0000
  C   C4        1.0  0.25896  0.57862  0.68478  1.0000
  C   C5        1.0  0.27985  0.14213  0.09864999999999999  1.0000
  C   C6        1.0  0.8085899999999999  0.65533  0.64755  1.0000
  C   C7        1.0  0.8814699999999998  0.71804  0.34069  1.0000
  C   C8        1.0  0.8814699999999998  0.21803999999999998  0.15931  1.0000
  C   C9        1.0  0.11853  0.34069  0.28196  1.0000
  C   C10       1.0  0.17167  0.86394  0.19067999999999993  1.0000
  C   C11       1.0  0.03323  0.67242  0.38591  1.0000
  C   C12       1.0  0.8600099999999999  0.24800999999999998  0.69164  1.0000
  C   C13       1.0  0.9667699999999998  0.88591  0.17242  1.0000
  C   C14       1.0  0.33822  0.41864  0.3819799999999999  1.0000
  C   C15       1.0  0.33822  0.88198  0.91864  1.0000
  C   C16       1.0  0.053079999999999995  0.7926999999999998  0.85102  1.0000
  C   C17       1.0  0.17167  0.80932  0.86394  1.0000
  C   C18       1.0  0.053079999999999995  0.14899  0.7926999999999998  1.0000
  C   C19       1.0  0.25896  0.68478  0.42138  1.0000
  C   C20       1.0  0.6617799999999999  0.91864  0.11802  1.0000
  C   C21       1.0  0.9667699999999998  0.67242  0.38591  1.0000
  C   C22       1.0  0.20648999999999998  0.29747999999999997  0.23671999999999999  1.0000
  C   C23       1.0  0.03323  0.88591  0.17242  1.0000
  C   C24       1.0  0.8085899999999999  0.34466999999999987  0.35244999999999993  1.0000
  C   C25       1.0  0.24476999999999993  0.63686  0.62351  1.0000
  C   C26       1.0  0.6617799999999999  0.11802  0.08135999999999999  1.0000
  C   C27       1.0  0.8085899999999999  0.35244999999999993  0.65533  1.0000
  C   C28       1.0  0.20542999999999997  0.29125  0.59716  1.0000
  C   C29       1.0  0.11853  0.65931  0.71804  1.0000
  C   C30       1.0  0.74104  0.9213799999999998  0.18478  1.0000
  C   C31       1.0  0.7934999999999999  0.23671999999999999  0.70252  1.0000
  C   C32       1.0  0.72015  0.09864999999999999  0.85787  1.0000
  C   C33       1.0  0.33822  0.08135999999999999  0.88198  1.0000
  C   C34       1.0  0.6617799999999999  0.3819799999999999  0.5813599999999999  1.0000
  C   C35       1.0  0.13998  0.24800999999999998  0.69164  1.0000
  C   C36       1.0  0.13998  0.80836  0.25199  1.0000
  C   C37       1.0  0.79457  0.9028399999999998  0.20875  1.0000
  C   C38       1.0  0.8085899999999999  0.14755  0.15532999999999997  1.0000
  C   C39       1.0  0.82832  0.30931999999999993  0.63606  1.0000
  C   C40       1.0  0.03323  0.82758  0.88591  1.0000
  C   C41       1.0  0.27985  0.35787  0.59865  1.0000
  C   C42       1.0  0.20648999999999998  0.20252  0.7367199999999998  1.0000
  C   C43       1.0  0.94692  0.14899  0.7926999999999998  1.0000
  C   C44       1.0  0.17167  0.63606  0.6906799999999997  1.0000
  C   C45       1.0  0.1914  0.34466999999999987  0.35244999999999993  1.0000
  C   C46       1.0  0.33822  0.5813599999999999  0.6180199999999998  1.0000
  C   C47       1.0  0.8814699999999998  0.65931  0.71804  1.0000
  C   C48       1.0  0.74104  0.57862  0.68478  1.0000
  C   C49       1.0  0.20648999999999998  0.7367199999999998  0.7974799999999997  1.0000
  C   C50       1.0  0.8085899999999999  0.64755  0.34466999999999987  1.0000
  C   C51       1.0  0.7552299999999998  0.62351  0.36314  1.0000
  C   C52       1.0  0.25896  0.9213799999999998  0.18478  1.0000
  C   C53       1.0  0.13998  0.74801  0.80836  1.0000
  C   C54       1.0  0.8600099999999999  0.80836  0.25199  1.0000
  C   C55       1.0  0.11853  0.28196  0.65931  1.0000
  C   C56       1.0  0.82832  0.36394  0.30931999999999993  1.0000
  C   C57       1.0  0.20542999999999997  0.59716  0.70875  1.0000
  C   C58       1.0  0.03323  0.17242  0.11409  1.0000
  C   C59       1.0  0.03323  0.61409  0.67242  1.0000
  C   C60       1.0  0.9667699999999998  0.82758  0.88591  1.0000
  C   C61       1.0  0.79457  0.20875  0.09716  1.0000
  C   C62       1.0  0.7552299999999998  0.37649  0.63686  1.0000
  C   C63       1.0  0.27985  0.09864999999999999  0.85787  1.0000
  C   C64       1.0  0.24476999999999993  0.12351  0.13686  1.0000
  C   C65       1.0  0.74104  0.68478  0.42138  1.0000
  C   C66       1.0  0.03323  0.11409  0.82758  1.0000
  C   C67       1.0  0.94692  0.85102  0.2073  1.0000
  C   C68       1.0  0.79457  0.59716  0.70875  1.0000
  C   C69       1.0  0.33822  0.91864  0.11802  1.0000
  C   C70       1.0  0.79457  0.7912499999999998  0.9028399999999998  1.0000
  C   C71       1.0  0.94692  0.64899  0.7073  1.0000
  C   C72       1.0  0.03323  0.32758  0.61409  1.0000
  C   C73       1.0  0.9667699999999998  0.11409  0.82758  1.0000
  C   C74       1.0  0.9667699999999998  0.61409  0.67242  1.0000
  C   C75       1.0  0.20542999999999997  0.20875  0.09716  1.0000
  C   C76       1.0  0.79457  0.09716  0.7912499999999998  1.0000
  C   C77       1.0  0.7552299999999998  0.87649  0.86315  1.0000
  C   C78       1.0  0.6617799999999999  0.5813599999999999  0.6180199999999998  1.0000
  C   C79       1.0  0.72015  0.85787  0.9013499999999998  1.0000
  C   C80       1.0  0.79457  0.29125  0.59716  1.0000
  C   C81       1.0  0.1914  0.85245  0.84467  1.0000
  C   C82       1.0  0.13998  0.30836  0.24800999999999998  1.0000
  C   C83       1.0  0.13998  0.69164  0.75199  1.0000
  C   C84       1.0  0.6617799999999999  0.6180199999999998  0.41864  1.0000
  C   C85       1.0  0.7934999999999999  0.70252  0.76328  1.0000
  C   C86       1.0  0.74104  0.18478  0.07862  1.0000
  C   C87       1.0  0.82832  0.86394  0.19067999999999993  1.0000
  C   C88       1.0  0.82832  0.63606  0.6906799999999997  1.0000
  C   C89       1.0  0.8600099999999999  0.69164  0.75199  1.0000
  C   C90       1.0  0.74104  0.81522  0.9213799999999998  1.0000
  C   C91       1.0  0.9667699999999998  0.17242  0.11409  1.0000
  C   C92       1.0  0.8814699999999998  0.78196  0.8407  1.0000
  C   C93       1.0  0.82832  0.19067999999999993  0.13606  1.0000
  C   C94       1.0  0.72015  0.14213  0.09864999999999999  1.0000
  C   C95       1.0  0.8600099999999999  0.30836  0.24800999999999998  1.0000
  C   C96       1.0  0.17167  0.6906799999999997  0.36394  1.0000
  C   C97       1.0  0.27985  0.64213  0.40135  1.0000
  C   C98       1.0  0.24476999999999993  0.87649  0.86315  1.0000
  C   C99       1.0  0.8814699999999998  0.15931  0.78196  1.0000
  C   C100      1.0  0.17167  0.30931999999999993  0.63606  1.0000
  C   C101      1.0  0.13998  0.75199  0.30836  1.0000
  C   C102      1.0  0.72015  0.35787  0.59865  1.0000
  C   C103      1.0  0.33822  0.3819799999999999  0.5813599999999999  1.0000
  C   C104      1.0  0.94692  0.7926999999999998  0.85102  1.0000
  C   C105      1.0  0.7934999999999999  0.29747999999999997  0.23671999999999999  1.0000
  C   C106      1.0  0.17167  0.19067999999999993  0.13606  1.0000
  C   C107      1.0  0.8085899999999999  0.84467  0.14755  1.0000
  C   C108      1.0  0.053079999999999995  0.64899  0.7073  1.0000
  C   C109      1.0  0.82832  0.13606  0.80932  1.0000
  C   C110      1.0  0.11853  0.71804  0.34069  1.0000
  C   C111      1.0  0.74104  0.42138  0.31522  1.0000
  C   C112      1.0  0.72015  0.40135  0.35787  1.0000
  C   C113      1.0  0.9667699999999998  0.32758  0.61409  1.0000
  C   C114      1.0  0.20648999999999998  0.7974799999999997  0.26328  1.0000
  C   C115      1.0  0.74104  0.07862  0.81522  1.0000
  C   C116      1.0  0.053079999999999995  0.7073  0.35101  1.0000
  C   C117      1.0  0.20648999999999998  0.76328  0.29747999999999997  1.0000
  C   C118      1.0  0.20542999999999997  0.9028399999999998  0.20875  1.0000
  C   C119      1.0  0.7934999999999999  0.76328  0.29747999999999997  1.0000
  C   C120      1.0  0.20648999999999998  0.23671999999999999  0.70252  1.0000
  C   C121      1.0  0.25896  0.31522  0.57862  1.0000
  C   C122      1.0  0.24476999999999993  0.86315  0.12351  1.0000
  C   C123      1.0  0.24476999999999993  0.37649  0.63686  1.0000
  C   C124      1.0  0.94692  0.2073  0.14899  1.0000
  C   C125      1.0  0.74104  0.31522  0.57862  1.0000
  C   C126      1.0  0.79457  0.70875  0.40284  1.0000
  C   C127      1.0  0.8600099999999999  0.19164  0.74801  1.0000
  C   C128      1.0  0.8814699999999998  0.34069  0.28196  1.0000
  C   C129      1.0  0.33822  0.11802  0.08135999999999999  1.0000
  C   C130      1.0  0.11853  0.21803999999999998  0.15931  1.0000
  C   C131      1.0  0.94692  0.35101  0.2927  1.0000
  C   C132      1.0  0.72015  0.64213  0.40135  1.0000
  C   C133      1.0  0.72015  0.9013499999999998  0.14213  1.0000
  C   C134      1.0  0.24476999999999993  0.62351  0.36314  1.0000
  C   C135      1.0  0.25896  0.07862  0.81522  1.0000
  C   C136      1.0  0.24476999999999993  0.36314  0.37649  1.0000
  C   C137      1.0  0.6617799999999999  0.88198  0.91864  1.0000
  C   C138      1.0  0.7934999999999999  0.20252  0.7367199999999998  1.0000
  C   C139      1.0  0.9667699999999998  0.38591  0.32758  1.0000
  C   C140      1.0  0.7552299999999998  0.13686  0.87649  1.0000
  C   C141      1.0  0.20542999999999997  0.40284  0.29125  1.0000
  C   C142      1.0  0.27985  0.40135  0.35787  1.0000
  C   C143      1.0  0.053079999999999995  0.85102  0.2073  1.0000
  C   C144      1.0  0.11853  0.15931  0.78196  1.0000
  C   C145      1.0  0.8600099999999999  0.25199  0.19164  1.0000
  C   C146      1.0  0.13998  0.25199  0.19164  1.0000
  C   C147      1.0  0.7934999999999999  0.7367199999999998  0.7974799999999997  1.0000
  C   C148      1.0  0.7934999999999999  0.7974799999999997  0.26328  1.0000
  C   C149      1.0  0.03323  0.38591  0.32758  1.0000
  C   C150      1.0  0.27985  0.9013499999999998  0.14213  1.0000
  C   C151      1.0  0.25896  0.81522  0.9213799999999998  1.0000
  C   C152      1.0  0.79457  0.40284  0.29125  1.0000
  C   C153      1.0  0.20648999999999998  0.26328  0.20252  1.0000
  C   C154      1.0  0.82832  0.6906799999999997  0.36394  1.0000
  C   C155      1.0  0.94692  0.2927  0.64899  1.0000
  C   C156      1.0  0.27985  0.59865  0.64213  1.0000
  C   C157      1.0  0.11853  0.8407  0.21803999999999998  1.0000
  C   C158      1.0  0.8600099999999999  0.75199  0.30836  1.0000
  C   C159      1.0  0.7934999999999999  0.26328  0.20252  1.0000
  C   C160      1.0  0.20542999999999997  0.70875  0.40284  1.0000
  C   C161      1.0  0.20542999999999997  0.7912499999999998  0.9028399999999998  1.0000
  C   C162      1.0  0.1914  0.84467  0.14755  1.0000
  C   C163      1.0  0.053079999999999995  0.35101  0.2927  1.0000
  C   C164      1.0  0.20542999999999997  0.09716  0.7912499999999998  1.0000
  C   C165      1.0  0.8085899999999999  0.15532999999999997  0.85245  1.0000
  C   C166      1.0  0.7552299999999998  0.86315  0.12351  1.0000
  C   C167      1.0  0.82832  0.80932  0.86394  1.0000
  C   C168      1.0  0.7552299999999998  0.63686  0.62351  1.0000
  C   C169      1.0  0.20648999999999998  0.70252  0.76328  1.0000
  C   C170      1.0  0.13998  0.19164  0.74801  1.0000
  C   C171      1.0  0.7552299999999998  0.12351  0.13686  1.0000
  C   C172      1.0  0.1914  0.64755  0.34466999999999987  1.0000
  C   C173      1.0  0.8600099999999999  0.74801  0.80836  1.0000
  C   C174      1.0  0.6617799999999999  0.08135999999999999  0.88198  1.0000
  C   C175      1.0  0.8085899999999999  0.85245  0.84467  1.0000
  C   C176      1.0  0.053079999999999995  0.2927  0.64899  1.0000
  C   C177      1.0  0.7552299999999998  0.36314  0.37649  1.0000
  C   C178      1.0  0.8814699999999998  0.8407  0.21803999999999998  1.0000
  C   C179      1.0  0.17167  0.13606  0.80932  1.0000
  C   C180      1.0  0.17167  0.36394  0.30931999999999993  1.0000
  C   C181      1.0  0.6617799999999999  0.41864  0.3819799999999999  1.0000
  C   C182      1.0  0.27985  0.85787  0.9013499999999998  1.0000
  C   C183      1.0  0.72015  0.59865  0.64213  1.0000
  C   C184      1.0  0.1914  0.65533  0.64755  1.0000
  C   C185      1.0  0.25896  0.42138  0.31522  1.0000
  C   C186      1.0  0.33822  0.6180199999999998  0.41864  1.0000
  C   C187      1.0  0.94692  0.7073  0.35101  1.0000
  C   C188      1.0  0.11853  0.78196  0.8407  1.0000
  C   C189      1.0  0.8814699999999998  0.28196  0.65931  1.0000
  C   C190      1.0  0.25896  0.18478  0.07862  1.0000
  C   C191      1.0  0.1914  0.14755  0.15532999999999997  1.0000
  C   C192      1.0  0.1914  0.15532999999999997  0.85245  1.0000
  N   N1        1.0  0.57884  0.09953  0.039839999999999993  1.0000
  N   N2        1.0  0.37016  0.37138  0.54107  1.0000
  N   N3        1.0  0.63095  0.5827999999999999  0.39553  1.0000
  N   N4        1.0  0.57884  0.9601599999999998  0.09953  1.0000
  N   N5        1.0  0.1015  0.71966  0.7803399999999999  1.0000
  N   N6        1.0  0.5795  0.57203  0.42214999999999997  1.0000
  N   N7        1.0  0.5795  0.07203  0.07785  1.0000
  N   N8        1.0  0.36904  0.9172099999999997  0.8955299999999998  1.0000
  N   N9        1.0  0.42116  0.40046999999999994  0.53984  1.0000
  N   N10       1.0  0.0  0.1697  0.77183  1.0000
  N   N11       1.0  0.6298399999999998  0.37138  0.54107  1.0000
  N   N12       1.0  0.0  0.6697  0.7281699999999998  1.0000
  N   N13       1.0  0.36904  0.10447  0.9172099999999997  1.0000
  N   N14       1.0  0.63095  0.10447  0.9172099999999997  1.0000
  N   N15       1.0  0.42049999999999993  0.57785  0.57203  1.0000
  N   N16       1.0  0.8985  0.21965999999999994  0.71966  1.0000
  N   N17       1.0  0.6298399999999998  0.04106  0.8713799999999998  1.0000
  N   N18       1.0  0.37016  0.8713799999999998  0.95894  1.0000
  N   N19       1.0  0.6298399999999998  0.54107  0.62862  1.0000
  N   N20       1.0  0.37016  0.95894  0.12862  1.0000
  N   N21       1.0  0.42116  0.039839999999999993  0.90047  1.0000
  N   N22       1.0  0.63095  0.4172  0.60447  1.0000
  N   N23       1.0  0.6298399999999998  0.4589399999999999  0.37138  1.0000
  N   N24       1.0  0.36904  0.0828  0.10447  1.0000
  N   N25       1.0  0.0  0.77183  0.8303  1.0000
  N   N26       1.0  0.42116  0.09953  0.039839999999999993  1.0000
  N   N27       1.0  0.36904  0.4172  0.60447  1.0000
  N   N28       1.0  0.5795  0.42214999999999997  0.42796999999999996  1.0000
  N   N29       1.0  0.57884  0.40046999999999994  0.53984  1.0000
  N   N30       1.0  0.42049999999999993  0.07203  0.07785  1.0000
  N   N31       1.0  0.6298399999999998  0.12862  0.04106  1.0000
  N   N32       1.0  0.63095  0.8955299999999998  0.0828  1.0000
  N   N33       1.0  0.57884  0.59953  0.46016  1.0000
  N   N34       1.0  0.0  0.22816999999999996  0.1697  1.0000
  N   N35       1.0  0.57884  0.90047  0.9601599999999998  1.0000
  N   N36       1.0  0.5795  0.57785  0.57203  1.0000
  N   N37       1.0  0.42049999999999993  0.9279699999999997  0.92215  1.0000
  N   N38       1.0  0.57884  0.53984  0.59953  1.0000
  N   N39       1.0  0.63095  0.0828  0.10447  1.0000
  N   N40       1.0  0.37016  0.62862  0.4589399999999999  1.0000
  N   N41       1.0  0.0  0.3303  0.27183  1.0000
  N   N42       1.0  0.1015  0.28034  0.21965999999999994  1.0000
  N   N43       1.0  0.36904  0.5827999999999999  0.39553  1.0000
  N   N44       1.0  0.63095  0.9172099999999997  0.8955299999999998  1.0000
  N   N45       1.0  0.42049999999999993  0.42214999999999997  0.42796999999999996  1.0000
  N   N46       1.0  0.42116  0.59953  0.46016  1.0000
  N   N47       1.0  0.36904  0.8955299999999998  0.0828  1.0000
  N   N48       1.0  0.5795  0.07785  0.9279699999999997  1.0000
  N   N49       1.0  0.5795  0.42796999999999996  0.57785  1.0000
  N   N50       1.0  0.57884  0.46016  0.40046999999999994  1.0000
  N   N51       1.0  0.42116  0.53984  0.59953  1.0000
  N   N52       1.0  0.37016  0.04106  0.8713799999999998  1.0000
  N   N53       1.0  0.63095  0.39553  0.4172  1.0000
  N   N54       1.0  0.37016  0.54107  0.62862  1.0000
  N   N55       1.0  0.1015  0.7803399999999999  0.28034  1.0000
  N   N56       1.0  0.42116  0.9601599999999998  0.09953  1.0000
  N   N57       1.0  0.63095  0.60447  0.5827999999999999  1.0000
  N   N58       1.0  0.36904  0.60447  0.5827999999999999  1.0000
  N   N59       1.0  0.8985  0.7803399999999999  0.28034  1.0000
  N   N60       1.0  0.6298399999999998  0.95894  0.12862  1.0000
  N   N61       1.0  0.37016  0.4589399999999999  0.37138  1.0000
  N   N62       1.0  0.0  0.7281699999999998  0.3303  1.0000
  N   N63       1.0  0.42049999999999993  0.92215  0.07203  1.0000
  N   N64       1.0  0.1015  0.21965999999999994  0.71966  1.0000
  N   N65       1.0  0.42116  0.90047  0.9601599999999998  1.0000
  N   N66       1.0  0.42049999999999993  0.57203  0.42214999999999997  1.0000
  N   N67       1.0  0.42049999999999993  0.07785  0.9279699999999997  1.0000
  N   N68       1.0  0.37016  0.12862  0.04106  1.0000
  N   N69       1.0  0.42116  0.46016  0.40046999999999994  1.0000
  N   N70       1.0  0.0  0.8303  0.22816999999999996  1.0000
  N   N71       1.0  0.42049999999999993  0.42796999999999996  0.57785  1.0000
  N   N72       1.0  0.5795  0.9279699999999997  0.92215  1.0000
  N   N73       1.0  0.5795  0.92215  0.07203  1.0000
  N   N74       1.0  0.36904  0.39553  0.4172  1.0000
  N   N75       1.0  0.6298399999999998  0.62862  0.4589399999999999  1.0000
  N   N76       1.0  0.8985  0.71966  0.7803399999999999  1.0000
  N   N77       1.0  0.8985  0.28034  0.21965999999999994  1.0000
  N   N78       1.0  0.57884  0.039839999999999993  0.90047  1.0000
  N   N79       1.0  0.6298399999999998  0.8713799999999998  0.95894  1.0000
  N   N80       1.0  0.0  0.27183  0.6697  1.0000
  Cl  Cl1       1.0  0.5  0.19425  0.96502  1.0000
  Cl  Cl2       1.0  0.5  0.96502  0.80575  1.0000
  Cl  Cl3       1.0  0.5  0.69425  0.53499  1.0000
  Cl  Cl4       1.0  0.5  0.03499  0.19425  1.0000
  Cl  Cl5       1.0  0.5  0.53499  0.30575  1.0000
  Cl  Cl6       1.0  0.5  0.30575  0.46501999999999993  1.0000
  Cl  Cl7       1.0  0.5  0.46501999999999993  0.69425  1.0000
  Cl  Cl8       1.0  0.5  0.80575  0.03499  1.0000
