data_image0
_chemical_formula_structural       Cd8H256C216N16O32
_chemical_formula_sum              "Cd8 H256 C216 N16 O32"
_cell_length_a       12.57372
_cell_length_b       18.32482
_cell_length_c       24.63159
_cell_angle_alpha    89.96456
_cell_angle_beta     89.9437
_cell_angle_gamma    89.91646

_symmetry_space_group_name_H-M    'P 1'
_symmetry_Int_Tables_number       1

loop_
  _symmetry_equiv_pos_as_xyz
  'x,y,z'

loop_
  _atom_site_type_symbol
  _atom_site_label
  _atom_site_symmetry_multiplicity
  _atom_site_fract_x
  _atom_site_fract_y
  _atom_site_fract_z
  _atom_site_occupancy
  Cd  Cd1       1.0  0.83456  0.97514  0.32920999999999995  1.0000
  Cd  Cd2       1.0  0.9176300000000002  0.8951  0.8501099999999999  1.0000
  Cd  Cd3       1.0  0.66677  0.02444  0.8288099999999998  1.0000
  Cd  Cd4       1.0  0.57807  0.10347  0.35001999999999994  1.0000
  Cd  Cd5       1.0  0.16515  0.47356  0.17094  1.0000
  Cd  Cd6       1.0  0.08050999999999998  0.39635000000000004  0.65088  1.0000
  Cd  Cd7       1.0  0.33456  0.52453  0.67077  1.0000
  Cd  Cd8       1.0  0.41915000000000013  0.60303  0.15068  1.0000
  H   H1        1.0  0.04585000000000001  0.7723  0.26918999999999993  1.0000
  H   H2        1.0  0.91659  0.7569  0.24224999999999997  1.0000
  H   H3        1.0  0.09941  0.71034  0.18556999999999998  1.0000
  H   H4        1.0  0.9701600000000002  0.71247  0.15738999999999997  1.0000
  H   H5        1.0  0.93731  0.76912  0.06562  1.0000
  H   H6        1.0  0.04287  0.8094  0.029039999999999993  1.0000
  H   H7        1.0  0.93247  0.9047000000000001  0.07375  1.0000
  H   H8        1.0  0.86803  0.83053  0.15311  1.0000
  H   H9        1.0  0.9261100000000001  0.9129199999999998  0.17529999999999996  1.0000
  H   H10       1.0  0.11553  0.91071  0.21492  1.0000
  H   H11       1.0  0.18515  0.8273900000000001  0.21821  1.0000
  H   H12       1.0  0.12593  0.92973  0.06299  1.0000
  H   H13       1.0  0.07830000000000002  0.96895  0.12423  1.0000
  H   H14       1.0  0.24948000000000004  0.90278  0.14006  1.0000
  H   H15       1.0  0.25706  0.76737  0.12912  1.0000
  H   H16       1.0  0.22734  0.8089500000000001  0.06674  1.0000
  H   H17       1.0  0.16544  0.68782  0.04103  1.0000
  H   H18       1.0  0.03703  0.65822  0.05992999999999998  1.0000
  H   H19       1.0  0.6631200000000002  0.8753800000000002  0.26426  1.0000
  H   H20       1.0  0.52199  0.86368  0.26751  1.0000
  H   H21       1.0  0.44676000000000005  0.9899599999999998  0.19556999999999997  1.0000
  H   H22       1.0  0.40592  0.89813  0.19131  1.0000
  H   H23       1.0  0.67894  0.81786  0.17869999999999994  1.0000
  H   H24       1.0  0.54211  0.7969300000000001  0.18194  1.0000
  H   H25       1.0  0.42075  0.82842  0.10097  1.0000
  H   H26       1.0  0.47534  0.87223  0.04367  1.0000
  H   H27       1.0  0.37824  0.9617600000000001  0.10238999999999997  1.0000
  H   H28       1.0  0.53511  0.00277  0.04902999999999998  1.0000
  H   H29       1.0  0.52537  0.05297  0.11085  1.0000
  H   H30       1.0  0.7552200000000001  0.8789700000000001  0.09367  1.0000
  H   H31       1.0  0.6698200000000001  0.90158  0.03914  1.0000
  H   H32       1.0  0.71285  0.01193  0.09511999999999998  1.0000
  H   H33       1.0  0.7398100000000001  0.95037  0.1848  1.0000
  H   H34       1.0  0.6442400000000001  0.02099  0.18991  1.0000
  H   H35       1.0  0.60186  0.76833  0.0352  1.0000
  H   H36       1.0  0.70094  0.75221  0.08545  1.0000
  H   H37       1.0  0.05552  0.02589  0.2674099999999999  1.0000
  H   H38       1.0  0.12073  0.1138  0.19671999999999995  1.0000
  H   H39       1.0  0.79387  0.1767  0.17096  1.0000
  H   H40       1.0  0.74395  0.08953  0.24471  1.0000
  H   H41       1.0  0.08005  0.21614000000000003  0.13517999999999997  1.0000
  H   H42       1.0  0.95385  0.25742  0.1386  1.0000
  H   H43       1.0  0.7709600000000002  0.71327  0.55564  1.0000
  H   H44       1.0  0.8041500000000003  0.79363  0.59107  1.0000
  H   H45       1.0  0.71622  0.7329  0.46078  1.0000
  H   H46       1.0  0.71969  0.81188  0.37767  1.0000
  H   H47       1.0  0.92184  0.95991  0.45014  1.0000
  H   H48       1.0  0.9324  0.8853700000000001  0.53484  1.0000
  H   H49       1.0  0.78823  0.97674  0.9556299999999998  1.0000
  H   H50       1.0  0.83203  0.05364  0.03575  1.0000
  H   H51       1.0  0.15711000000000006  0.05747000000000001  0.97924  1.0000
  H   H52       1.0  0.09936  0.9793600000000001  0.9010299999999999  1.0000
  H   H53       1.0  0.1172  0.12031000000000001  0.05980999999999999  1.0000
  H   H54       1.0  0.027810000000000005  0.06874  0.09879  1.0000
  H   H55       1.0  0.9816300000000002  0.21645  0.04525  1.0000
  H   H56       1.0  0.88188  0.16152  0.07427  1.0000
  H   H57       1.0  0.9985900000000001  0.77246  0.5681299999999999  1.0000
  H   H58       1.0  0.96401  0.68916  0.53779  1.0000
  H   H59       1.0  0.8879000000000001  0.64493  0.62729  1.0000
  H   H60       1.0  0.025100000000000004  0.6608900000000001  0.6275399999999999  1.0000
  H   H61       1.0  0.80471  0.67963  0.7100099999999998  1.0000
  H   H62       1.0  0.79554  0.76261  0.79074  1.0000
  H   H63       1.0  0.04658000000000001  0.8871800000000001  0.7354  1.0000
  H   H64       1.0  0.06537  0.81125  0.6514399999999998  1.0000
  H   H65       1.0  0.45672000000000007  0.2277  0.7689599999999999  1.0000
  H   H66       1.0  0.5854800000000001  0.24284000000000003  0.7412299999999998  1.0000
  H   H67       1.0  0.40069  0.28799  0.6852699999999998  1.0000
  H   H68       1.0  0.52981  0.28659  0.6567599999999999  1.0000
  H   H69       1.0  0.56298  0.22945  0.56533  1.0000
  H   H70       1.0  0.45796  0.18846  0.52897  1.0000
  H   H71       1.0  0.56934  0.09384  0.57391  1.0000
  H   H72       1.0  0.63345  0.16893  0.65271  1.0000
  H   H73       1.0  0.57634  0.08640000000000002  0.6754599999999997  1.0000
  H   H74       1.0  0.3873  0.0879  0.7156799999999998  1.0000
  H   H75       1.0  0.31667  0.17088  0.7188  1.0000
  H   H76       1.0  0.37586000000000014  0.06812  0.56372  1.0000
  H   H77       1.0  0.4243500000000001  0.02921  0.62491  1.0000
  H   H78       1.0  0.25279  0.09456  0.64119  1.0000
  H   H79       1.0  0.24363  0.22995  0.62964  1.0000
  H   H80       1.0  0.27316  0.188  0.56736  1.0000
  H   H81       1.0  0.33302  0.3096  0.54117  1.0000
  H   H82       1.0  0.46218  0.33956000000000003  0.55892  1.0000
  H   H83       1.0  0.83872  0.12403000000000002  0.76417  1.0000
  H   H84       1.0  0.97989  0.13525  0.7675799999999998  1.0000
  H   H85       1.0  0.05439  0.00949  0.6948899999999999  1.0000
  H   H86       1.0  0.0959  0.10113  0.6907799999999998  1.0000
  H   H87       1.0  0.82368  0.18279  0.67868  1.0000
  H   H88       1.0  0.96089  0.20277  0.68124  1.0000
  H   H89       1.0  0.08078  0.17143  0.6005499999999999  1.0000
  H   H90       1.0  0.026410000000000006  0.12787  0.54319  1.0000
  H   H91       1.0  0.12285  0.03797  0.6016999999999999  1.0000
  H   H92       1.0  0.96567  0.9970499999999999  0.54873  1.0000
  H   H93       1.0  0.9757  0.94699  0.6105899999999999  1.0000
  H   H94       1.0  0.7461400000000001  0.12123000000000002  0.59352  1.0000
  H   H95       1.0  0.8315100000000002  0.09839000000000002  0.53896  1.0000
  H   H96       1.0  0.7882  0.98814  0.5951699999999999  1.0000
  H   H97       1.0  0.7616600000000001  0.050320000000000004  0.6846599999999999  1.0000
  H   H98       1.0  0.85655  0.9792900000000001  0.68991  1.0000
  H   H99       1.0  0.90049  0.23159  0.53486  1.0000
  H   H100      1.0  0.8002400000000001  0.24764  0.58452  1.0000
  H   H101      1.0  0.44572  0.97393  0.7674  1.0000
  H   H102      1.0  0.38012  0.8852999999999999  0.6974299999999999  1.0000
  H   H103      1.0  0.7070600000000002  0.82306  0.67065  1.0000
  H   H104      1.0  0.7572500000000001  0.91072  0.7438399999999998  1.0000
  H   H105      1.0  0.42061000000000004  0.78278  0.63617  1.0000
  H   H106      1.0  0.54717  0.7419  0.639  1.0000
  H   H107      1.0  0.72959  0.28600000000000003  0.05544  1.0000
  H   H108      1.0  0.69619  0.20556  0.09081  1.0000
  H   H109      1.0  0.78487  0.26644  0.96068  1.0000
  H   H110      1.0  0.7817500000000001  0.18757  0.8775699999999997  1.0000
  H   H111      1.0  0.57824  0.03993  0.9497699999999998  1.0000
  H   H112      1.0  0.56713  0.11446  0.03443  1.0000
  H   H113      1.0  0.70872  0.022000000000000002  0.4542899999999999  1.0000
  H   H114      1.0  0.66667  0.9452200000000001  0.53491  1.0000
  H   H115      1.0  0.34039000000000014  0.9411700000000001  0.48055  1.0000
  H   H116      1.0  0.39642000000000005  0.01914  0.40176  1.0000
  H   H117      1.0  0.38197000000000003  0.8789800000000001  0.56113  1.0000
  H   H118      1.0  0.47276  0.9304499999999999  0.5992  1.0000
  H   H119      1.0  0.51681  0.7825  0.5457  1.0000
  H   H120      1.0  0.6174800000000001  0.83733  0.5738499999999999  1.0000
  H   H121      1.0  0.50181  0.22708  0.06827  1.0000
  H   H122      1.0  0.53652  0.31033  0.03779  1.0000
  H   H123      1.0  0.61383  0.354  0.12722  1.0000
  H   H124      1.0  0.47637000000000007  0.3392  0.12749999999999997  1.0000
  H   H125      1.0  0.69607  0.31861  0.20999  1.0000
  H   H126      1.0  0.7037300000000002  0.23552  0.29075  1.0000
  H   H127      1.0  0.45100000000000007  0.1128  0.23539999999999994  1.0000
  H   H128      1.0  0.4335500000000001  0.18902  0.15151  1.0000
  H   H129      1.0  0.9548600000000003  0.26998  0.23190999999999995  1.0000
  H   H130      1.0  0.08482  0.25602  0.25842999999999994  1.0000
  H   H131      1.0  0.9000600000000002  0.20959  0.31534999999999996  1.0000
  H   H132      1.0  0.02922  0.21097  0.3437  1.0000
  H   H133      1.0  0.06205  0.26782  0.4351299999999999  1.0000
  H   H134      1.0  0.95687  0.30863  0.47177  1.0000
  H   H135      1.0  0.06785  0.40346  0.42699999999999994  1.0000
  H   H136      1.0  0.13236  0.32846  0.34811999999999993  1.0000
  H   H137      1.0  0.07535000000000001  0.41113  0.32543  1.0000
  H   H138      1.0  0.8867200000000001  0.41035  0.2856  1.0000
  H   H139      1.0  0.8158700000000002  0.32764  0.28186  1.0000
  H   H140      1.0  0.87411  0.42904000000000003  0.43739999999999996  1.0000
  H   H141      1.0  0.9226500000000001  0.46844  0.37634999999999996  1.0000
  H   H142      1.0  0.7513600000000002  0.40307  0.35981  1.0000
  H   H143      1.0  0.74297  0.26754  0.37088  1.0000
  H   H144      1.0  0.77167  0.30924  0.43333  1.0000
  H   H145      1.0  0.83351  0.18817  0.45998  1.0000
  H   H146      1.0  0.9624000000000003  0.1581  0.44131  1.0000
  H   H147      1.0  0.33703  0.37401  0.23655  1.0000
  H   H148      1.0  0.47812  0.36236  0.23295999999999994  1.0000
  H   H149      1.0  0.55372  0.48833  0.30416  1.0000
  H   H150      1.0  0.59441  0.39653  0.30934999999999996  1.0000
  H   H151      1.0  0.32130000000000003  0.31716  0.32270999999999994  1.0000
  H   H152      1.0  0.4582  0.29593  0.3196399999999999  1.0000
  H   H153      1.0  0.57962  0.32827  0.40045  1.0000
  H   H154      1.0  0.52489  0.37331  0.45723  1.0000
  H   H155      1.0  0.62222  0.46156  0.39759  1.0000
  H   H156      1.0  0.46541  0.50351  0.45059999999999995  1.0000
  H   H157      1.0  0.47507000000000005  0.55295  0.38839999999999997  1.0000
  H   H158      1.0  0.24512  0.37969  0.40698  1.0000
  H   H159      1.0  0.33036  0.40292  0.46142  1.0000
  H   H160      1.0  0.28754  0.51266  0.4045  1.0000
  H   H161      1.0  0.26076  0.45  0.31525999999999993  1.0000
  H   H162      1.0  0.35686  0.5201  0.30972  1.0000
  H   H163      1.0  0.39946000000000004  0.26931  0.46651  1.0000
  H   H164      1.0  0.29817  0.25402  0.4171799999999999  1.0000
  H   H165      1.0  0.943  0.52539  0.23282999999999995  1.0000
  H   H166      1.0  0.8785700000000002  0.61398  0.30316999999999994  1.0000
  H   H167      1.0  0.20595  0.67481  0.3289599999999999  1.0000
  H   H168      1.0  0.25513  0.58748  0.2553  1.0000
  H   H169      1.0  0.91997  0.7162700000000001  0.3644299999999999  1.0000
  H   H170      1.0  0.04654  0.75676  0.36099999999999993  1.0000
  H   H171      1.0  0.22972  0.21349  0.9447599999999998  1.0000
  H   H172      1.0  0.19537000000000004  0.29397  0.9095999999999999  1.0000
  H   H173      1.0  0.28577  0.23314999999999997  0.03931  1.0000
  H   H174      1.0  0.28282  0.31208  0.12235999999999998  1.0000
  H   H175      1.0  0.0769  0.45908999999999994  0.05088  1.0000
  H   H176      1.0  0.06538  0.38435  0.9664  1.0000
  H   H177      1.0  0.2096  0.47751000000000005  0.54612  1.0000
  H   H178      1.0  0.16705  0.55391  0.46543  1.0000
  H   H179      1.0  0.8407200000000001  0.55778  0.52012  1.0000
  H   H180      1.0  0.89728  0.47981  0.59887  1.0000
  H   H181      1.0  0.8820500000000001  0.62073  0.43986  1.0000
  H   H182      1.0  0.97169  0.56858  0.40135  1.0000
  H   H183      1.0  0.01798  0.71639  0.45445  1.0000
  H   H184      1.0  0.11766000000000001  0.66099  0.42569  1.0000
  H   H185      1.0  0.0012600000000000003  0.27168  0.9323699999999999  1.0000
  H   H186      1.0  0.03691  0.18841  0.9625699999999999  1.0000
  H   H187      1.0  0.1141  0.14505  0.8731299999999997  1.0000
  H   H188      1.0  0.97666  0.16031  0.8727  1.0000
  H   H189      1.0  0.1975  0.18075  0.79067  1.0000
  H   H190      1.0  0.20612000000000003  0.26431  0.7101699999999997  1.0000
  H   H191      1.0  0.95249  0.38701  0.76521  1.0000
  H   H192      1.0  0.93407  0.31039  0.8489  1.0000
  H   H193      1.0  0.54604  0.72587  0.7313799999999999  1.0000
  H   H194      1.0  0.41703  0.74288  0.7584199999999999  1.0000
  H   H195      1.0  0.59937  0.78875  0.8148699999999998  1.0000
  H   H196      1.0  0.46983  0.78745  0.84292  1.0000
  H   H197      1.0  0.4358800000000001  0.73187  0.9345499999999998  1.0000
  H   H198      1.0  0.54048  0.69201  0.9720399999999998  1.0000
  H   H199      1.0  0.43145  0.596  0.9277399999999999  1.0000
  H   H200      1.0  0.36734000000000006  0.66924  0.84788  1.0000
  H   H201      1.0  0.4261500000000001  0.58661  0.8261799999999999  1.0000
  H   H202      1.0  0.61471  0.58781  0.7869299999999998  1.0000
  H   H203      1.0  0.6848600000000001  0.67081  0.78264  1.0000
  H   H204      1.0  0.62532  0.57167  0.9390399999999999  1.0000
  H   H205      1.0  0.57823  0.53094  0.8783  1.0000
  H   H206      1.0  0.74893  0.59678  0.8614999999999998  1.0000
  H   H207      1.0  0.7562700000000002  0.73242  0.8716399999999999  1.0000
  H   H208      1.0  0.72657  0.69136  0.9341899999999997  1.0000
  H   H209      1.0  0.66449  0.8131600000000001  0.95906  1.0000
  H   H210      1.0  0.53486  0.84162  0.94079  1.0000
  H   H211      1.0  0.16333000000000006  0.62487  0.7362399999999998  1.0000
  H   H212      1.0  0.02228  0.63718  0.7329899999999998  1.0000
  H   H213      1.0  0.9494100000000001  0.50861  0.8037  1.0000
  H   H214      1.0  0.9053400000000001  0.59963  0.8085599999999998  1.0000
  H   H215      1.0  0.17542  0.68364  0.82298  1.0000
  H   H216      1.0  0.03775000000000001  0.70236  0.81992  1.0000
  H   H217      1.0  0.91708  0.66812  0.8998599999999998  1.0000
  H   H218      1.0  0.9717500000000001  0.62361  0.95685  1.0000
  H   H219      1.0  0.87827  0.53424  0.89674  1.0000
  H   H220      1.0  0.03568  0.49413000000000007  0.9500999999999998  1.0000
  H   H221      1.0  0.02805  0.44492  0.8878  1.0000
  H   H222      1.0  0.25283  0.62108  0.9076299999999998  1.0000
  H   H223      1.0  0.16715  0.59618  0.96158  1.0000
  H   H224      1.0  0.21413  0.4875300000000001  0.9043999999999999  1.0000
  H   H225      1.0  0.24063000000000007  0.55184  0.8156799999999998  1.0000
  H   H226      1.0  0.14752000000000004  0.48013000000000006  0.8092699999999998  1.0000
  H   H227      1.0  0.09389  0.72891  0.96657  1.0000
  H   H228      1.0  0.19619  0.74592  0.91828  1.0000
  H   H229      1.0  0.55645  0.4734400000000001  0.7322799999999999  1.0000
  H   H230      1.0  0.62127  0.38543  0.8029999999999998  1.0000
  H   H231      1.0  0.29428  0.32321  0.82868  1.0000
  H   H232      1.0  0.2448  0.41013  0.7547099999999998  1.0000
  H   H233      1.0  0.58019  0.28331  0.8646799999999998  1.0000
  H   H234      1.0  0.45391  0.24237000000000003  0.8612399999999999  1.0000
  H   H235      1.0  0.27075  0.78579  0.44486  1.0000
  H   H236      1.0  0.30478  0.7054700000000002  0.40946  1.0000
  H   H237      1.0  0.21741000000000002  0.76648  0.53999  1.0000
  H   H238      1.0  0.22175  0.6874  0.62306  1.0000
  H   H239      1.0  0.42428  0.5395200000000001  0.55001  1.0000
  H   H240      1.0  0.43443  0.61435  0.46544  1.0000
  H   H241      1.0  0.29105  0.52326  0.045599999999999995  1.0000
  H   H242      1.0  0.33332  0.44670000000000004  0.9649899999999999  1.0000
  H   H243      1.0  0.6590900000000001  0.44084999999999996  0.02004  1.0000
  H   H244      1.0  0.60297  0.51907  0.0987  1.0000
  H   H245      1.0  0.61765  0.37842  0.9396299999999997  1.0000
  H   H246      1.0  0.52832  0.43076  0.90112  1.0000
  H   H247      1.0  0.48092  0.28323  0.9545699999999999  1.0000
  H   H248      1.0  0.38187  0.33881  0.92545  1.0000
  H   H249      1.0  0.49916  0.72782  0.43161  1.0000
  H   H250      1.0  0.46358  0.81103  0.4618999999999999  1.0000
  H   H251      1.0  0.38532  0.85424  0.37259  1.0000
  H   H252      1.0  0.52286  0.83952  0.3719  1.0000
  H   H253      1.0  0.30256  0.8188000000000001  0.29011  1.0000
  H   H254      1.0  0.29359  0.73493  0.20987999999999998  1.0000
  H   H255      1.0  0.54724  0.61228  0.26476999999999995  1.0000
  H   H256      1.0  0.56589  0.68913  0.34826  1.0000
  C   C1        1.0  0.9374  0.86126  0.27868  1.0000
  C   C2        1.0  0.98028  0.7973500000000001  0.24655  1.0000
  C   C3        1.0  0.023390000000000008  0.8163  0.18962  1.0000
  C   C4        1.0  0.04503  0.74329  0.16071999999999997  1.0000
  C   C5        1.0  0.09256  0.75456  0.10371  1.0000
  C   C6        1.0  0.011940000000000003  0.79984  0.07023  1.0000
  C   C7        1.0  0.98973  0.87347  0.09829  1.0000
  C   C8        1.0  0.9436800000000001  0.86048  0.15542  1.0000
  C   C9        1.0  0.12865  0.8589000000000001  0.19346  1.0000
  C   C10       1.0  0.09391000000000001  0.91689  0.10343  1.0000
  C   C11       1.0  0.17463  0.87229  0.13649  1.0000
  C   C12       1.0  0.19604  0.79924  0.10787  1.0000
  C   C13       1.0  0.1119  0.6799800000000001  0.07602999999999999  1.0000
  C   C14       1.0  0.16211000000000003  0.62077  0.11142999999999999  1.0000
  C   C15       1.0  0.57447  0.97029  0.28824999999999995  1.0000
  C   C16       1.0  0.58609  0.90091  0.25551  1.0000
  C   C17       1.0  0.46525  0.9373700000000001  0.17626  1.0000
  C   C18       1.0  0.57732  0.91182  0.19318999999999997  1.0000
  C   C19       1.0  0.59953  0.8372  0.16653  1.0000
  C   C20       1.0  0.59212  0.84115  0.10417  1.0000
  C   C21       1.0  0.48039  0.8685200000000001  0.08821999999999998  1.0000
  C   C22       1.0  0.4584000000000001  0.9433800000000001  0.11406  1.0000
  C   C23       1.0  0.541  0.99856  0.09348999999999998  1.0000
  C   C24       1.0  0.67439  0.89745  0.08369  1.0000
  C   C25       1.0  0.65301  0.9725600000000001  0.1096  1.0000
  C   C26       1.0  0.6596700000000001  0.9671  0.17189  1.0000
  C   C27       1.0  0.61671  0.76545  0.0791  1.0000
  C   C28       1.0  0.54954  0.70392  0.10275  1.0000
  C   C29       1.0  0.0008400000000000004  0.0611  0.24519999999999995  1.0000
  C   C30       1.0  0.036  0.10943  0.20526  1.0000
  C   C31       1.0  0.96234  0.15249  0.17697999999999997  1.0000
  C   C32       1.0  0.85499  0.14422  0.19090999999999997  1.0000
  C   C33       1.0  0.82611  0.09595  0.23187999999999995  1.0000
  C   C34       1.0  0.9944200000000002  0.20478  0.13264  1.0000
  C   C35       1.0  0.8287600000000002  0.75814  0.5572  1.0000
  C   C36       1.0  0.82504  0.80212  0.50539  1.0000
  C   C37       1.0  0.7643900000000002  0.78225  0.46003  1.0000
  C   C38       1.0  0.76503  0.82654  0.4137499999999999  1.0000
  C   C39       1.0  0.8793900000000002  0.90834  0.4538599999999999  1.0000
  C   C40       1.0  0.88414  0.86662  0.50103  1.0000
  C   C41       1.0  0.8691500000000001  0.9958899999999999  0.9623499999999998  1.0000
  C   C42       1.0  0.8943  0.03924  0.00693  1.0000
  C   C43       1.0  0.99946  0.06252  0.014459999999999999  1.0000
  C   C44       1.0  0.07427  0.04104  0.97542  1.0000
  C   C45       1.0  0.04320000000000001  0.9977800000000001  0.93183  1.0000
  C   C46       1.0  0.03279  0.10557  0.06355  1.0000
  C   C47       1.0  0.96714  0.17423  0.07604  1.0000
  C   C48       1.0  0.94053  0.72773  0.56967  1.0000
  C   C49       1.0  0.94742  0.68863  0.62483  1.0000
  C   C50       1.0  0.93595  0.73842  0.6732799999999998  1.0000
  C   C51       1.0  0.85943  0.7254700000000001  0.71352  1.0000
  C   C52       1.0  0.85454  0.77076  0.7589099999999998  1.0000
  C   C53       1.0  0.9945700000000001  0.84079  0.72768  1.0000
  C   C54       1.0  0.0039700000000000004  0.79819  0.6811  1.0000
  C   C55       1.0  0.56527  0.13878  0.7785799999999999  1.0000
  C   C56       1.0  0.52199  0.20236  0.7462399999999999  1.0000
  C   C57       1.0  0.4782  0.18262  0.68963  1.0000
  C   C58       1.0  0.45543  0.25528  0.66042  1.0000
  C   C59       1.0  0.40777  0.24339  0.60358  1.0000
  C   C60       1.0  0.48874000000000006  0.19832  0.57011  1.0000
  C   C61       1.0  0.51188  0.12498000000000001  0.59844  1.0000
  C   C62       1.0  0.55812  0.13861  0.6553799999999999  1.0000
  C   C63       1.0  0.3734200000000001  0.13950000000000004  0.6940299999999998  1.0000
  C   C64       1.0  0.40813  0.08115  0.6040399999999999  1.0000
  C   C65       1.0  0.32723  0.12548  0.63723  1.0000
  C   C66       1.0  0.30476  0.19822  0.60832  1.0000
  C   C67       1.0  0.38771  0.31777  0.57558  1.0000
  C   C68       1.0  0.33768  0.37676  0.6110899999999999  1.0000
  C   C69       1.0  0.92738  0.02913  0.78813  1.0000
  C   C70       1.0  0.9156200000000001  0.09844  0.75534  1.0000
  C   C71       1.0  0.03620000000000001  0.062240000000000004  0.67574  1.0000
  C   C72       1.0  0.9244  0.08803  0.6929599999999998  1.0000
  C   C73       1.0  0.90264  0.16279  0.6662999999999998  1.0000
  C   C74       1.0  0.90934  0.15873  0.60386  1.0000
  C   C75       1.0  0.02109  0.13142  0.58774  1.0000
  C   C76       1.0  0.04283  0.05648  0.61353  1.0000
  C   C77       1.0  0.9600300000000002  0.0013900000000000004  0.59319  1.0000
  C   C78       1.0  0.82691  0.10254  0.58351  1.0000
  C   C79       1.0  0.8481400000000001  0.027470000000000005  0.60948  1.0000
  C   C80       1.0  0.84162  0.03315  0.67175  1.0000
  C   C81       1.0  0.88459  0.23435  0.57867  1.0000
  C   C82       1.0  0.95043  0.29614  0.6026  1.0000
  C   C83       1.0  0.5003  0.93871  0.7451199999999998  1.0000
  C   C84       1.0  0.46493  0.8899400000000001  0.7056  1.0000
  C   C85       1.0  0.5385  0.84689  0.67721  1.0000
  C   C86       1.0  0.64596  0.8555  0.6906799999999997  1.0000
  C   C87       1.0  0.67501  0.90416  0.73129  1.0000
  C   C88       1.0  0.50612  0.79438  0.63315  1.0000
  C   C89       1.0  0.67166  0.2412  0.057009999999999984  1.0000
  C   C90       1.0  0.67535  0.19739  0.005159999999999998  1.0000
  C   C91       1.0  0.7364700000000001  0.2172  0.95987  1.0000
  C   C92       1.0  0.73607  0.17296  0.9136  1.0000
  C   C93       1.0  0.62092  0.09139  0.95356  1.0000
  C   C94       1.0  0.61586  0.13309  0.00069  1.0000
  C   C95       1.0  0.6280000000000001  0.00273  0.46157999999999993  1.0000
  C   C96       1.0  0.60381  0.95953  0.50644  1.0000
  C   C97       1.0  0.4988200000000001  0.9362799999999999  0.5147  1.0000
  C   C98       1.0  0.42313  0.95761  0.4761  1.0000
  C   C99       1.0  0.45327000000000006  0.0007000000000000001  0.4322  1.0000
  C   C100      1.0  0.46656  0.8934800000000002  0.5641399999999999  1.0000
  C   C101      1.0  0.53223  0.82475  0.57629  1.0000
  C   C102      1.0  0.56002  0.27172  0.06965  1.0000
  C   C103      1.0  0.55354  0.3108  0.12481999999999999  1.0000
  C   C104      1.0  0.56406  0.26086  0.17328  1.0000
  C   C105      1.0  0.6406500000000003  0.27317  0.21352  1.0000
  C   C106      1.0  0.6447  0.22779000000000002  0.25893  1.0000
  C   C107      1.0  0.50375  0.15883  0.2277  1.0000
  C   C108      1.0  0.49513  0.20157  0.18112  1.0000
  C   C109      1.0  0.06210000000000001  0.35962  0.22126  1.0000
  C   C110      1.0  0.02021  0.29592  0.25404999999999994  1.0000
  C   C111      1.0  0.97726  0.31514  0.3110399999999999  1.0000
  C   C112      1.0  0.95471  0.2423  0.34012999999999993  1.0000
  C   C113      1.0  0.90693  0.25408  0.39706  1.0000
  C   C114      1.0  0.98768  0.299  0.4305599999999999  1.0000
  C   C115      1.0  0.01053  0.37245  0.40241  1.0000
  C   C116      1.0  0.05703000000000001  0.3589  0.34541  1.0000
  C   C117      1.0  0.87251  0.35852  0.30689  1.0000
  C   C118      1.0  0.90659  0.41633  0.39701  1.0000
  C   C119      1.0  0.82595  0.37217  0.3637  1.0000
  C   C120      1.0  0.80371  0.29923  0.39239  1.0000
  C   C121      1.0  0.88731  0.17971  0.4251599999999999  1.0000
  C   C122      1.0  0.8374700000000003  0.1206  0.38967  1.0000
  C   C123      1.0  0.4248900000000001  0.469  0.21241  1.0000
  C   C124      1.0  0.4139600000000001  0.39954  0.24512  1.0000
  C   C125      1.0  0.53518  0.43617  0.32403  1.0000
  C   C126      1.0  0.42307  0.41074  0.30736  1.0000
  C   C127      1.0  0.40075  0.33655  0.33463  1.0000
  C   C128      1.0  0.40813  0.3415  0.39697999999999994  1.0000
  C   C129      1.0  0.51997  0.36875  0.4127199999999999  1.0000
  C   C130      1.0  0.54205  0.44313  0.3861399999999999  1.0000
  C   C131      1.0  0.45944  0.4988  0.40618999999999994  1.0000
  C   C132      1.0  0.32587  0.39827  0.4169  1.0000
  C   C133      1.0  0.34734000000000004  0.47291999999999995  0.39037999999999995  1.0000
  C   C134      1.0  0.34088000000000007  0.46656  0.32817999999999997  1.0000
  C   C135      1.0  0.38286000000000003  0.26637  0.42278  1.0000
  C   C136      1.0  0.44777000000000006  0.20398  0.39874  1.0000
  C   C137      1.0  0.99808  0.56031  0.25489999999999996  1.0000
  C   C138      1.0  0.9632700000000001  0.60905  0.29468  1.0000
  C   C139      1.0  0.03724  0.65177  0.32287  1.0000
  C   C140      1.0  0.14453  0.64274  0.30901  1.0000
  C   C141      1.0  0.173  0.59424  0.26813  1.0000
  C   C142      1.0  0.00549  0.7044  0.36707  1.0000
  C   C143      1.0  0.17131000000000002  0.2581  0.94337  1.0000
  C   C144      1.0  0.17484  0.30179  0.9952599999999999  1.0000
  C   C145      1.0  0.23677  0.28221000000000007  0.0403  1.0000
  C   C146      1.0  0.23643  0.32648  0.08653999999999998  1.0000
  C   C147      1.0  0.11992  0.40769  0.04701  1.0000
  C   C148      1.0  0.1147  0.3659  0.99995  1.0000
  C   C149      1.0  0.12873  0.49663  0.53887  1.0000
  C   C150      1.0  0.10422  0.53965  0.49394999999999994  1.0000
  C   C151      1.0  0.9990900000000001  0.56281  0.48579  1.0000
  C   C152      1.0  0.92355  0.5414  0.5244699999999999  1.0000
  C   C153      1.0  0.95399  0.49839000000000006  0.56839  1.0000
  C   C154      1.0  0.9664500000000003  0.60566  0.43641  1.0000
  C   C155      1.0  0.03244  0.674  0.4238  1.0000
  C   C156      1.0  0.05999  0.22726000000000002  0.93081  1.0000
  C   C157      1.0  0.0539  0.18842  0.8755599999999999  1.0000
  C   C158      1.0  0.06493  0.2385  0.8272199999999998  1.0000
  C   C159      1.0  0.14202  0.22625  0.7871399999999997  1.0000
  C   C160      1.0  0.14666  0.27187  0.74188  1.0000
  C   C161      1.0  0.0052  0.3409  0.77296  1.0000
  C   C162      1.0  0.9960100000000001  0.29793  0.81939  1.0000
  C   C163      1.0  0.43573  0.63842  0.7217599999999998  1.0000
  C   C164      1.0  0.47991  0.70169  0.75414  1.0000
  C   C165      1.0  0.52287  0.683  0.8112399999999999  1.0000
  C   C166      1.0  0.54456  0.75627  0.83979  1.0000
  C   C167      1.0  0.59155  0.74553  0.8969699999999998  1.0000
  C   C168      1.0  0.5105300000000002  0.7008400000000001  0.9305899999999999  1.0000
  C   C169      1.0  0.4888400000000001  0.62689  0.9030399999999997  1.0000
  C   C170      1.0  0.4431600000000001  0.63929  0.84575  1.0000
  C   C171      1.0  0.62811  0.6400300000000001  0.80776  1.0000
  C   C172      1.0  0.59335  0.58348  0.8984199999999999  1.0000
  C   C173      1.0  0.6740100000000001  0.62744  0.86486  1.0000
  C   C174      1.0  0.69522  0.70079  0.8930499999999998  1.0000
  C   C175      1.0  0.6100200000000001  0.8204000000000001  0.9244  1.0000
  C   C176      1.0  0.65843  0.8795400000000001  0.88846  1.0000
  C   C177      1.0  0.07397000000000001  0.53015  0.71249  1.0000
  C   C178      1.0  0.08618  0.5997000000000001  0.74497  1.0000
  C   C179      1.0  0.96571  0.56107  0.8235799999999998  1.0000
  C   C180      1.0  0.07713  0.58831  0.80721  1.0000
  C   C181      1.0  0.09670000000000002  0.66264  0.83471  1.0000
  C   C182      1.0  0.08892000000000003  0.65715  0.8970199999999999  1.0000
  C   C183      1.0  0.9775700000000002  0.62838  0.91237  1.0000
  C   C184      1.0  0.95807  0.55384  0.8855999999999998  1.0000
  C   C185      1.0  0.04196000000000001  0.49917000000000006  0.90572  1.0000
  C   C186      1.0  0.17241000000000004  0.60135  0.9170999999999998  1.0000
  C   C187      1.0  0.15351  0.52664  0.89024  1.0000
  C   C188      1.0  0.1609  0.5337  0.82811  1.0000
  C   C189      1.0  0.11161  0.7325  0.9229899999999999  1.0000
  C   C190      1.0  0.04511000000000001  0.79397  0.89881  1.0000
  C   C191      1.0  0.50162  0.43833  0.7544499999999998  1.0000
  C   C192      1.0  0.53658  0.38996  0.7944299999999997  1.0000
  C   C193      1.0  0.46276000000000006  0.34712  0.82274  1.0000
  C   C194      1.0  0.35551000000000005  0.35552  0.8087199999999998  1.0000
  C   C195      1.0  0.32686  0.40372  0.76766  1.0000
  C   C196      1.0  0.49456  0.29489  0.86718  1.0000
  C   C197      1.0  0.32919  0.74121  0.44317999999999996  1.0000
  C   C198      1.0  0.32643000000000005  0.69736  0.49507999999999996  1.0000
  C   C199      1.0  0.26588  0.71716  0.54059  1.0000
  C   C200      1.0  0.26692  0.67282  0.5868399999999999  1.0000
  C   C201      1.0  0.38158  0.59111  0.54644  1.0000
  C   C202      1.0  0.38607000000000014  0.63296  0.49933  1.0000
  C   C203      1.0  0.3717400000000001  0.50372  0.03845  1.0000
  C   C204      1.0  0.39607  0.46057  0.9935899999999998  1.0000
  C   C205      1.0  0.50095  0.43677  0.98556  1.0000
  C   C206      1.0  0.57644  0.45773  0.02431  1.0000
  C   C207      1.0  0.54621  0.50091  0.06816999999999998  1.0000
  C   C208      1.0  0.53335  0.39373  0.9362399999999999  1.0000
  C   C209      1.0  0.46703  0.32554  0.9237699999999998  1.0000
  C   C210      1.0  0.44033  0.77219  0.43022  1.0000
  C   C211      1.0  0.44588  0.81109  0.37493  1.0000
  C   C212      1.0  0.43499000000000004  0.76098  0.32665  1.0000
  C   C213      1.0  0.35791  0.7732100000000001  0.28662  1.0000
  C   C214      1.0  0.35309  0.72743  0.24151  1.0000
  C   C215      1.0  0.4945700000000001  0.65843  0.27251  1.0000
  C   C216      1.0  0.50388  0.70154  0.31882  1.0000
  N   N1        1.0  0.8974700000000001  0.05449999999999999  0.25857  1.0000
  N   N2        1.0  0.82049  0.88913  0.41042999999999996  1.0000
  N   N3        1.0  0.9421100000000001  0.97523  0.9253699999999999  1.0000
  N   N4        1.0  0.9208  0.82753  0.76616  1.0000
  N   N5        1.0  0.60379  0.94571  0.75798  1.0000
  N   N6        1.0  0.6804200000000002  0.11048000000000001  0.9102399999999998  1.0000
  N   N7        1.0  0.55423  0.02312  0.425  1.0000
  N   N8        1.0  0.57752  0.17149  0.26621  1.0000
  N   N9        1.0  0.10138  0.55307  0.24151  1.0000
  N   N10       1.0  0.1801  0.38878  0.09008999999999999  1.0000
  N   N11       1.0  0.05513  0.47622  0.57557  1.0000
  N   N12       1.0  0.07956000000000003  0.32834  0.73464  1.0000
  N   N13       1.0  0.3983  0.44508  0.7410199999999999  1.0000
  N   N14       1.0  0.32263  0.61021  0.58996  1.0000
  N   N15       1.0  0.44529  0.52369  0.07522  1.0000
  N   N16       1.0  0.42003  0.67087  0.23431999999999994  1.0000
  O   O1        1.0  0.83577  0.8703700000000001  0.27808  1.0000
  O   O2        1.0  1.9999999999999443e-05  0.9032900000000001  0.30431  1.0000
  O   O3        1.0  0.12568  0.55558  0.10479999999999998  1.0000
  O   O4        1.0  0.23494  0.63709  0.14464  1.0000
  O   O5        1.0  0.6604  0.00358  0.30486  1.0000
  O   O6        1.0  0.4840700000000001  0.9965200000000001  0.2984  1.0000
  O   O7        1.0  0.59383  0.6556900000000001  0.13253  1.0000
  O   O8        1.0  0.44951  0.70371  0.0928  1.0000
  O   O9        1.0  0.66688  0.12973  0.7779999999999998  1.0000
  O   O10       1.0  0.50268  0.09662  0.80425  1.0000
  O   O11       1.0  0.37547  0.44176000000000004  0.60535  1.0000
  O   O12       1.0  0.26361  0.35985000000000006  0.64344  1.0000
  O   O13       1.0  0.8414300000000001  0.9965  0.8057999999999997  1.0000
  O   O14       1.0  0.01759  0.00248  0.79743  1.0000
  O   O15       1.0  0.90469  0.34425  0.63193  1.0000
  O   O16       1.0  0.05082000000000001  0.29655  0.5932699999999999  1.0000
  O   O17       1.0  0.16334  0.37035  0.22332  1.0000
  O   O18       1.0  0.9997900000000001  0.39977000000000007  0.19366999999999995  1.0000
  O   O19       1.0  0.87757  0.05598  0.39474  1.0000
  O   O20       1.0  0.76241  0.13673  0.35768  1.0000
  O   O21       1.0  0.33886  0.50086  0.19435  1.0000
  O   O22       1.0  0.51468  0.49674000000000007  0.20369999999999994  1.0000
  O   O23       1.0  0.40132  0.15555  0.37026999999999993  1.0000
  O   O24       1.0  0.54857  0.20359000000000002  0.40699  1.0000
  O   O25       1.0  0.33403  0.62997  0.72204  1.0000
  O   O26       1.0  0.4979300000000001  0.59628  0.69575  1.0000
  O   O27       1.0  0.61974  0.94434  0.89447  1.0000
  O   O28       1.0  0.73149  0.86343  0.85517  1.0000
  O   O29       1.0  0.15958  0.49678  0.6950799999999999  1.0000
  O   O30       1.0  0.98363  0.50351  0.7036199999999998  1.0000
  O   O31       1.0  0.09042  0.84357  0.8706599999999998  1.0000
  O   O32       1.0  0.94432  0.79267  0.9066299999999998  1.0000
