data_image0
_chemical_formula_structural       Co6H156C176S4N32O28
_chemical_formula_sum              "Co6 H156 C176 S4 N32 O28"
_cell_length_a       10.65162
_cell_length_b       18.470029999999998
_cell_length_c       23.249350000000003
_cell_angle_alpha    98.98738000000002
_cell_angle_beta     103.15852
_cell_angle_gamma    89.9526

_space_group_name_H-M_alt    "P 1"
_space_group_IT_number       1

loop_
  _space_group_symop_operation_xyz
  'x, y, z'

loop_
  _atom_site_type_symbol
  _atom_site_label
  _atom_site_symmetry_multiplicity
  _atom_site_fract_x
  _atom_site_fract_y
  _atom_site_fract_z
  _atom_site_occupancy
  Co  Co1       1.0  0.8121900000000001  0.9323699999999999  0.28365  1.0000
  Co  Co2       1.0  0.5306999999999998  0.56754  0.7163999999999999  1.0000
  Co  Co3       1.0  0.18802999999999997  0.06764  0.7163999999999999  1.0000
  Co  Co4       1.0  0.46882  0.43267  0.2841  1.0000
  Co  Co5       1.0  0.99689  0.7501  0.99907  1.0000
  Co  Co6       1.0  0.00297  0.25068  0.00051  1.0000
  H   H1        1.0  0.58987  0.9350599999999999  0.50625  1.0000
  H   H2        1.0  0.50126  0.95798  0.43775  1.0000
  H   H3        1.0  0.05174000000000001  0.04271  0.33011  1.0000
  H   H4        1.0  0.03377000000000004  0.24423  0.33374  1.0000
  H   H5        1.0  0.13094  0.17372  0.3616  1.0000
  H   H6        1.0  0.10571000000000003  0.21753  0.23718  1.0000
  H   H7        1.0  0.23196  0.24644999999999997  0.30012  1.0000
  H   H8        1.0  0.70721  0.36063  0.35482  1.0000
  H   H9        1.0  0.83395  0.2651  0.40432999999999997  1.0000
  H   H10       1.0  0.7619  0.135  0.3781300000000001  1.0000
  H   H11       1.0  0.56108  0.09425  0.29938  1.0000
  H   H12       1.0  0.29884  0.28605  0.19771999999999998  1.0000
  H   H13       1.0  0.25693  0.15008  0.17454  1.0000
  H   H14       1.0  0.37277000000000005  0.09124  0.20846000000000003  1.0000
  H   H15       1.0  0.63951  0.011949999999999994  0.17022  1.0000
  H   H16       1.0  0.54634  0.12278999999999998  0.12861  1.0000
  H   H17       1.0  0.6538900000000001  0.2454  0.16443  1.0000
  H   H18       1.0  0.8608  0.26165  0.24197000000000002  1.0000
  H   H19       1.0  0.032239999999999956  0.84736  0.39114999999999994  1.0000
  H   H20       1.0  0.10914  0.8077200000000001  0.49042  1.0000
  H   H21       1.0  0.018639999999999986  0.8584199999999998  0.5767  1.0000
  H   H22       1.0  0.8458600000000001  0.95119  0.56658  1.0000
  H   H23       1.0  0.6756  0.02629  0.36568  1.0000
  H   H24       1.0  0.6221  0.08065  0.46172  1.0000
  H   H25       1.0  0.71027  0.05753000000000002  0.53015  1.0000
  H   H26       1.0  0.4421300000000001  0.9468499999999999  0.30695  1.0000
  H   H27       1.0  0.36584000000000005  0.84655  0.12198999999999999  1.0000
  H   H28       1.0  0.06539  0.85299  0.21898  1.0000
  H   H29       1.0  0.15235  0.66143  0.09331  1.0000
  H   H30       1.0  0.21042000000000005  0.55766  0.15065  1.0000
  H   H31       1.0  0.061120000000000015  0.45114  0.13587  1.0000
  H   H32       1.0  0.8482500000000001  0.44201  0.06359  1.0000
  H   H33       1.0  0.73021  0.64947  0.94314  1.0000
  H   H34       1.0  0.6855000000000001  0.4578999999999999  0.96383  1.0000
  H   H35       1.0  0.6103600000000001  0.5291  0.9275600000000002  1.0000
  H   H36       1.0  0.53749  0.58233  0.02063  1.0000
  H   H37       1.0  0.60957  0.51045  0.05696  1.0000
  H   H38       1.0  0.16647000000000003  0.08465  0.24133  1.0000
  H   H39       1.0  0.29523  0.11461  0.30268  1.0000
  H   H40       1.0  0.08321000000000003  0.56506  0.49348000000000003  1.0000
  H   H41       1.0  0.061839999999999985  0.54314  0.56218  1.0000
  H   H42       1.0  0.72292  0.45647  0.6689  1.0000
  H   H43       1.0  0.7036200000000001  0.25534  0.66584  1.0000
  H   H44       1.0  0.77212  0.3262  0.63805  1.0000
  H   H45       1.0  0.8707700000000002  0.28259  0.7625  1.0000
  H   H46       1.0  0.9351200000000001  0.2539  0.69971  1.0000
  H   H47       1.0  0.35631  0.13994  0.64582  1.0000
  H   H48       1.0  0.43086  0.23542000000000002  0.59539  1.0000
  H   H49       1.0  0.38326  0.36533000000000004  0.62124  1.0000
  H   H50       1.0  0.2617000000000001  0.40602  0.70049  1.0000
  H   H51       1.0  0.10517999999999994  0.21437  0.80348  1.0000
  H   H52       1.0  0.08321999999999992  0.35076  0.8256  1.0000
  H   H53       1.0  0.16546000000000016  0.40927  0.7915300000000001  1.0000
  H   H54       1.0  0.4705799999999999  0.48871  0.8290199999999999  1.0000
  H   H55       1.0  0.41902  0.37843  0.87131  1.0000
  H   H56       1.0  0.49066000000000004  0.25553  0.83582  1.0000
  H   H57       1.0  0.6197899999999998  0.23824999999999993  0.7580299999999999  1.0000
  H   H58       1.0  0.64487  0.64998  0.60857  1.0000
  H   H59       1.0  0.62136  0.69099  0.50966  1.0000
  H   H60       1.0  0.44185  0.64272  0.42409  1.0000
  H   H61       1.0  0.27837000000000006  0.55072  0.43443000000000004  1.0000
  H   H62       1.0  0.3110299999999999  0.47402  0.63513  1.0000
  H   H63       1.0  0.16059  0.42061  0.53987  1.0000
  H   H64       1.0  0.18101  0.44242999999999993  0.47108  1.0000
  H   H65       1.0  0.13902  0.55172  0.69361  1.0000
  H   H66       1.0  0.2431100000000001  0.6576400000000001  0.8771800000000001  1.0000
  H   H67       1.0  0.8465000000000001  0.64555  0.77969  1.0000
  H   H68       1.0  0.059320000000000025  0.83925  0.90629  1.0000
  H   H69       1.0  0.061389999999999945  0.94354  0.8496  1.0000
  H   H70       1.0  0.9263100000000001  0.04986  0.86429  1.0000
  H   H71       1.0  0.7849  0.058880000000000016  0.9365000000000001  1.0000
  H   H72       1.0  0.78483  0.85014  0.05555  1.0000
  H   H73       1.0  0.72097  0.04232  0.03626  1.0000
  H   H74       1.0  0.6820700000000001  0.9709  0.07225  1.0000
  H   H75       1.0  0.5164  0.91822  0.97934  1.0000
  H   H76       1.0  0.5525  0.99003  0.94301  1.0000
  H   H77       1.0  0.9263499999999998  0.41562  0.7585599999999999  1.0000
  H   H78       1.0  0.99475  0.38595  0.69732  1.0000
  H   H79       1.0  0.41049000000000013  0.06516000000000001  0.49393000000000004  1.0000
  H   H80       1.0  0.49904000000000004  0.0422  0.56243  1.0000
  H   H81       1.0  0.9482700000000001  0.95735  0.66972  1.0000
  H   H82       1.0  0.96585  0.75586  0.666  1.0000
  H   H83       1.0  0.8687700000000002  0.8265  0.6383  1.0000
  H   H84       1.0  0.89403  0.78226  0.76255  1.0000
  H   H85       1.0  0.76767  0.75359  0.69963  1.0000
  H   H86       1.0  0.29226  0.63959  0.64549  1.0000
  H   H87       1.0  0.16596999999999995  0.73511  0.59584  1.0000
  H   H88       1.0  0.23818000000000003  0.86519  0.62202  1.0000
  H   H89       1.0  0.43911000000000006  0.90586  0.7007  1.0000
  H   H90       1.0  0.7006100000000001  0.714  0.8026800000000001  1.0000
  H   H91       1.0  0.7432300000000001  0.8499799999999998  0.8255399999999999  1.0000
  H   H92       1.0  0.62744  0.90887  0.7916599999999999  1.0000
  H   H93       1.0  0.36032000000000003  0.98791  0.82979  1.0000
  H   H94       1.0  0.45298  0.8770800000000001  0.87153  1.0000
  H   H95       1.0  0.34554  0.75452  0.8355  1.0000
  H   H96       1.0  0.13879000000000005  0.73832  0.7577900000000001  1.0000
  H   H97       1.0  0.96777  0.1526  0.60891  1.0000
  H   H98       1.0  0.89117  0.19249  0.5097  1.0000
  H   H99       1.0  0.98188  0.14194  0.42345  1.0000
  H   H100      1.0  0.15454000000000007  0.04912  0.43354  1.0000
  H   H101      1.0  0.32448  0.9738499999999999  0.63446  1.0000
  H   H102      1.0  0.3781100000000001  0.91952  0.53839  1.0000
  H   H103      1.0  0.29005  0.94271  0.46996  1.0000
  H   H104      1.0  0.5579800000000001  0.05310999999999997  0.69305  1.0000
  H   H105      1.0  0.6343600000000001  0.15377  0.87802  1.0000
  H   H106      1.0  0.9346900000000001  0.14701  0.78105  1.0000
  H   H107      1.0  0.8480200000000002  0.33871000000000007  0.9061300000000001  1.0000
  H   H108      1.0  0.7889300000000002  0.44267  0.8491500000000001  1.0000
  H   H109      1.0  0.93748  0.54951  0.864  1.0000
  H   H110      1.0  0.15075  0.55877  0.93603  1.0000
  H   H111      1.0  0.27045  0.35095  0.05609000000000001  1.0000
  H   H112      1.0  0.31436  0.54281  0.03579  1.0000
  H   H113      1.0  0.3891  0.47167  0.0722  1.0000
  H   H114      1.0  0.46252000000000004  0.41817  0.97938  1.0000
  H   H115      1.0  0.39064999999999994  0.48989999999999995  0.9428199999999999  1.0000
  H   H116      1.0  0.83371  0.91524  0.75876  1.0000
  H   H117      1.0  0.70475  0.8855799999999999  0.69741  1.0000
  H   H118      1.0  0.91738  0.4349700000000001  0.50649  1.0000
  H   H119      1.0  0.93842  0.45723  0.43785  1.0000
  H   H120      1.0  0.27684000000000003  0.54425  0.33119  1.0000
  H   H121      1.0  0.29682  0.74545  0.33366  1.0000
  H   H122      1.0  0.22850999999999996  0.67502  0.36194999999999994  1.0000
  H   H123      1.0  0.12922  0.7179  0.23728  1.0000
  H   H124      1.0  0.065  0.7466  0.30011  1.0000
  H   H125      1.0  0.64355  0.8600600000000002  0.35403  1.0000
  H   H126      1.0  0.56924  0.76462  0.40457999999999994  1.0000
  H   H127      1.0  0.61723  0.63476  0.37888  1.0000
  H   H128      1.0  0.73881  0.59402  0.29965  1.0000
  H   H129      1.0  0.8952600000000001  0.78576  0.19662  1.0000
  H   H130      1.0  0.9171100000000002  0.64931  0.17441  1.0000
  H   H131      1.0  0.83526  0.59077  0.20862000000000003  1.0000
  H   H132      1.0  0.52978  0.51119  0.17131  1.0000
  H   H133      1.0  0.5817500000000001  0.62126  0.12882  1.0000
  H   H134      1.0  0.51006  0.74431  0.16395  1.0000
  H   H135      1.0  0.38088000000000005  0.76199  0.24167999999999998  1.0000
  H   H136      1.0  0.35566  0.34989  0.3919  1.0000
  H   H137      1.0  0.3796900000000001  0.30866  0.49067  1.0000
  H   H138      1.0  0.55907  0.35704  0.57623  1.0000
  H   H139      1.0  0.72235  0.44925  0.5659  1.0000
  H   H140      1.0  0.6888100000000001  0.5263  0.3653  1.0000
  H   H141      1.0  0.8395  0.57962  0.46052000000000004  1.0000
  H   H142      1.0  0.8196000000000001  0.55749  0.52931  1.0000
  H   H143      1.0  0.86188  0.44675000000000004  0.30746  1.0000
  H   H144      1.0  0.7566400000000001  0.3448  0.12299  1.0000
  H   H145      1.0  0.15366  0.355  0.21986  1.0000
  H   H146      1.0  0.94114  0.16187  0.09419  1.0000
  H   H147      1.0  0.9389300000000002  0.057530000000000005  0.15074  1.0000
  H   H148      1.0  0.07373  0.9511  0.13587  1.0000
  H   H149      1.0  0.21534000000000003  0.9422099999999999  0.06376  1.0000
  H   H150      1.0  0.21508999999999992  0.15086  0.94462  1.0000
  H   H151      1.0  0.2787  0.9587800000000001  0.96352  1.0000
  H   H152      1.0  0.31825000000000003  0.03053999999999998  0.9280199999999998  1.0000
  H   H153      1.0  0.48367000000000004  0.08244  0.02113  1.0000
  H   H154      1.0  0.44694  0.01048  0.05714  1.0000
  H   H155      1.0  0.07450000000000001  0.58484  0.24156  1.0000
  H   H156      1.0  0.006119999999999984  0.61456  0.30279  1.0000
  C   C1        1.0  0.54925  0.9810499999999999  0.4841  1.0000
  C   C2        1.0  0.9744400000000006  0.06504  0.29954  1.0000
  C   C3        1.0  0.07622  0.1918  0.32063  1.0000
  C   C4        1.0  0.16359000000000004  0.20048  0.2781  1.0000
  C   C5        1.0  0.51971  0.20658  0.28588  1.0000
  C   C6        1.0  0.5583700000000001  0.28173  0.30194  1.0000
  C   C7        1.0  0.6734800000000001  0.30368  0.34428  1.0000
  C   C8        1.0  0.7440300000000001  0.24961000000000003  0.37132  1.0000
  C   C9        1.0  0.7024900000000001  0.17523  0.35627  1.0000
  C   C10       1.0  0.5902499999999999  0.15203  0.3129  1.0000
  C   C11       1.0  0.38156  0.2736  0.23139  1.0000
  C   C12       1.0  0.3177  0.1403  0.21739  1.0000
  C   C13       1.0  0.8632100000000001  0.14567  0.24873  1.0000
  C   C14       1.0  0.80119  0.07548  0.22994000000000003  1.0000
  C   C15       1.0  0.6864200000000001  0.06598  0.18552000000000002  1.0000
  C   C16       1.0  0.63651  0.12809  0.16247  1.0000
  C   C17       1.0  0.6978900000000001  0.19804  0.18249999999999997  1.0000
  C   C18       1.0  0.8133600000000001  0.20790999999999998  0.22593  1.0000
  C   C19       1.0  0.8455700000000002  0.94997  0.473  1.0000
  C   C20       1.0  0.89651  0.9216299999999998  0.42312  1.0000
  C   C21       1.0  0.99196  0.86925  0.42881  1.0000
  C   C22       1.0  0.03423999999999998  0.84785  0.4847  1.0000
  C   C23       1.0  0.9828300000000001  0.8769099999999999  0.53393  1.0000
  C   C24       1.0  0.8870000000000002  0.9285500000000001  0.5291  1.0000
  C   C25       1.0  0.7461000000000001  0.9968399999999998  0.39362  1.0000
  C   C26       1.0  0.6590800000000001  0.03447000000000001  0.48440000000000005  1.0000
  C   C27       1.0  0.37535  0.9186599999999999  0.26726  1.0000
  C   C28       1.0  0.41774000000000006  0.89905  0.2143  1.0000
  C   C29       1.0  0.33237  0.86223  0.16288  1.0000
  C   C30       1.0  0.20546000000000003  0.8447700000000001  0.16464  1.0000
  C   C31       1.0  0.16411999999999996  0.86509  0.21766999999999997  1.0000
  C   C32       1.0  0.24863000000000002  0.9015299999999999  0.26856  1.0000
  C   C33       1.0  0.5564  0.9145899999999999  0.21435999999999997  1.0000
  C   C34       1.0  0.10918000000000001  0.80625  0.11139  1.0000
  C   C35       1.0  0.8801  0.5489  0.03909  1.0000
  C   C36       1.0  0.96541  0.61041  0.047369999999999995  1.0000
  C   C37       1.0  0.08604000000000002  0.61475  0.08764  1.0000
  C   C38       1.0  0.11748  0.55642  0.11906  1.0000
  C   C39       1.0  0.032060000000000005  0.49542  0.11055  1.0000
  C   C40       1.0  0.91186  0.49017  0.07042  1.0000
  C   C41       1.0  0.7960100000000001  0.6272  0.97838  1.0000
  C   C42       1.0  0.6559  0.51492  0.9714899999999999  1.0000
  C   C43       1.0  0.5618200000000001  0.52427  0.01307  1.0000
  C   C44       1.0  0.23509  0.13092  0.262  1.0000
  C   C45       1.0  0.06487999999999997  0.51949  0.51609  1.0000
  C   C46       1.0  0.67653  0.43444  0.69975  1.0000
  C   C47       1.0  0.75827  0.30799  0.67899  1.0000
  C   C48       1.0  0.888  0.29973  0.72163  1.0000
  C   C49       1.0  0.2357100000000001  0.29377  0.71444  1.0000
  C   C50       1.0  0.25952  0.2187  0.69869  1.0000
  C   C51       1.0  0.33217  0.19681  0.65615  1.0000
  C   C52       1.0  0.37427000000000005  0.25084  0.62864  1.0000
  C   C53       1.0  0.34673  0.32513  0.64347  1.0000
  C   C54       1.0  0.27806  0.34829  0.68705  1.0000
  C   C55       1.0  0.1537  0.22688  0.7695899999999999  1.0000
  C   C56       1.0  0.10167000000000007  0.36021  0.7827300000000001  1.0000
  C   C57       1.0  0.61603  0.35415  0.75086  1.0000
  C   C58       1.0  0.57285  0.42451  0.76952  1.0000
  C   C59       1.0  0.50234  0.43455999999999995  0.8139799999999999  1.0000
  C   C60       1.0  0.47529000000000005  0.37276  0.8373400000000001  1.0000
  C   C61       1.0  0.5166000000000002  0.30264  0.8174800000000001  1.0000
  C   C62       1.0  0.5886400000000002  0.29219  0.77393  1.0000
  C   C63       1.0  0.3730500000000001  0.55042  0.52759  1.0000
  C   C64       1.0  0.47511000000000003  0.57763  0.5771  1.0000
  C   C65       1.0  0.56582  0.62925  0.5712  1.0000
  C   C66       1.0  0.55154  0.65136  0.51551  1.0000
  C   C67       1.0  0.4494400000000001  0.62362  0.46669000000000005  1.0000
  C   C68       1.0  0.3578299999999999  0.5725  0.4716699999999999  1.0000
  C   C69       1.0  0.35355  0.50323  0.607  1.0000
  C   C70       1.0  0.17499  0.46625000000000005  0.51665  1.0000
  C   C71       1.0  0.11078000000000005  0.58054  0.7328600000000001  1.0000
  C   C72       1.0  0.2051200000000001  0.60215  0.78573  1.0000
  C   C73       1.0  0.16968000000000008  0.6398  0.83646  1.0000
  C   C74       1.0  0.04041000000000003  0.65605  0.83418  1.0000
  C   C75       1.0  0.94691  0.63401  0.78131  1.0000
  C   C76       1.0  0.98222  0.5968900000000001  0.7309  1.0000
  C   C77       1.0  0.34426  0.58817  0.78639  1.0000
  C   C78       1.0  0.9979600000000002  0.69518  0.88737  1.0000
  C   C79       1.0  0.84058  0.95168  0.96055  1.0000
  C   C80       1.0  0.9172000000000001  0.88998  0.95186  1.0000
  C   C81       1.0  0.9984700000000001  0.88591  0.91191  1.0000
  C   C82       1.0  0.99922  0.94452  0.88089  1.0000
  C   C83       1.0  0.9221300000000002  0.0055100000000000045  0.88947  1.0000
  C   C84       1.0  0.84162  0.010650000000000005  0.92952  1.0000
  C   C85       1.0  0.8159500000000002  0.87271  0.02055  1.0000
  C   C86       1.0  0.68378  0.98532  0.02838  1.0000
  C   C87       1.0  0.54842  0.97623  0.9869  1.0000
  C   C88       1.0  0.9748800000000001  0.36947  0.7379  1.0000
  C   C89       1.0  0.45105000000000006  0.019150000000000004  0.51608  1.0000
  C   C90       1.0  0.02544  0.9349899999999999  0.70035  1.0000
  C   C91       1.0  0.9235  0.80829  0.67921  1.0000
  C   C92       1.0  0.8361300000000002  0.79951  0.72173  1.0000
  C   C93       1.0  0.4802100000000001  0.79354  0.71429  1.0000
  C   C94       1.0  0.44137000000000004  0.71842  0.69829  1.0000
  C   C95       1.0  0.32621  0.6965000000000001  0.65597  1.0000
  C   C96       1.0  0.25583000000000006  0.75059  0.62889  1.0000
  C   C97       1.0  0.29752  0.82494  0.6439  1.0000
  C   C98       1.0  0.40980000000000005  0.84811  0.68724  1.0000
  C   C99       1.0  0.61812  0.72651  0.76891  1.0000
  C   C100      1.0  0.6823800000000001  0.85976  0.7827100000000001  1.0000
  C   C101      1.0  0.13649000000000003  0.85431  0.7511700000000001  1.0000
  C   C102      1.0  0.19856999999999997  0.9244899999999999  0.7700000000000001  1.0000
  C   C103      1.0  0.3132600000000001  0.9339300000000001  0.81447  1.0000
  C   C104      1.0  0.3629900000000001  0.8718199999999999  0.83756  1.0000
  C   C105      1.0  0.30161  0.80188  0.81743  1.0000
  C   C106      1.0  0.18627  0.7920500000000001  0.77392  1.0000
  C   C107      1.0  0.15463  0.050189999999999985  0.52709  1.0000
  C   C108      1.0  0.10352  0.07841999999999999  0.57694  1.0000
  C   C109      1.0  0.008089999999999988  0.1308  0.57126  1.0000
  C   C110      1.0  0.96601  0.15233  0.5154  1.0000
  C   C111      1.0  0.01755999999999996  0.12336999999999998  0.46619  1.0000
  C   C112      1.0  0.11332999999999996  0.07169999999999999  0.47101999999999994  1.0000
  C   C113      1.0  0.25397  0.0032500000000000185  0.60647  1.0000
  C   C114      1.0  0.34118  0.96573  0.51574  1.0000
  C   C115      1.0  0.62465  0.08135000000000003  0.73276  1.0000
  C   C116      1.0  0.58234  0.10091  0.78577  1.0000
  C   C117      1.0  0.6677000000000001  0.13788  0.83711  1.0000
  C   C118      1.0  0.7944600000000002  0.15545  0.83523  1.0000
  C   C119      1.0  0.83576  0.13515  0.7822000000000001  1.0000
  C   C120      1.0  0.7512  0.09872000000000003  0.7313200000000001  1.0000
  C   C121      1.0  0.4437700000000001  0.08537000000000004  0.7858200000000001  1.0000
  C   C122      1.0  0.8906900000000001  0.19388  0.88849  1.0000
  C   C123      1.0  0.11962999999999997  0.4517500000000001  0.9605000000000001  1.0000
  C   C124      1.0  0.03472000000000009  0.39002000000000003  0.9520800000000001  1.0000
  C   C125      1.0  0.9140000000000003  0.38555  0.91187  1.0000
  C   C126      1.0  0.88203  0.44397  0.88062  1.0000
  C   C127      1.0  0.96707  0.50516  0.88919  1.0000
  C   C128      1.0  0.08737999999999992  0.51052  0.92925  1.0000
  C   C129      1.0  0.20432  0.3733  0.02098  1.0000
  C   C130      1.0  0.3438800000000001  0.48577  0.0282  1.0000
  C   C131      1.0  0.43823000000000006  0.47624  0.98679  1.0000
  C   C132      1.0  0.76486  0.8690899999999999  0.73803  1.0000
  C   C133      1.0  0.93555  0.48068999999999995  0.48399999999999993  1.0000
  C   C134      1.0  0.32355  0.56618  0.30039  1.0000
  C   C135      1.0  0.24216000000000001  0.69281  0.32083  1.0000
  C   C136      1.0  0.11228  0.70082  0.27822  1.0000
  C   C137      1.0  0.76445  0.70625  0.28553  1.0000
  C   C138      1.0  0.7404800000000001  0.78131  0.30123  1.0000
  C   C139      1.0  0.66778  0.80321  0.34375  1.0000
  C   C140      1.0  0.6258400000000001  0.7492  0.37133  1.0000
  C   C141      1.0  0.65361  0.67493  0.35657  1.0000
  C   C142      1.0  0.72227  0.65174  0.313  1.0000
  C   C143      1.0  0.84656  0.77318  0.23043  1.0000
  C   C144      1.0  0.8988200000000001  0.63991  0.21733  1.0000
  C   C145      1.0  0.38438  0.64616  0.24912  1.0000
  C   C146      1.0  0.42747000000000007  0.57572  0.23063  1.0000
  C   C147      1.0  0.4981  0.56543  0.18621  1.0000
  C   C148      1.0  0.52528  0.6271  0.16272  1.0000
  C   C149      1.0  0.48403  0.69731  0.18239  1.0000
  C   C150      1.0  0.41191  0.70798  0.2259  1.0000
  C   C151      1.0  0.62739  0.44966  0.4728299999999999  1.0000
  C   C152      1.0  0.52519  0.42249  0.42337  1.0000
  C   C153      1.0  0.43474  0.37071  0.42923  1.0000
  C   C154      1.0  0.44929  0.34845  0.48487  1.0000
  C   C155      1.0  0.55137  0.37624  0.53367  1.0000
  C   C156      1.0  0.6428200000000001  0.42746  0.5287  1.0000
  C   C157      1.0  0.64647  0.49703  0.39346  1.0000
  C   C158      1.0  0.8253900000000001  0.53387  0.48367999999999994  1.0000
  C   C159      1.0  0.8899700000000001  0.41889  0.26783  1.0000
  C   C160      1.0  0.7954  0.39827  0.21489  1.0000
  C   C161      1.0  0.83045  0.36135  0.1638  1.0000
  C   C162      1.0  0.9593900000000001  0.34463  0.16573  1.0000
  C   C163      1.0  0.05324  0.36613  0.21859  1.0000
  C   C164      1.0  0.018470000000000004  0.40273  0.26933  1.0000
  C   C165      1.0  0.6561  0.4121  0.21424000000000004  1.0000
  C   C166      1.0  0.0016100000000000075  0.30572  0.11239000000000002  1.0000
  C   C167      1.0  0.15956  0.04936999999999999  0.0397  1.0000
  C   C168      1.0  0.08286  0.11104000000000001  0.04834999999999999  1.0000
  C   C169      1.0  0.0017900000000000023  0.11516000000000001  0.0884  1.0000
  C   C170      1.0  0.0010000000000000063  0.05652999999999999  0.11941  1.0000
  C   C171      1.0  0.07798  0.9955  0.11074999999999999  1.0000
  C   C172      1.0  0.15855  0.9904000000000001  0.07073  1.0000
  C   C173      1.0  0.184  0.12826999999999997  0.97962  1.0000
  C   C174      1.0  0.31619000000000014  0.015749999999999997  0.97174  1.0000
  C   C175      1.0  0.45139000000000007  0.02447  0.01334  1.0000
  C   C176      1.0  0.02575999999999999  0.63095  0.26213  1.0000
  S   S1        1.0  0.19426  0.92276  0.33604  1.0000
  S   S2        1.0  0.8620400000000001  0.57552  0.66299  1.0000
  S   S3        1.0  0.80564  0.07746000000000003  0.66386  1.0000
  S   S4        1.0  0.1396  0.42440999999999995  0.33693  1.0000
  N   N1        1.0  0.8733600000000002  0.02586  0.26312  1.0000
  N   N2        1.0  0.9723100000000001  0.13676  0.29296  1.0000
  N   N3        1.0  0.46750000000000014  0.32232  0.2678  1.0000
  N   N4        1.0  0.4086  0.20332  0.2402  1.0000
  N   N5        1.0  0.8318400000000001  0.95276  0.37379  1.0000
  N   N6        1.0  0.75126  0.9981799999999998  0.45252  1.0000
  N   N7        1.0  0.90933  0.6584  0.00884  1.0000
  N   N8        1.0  0.77294  0.56166  0.9951  1.0000
  N   N9        1.0  0.61194  0.47386000000000006  0.73621  1.0000
  N   N10       1.0  0.68104  0.3628  0.70651  1.0000
  N   N11       1.0  0.20395000000000002  0.17816  0.7333  1.0000
  N   N12       1.0  0.1704300000000001  0.29711000000000004  0.7602700000000001  1.0000
  N   N13       1.0  0.46004000000000006  0.5464  0.62644  1.0000
  N   N14       1.0  0.29882  0.50263  0.5483  1.0000
  N   N15       1.0  0.89871  0.8415499999999999  0.98988  1.0000
  N   N16       1.0  0.7770600000000001  0.93865  0.00442  1.0000
  N   N17       1.0  0.12652  0.97414  0.73681  1.0000
  N   N18       1.0  0.02747999999999999  0.86327  0.70692  1.0000
  N   N19       1.0  0.53212  0.67782  0.73251  1.0000
  N   N20       1.0  0.5913300000000001  0.7967799999999999  0.7599799999999999  1.0000
  N   N21       1.0  0.16808  0.047239999999999976  0.62626  1.0000
  N   N22       1.0  0.24897  0.0019999999999999966  0.54759  1.0000
  N   N23       1.0  0.09118999999999998  0.3419499999999999  0.9904599999999999  1.0000
  N   N24       1.0  0.22688  0.43905  0.00448  1.0000
  N   N25       1.0  0.38823  0.52657  0.26405  1.0000
  N   N26       1.0  0.31927000000000005  0.63777  0.29348  1.0000
  N   N27       1.0  0.79614  0.82187  0.26667  1.0000
  N   N28       1.0  0.8298400000000001  0.70294  0.23972999999999997  1.0000
  N   N29       1.0  0.53997  0.45387  0.37406  1.0000
  N   N30       1.0  0.70148  0.49749999999999994  0.4521  1.0000
  N   N31       1.0  0.10118  0.1594  0.01026  1.0000
  N   N32       1.0  0.22303999999999993  0.062389999999999994  0.99581  1.0000
  O   O1        1.0  0.6244  0.9488500000000001  0.26543  1.0000
  O   O2        1.0  0.59938  0.8947199999999998  0.16883  1.0000
  O   O3        1.0  0.9941300000000001  0.7959  0.11445  1.0000
  O   O4        1.0  0.15047  0.78542  0.06323  1.0000
  O   O5        1.0  0.051530000000000006  0.91239  0.31685  1.0000
  O   O6        1.0  0.25622000000000006  0.86967  0.37421999999999994  1.0000
  O   O7        1.0  0.23768000000000003  0.00012999999999999497  0.36037  1.0000
  O   O8        1.0  0.36274  0.55221  0.73615  1.0000
  O   O9        1.0  0.43137  0.61066  0.83169  1.0000
  O   O10       1.0  0.88023  0.70571  0.88531  1.0000
  O   O11       1.0  0.08799999999999993  0.71618  0.9350399999999999  1.0000
  O   O12       1.0  0.7385200000000001  0.5856100000000001  0.68239  1.0000
  O   O13       1.0  0.8869500000000001  0.6291800000000001  0.62548  1.0000
  O   O14       1.0  0.88111  0.49839  0.63769  1.0000
  O   O15       1.0  0.3757799999999999  0.05086999999999998  0.7348199999999999  1.0000
  O   O16       1.0  0.40064000000000005  0.10555  0.83126  1.0000
  O   O17       1.0  0.00587000000000002  0.2041  0.88555  1.0000
  O   O18       1.0  0.8493200000000001  0.21477999999999997  0.9366099999999999  1.0000
  O   O19       1.0  0.94836  0.08771  0.68313  1.0000
  O   O20       1.0  0.74374  0.13061  0.6257  1.0000
  O   O21       1.0  0.76224  7.000000000000468e-05  0.63954  1.0000
  O   O22       1.0  0.63749  0.44753  0.26468  1.0000
  O   O23       1.0  0.56917  0.3899  0.16878  1.0000
  O   O24       1.0  0.11883000000000003  0.29284  0.11506  1.0000
  O   O25       1.0  0.91192  0.28692  0.0641  1.0000
  O   O26       1.0  0.2626  0.41464  0.31706  1.0000
  O   O27       1.0  0.1176  0.37067  0.37485  1.0000
  O   O28       1.0  0.11936  0.50135  0.3623  1.0000
