data_image0
_chemical_formula_structural       Zn12H152C256N16O48
_chemical_formula_sum              "Zn12 H152 C256 N16 O48"
_cell_length_a       10.32846
_cell_length_b       29.71681
_cell_length_c       29.56669
_cell_angle_alpha    91.72768
_cell_angle_beta     93.2816
_cell_angle_gamma    92.21913999999998

_symmetry_space_group_name_H-M    'P 1'
_symmetry_Int_Tables_number       1

loop_
  _symmetry_equiv_pos_as_xyz
  'x,y,z'

loop_
  _atom_site_type_symbol
  _atom_site_label
  _atom_site_symmetry_multiplicity
  _atom_site_fract_x
  _atom_site_fract_y
  _atom_site_fract_z
  _atom_site_occupancy
  Zn  Zn1       1.0  0.87877  0.23099  0.7736599999999998  1.0000
  Zn  Zn2       1.0  0.26243  0.40301  0.5978299999999998  1.0000
  Zn  Zn3       1.0  0.25737999999999994  0.039290000000000005  0.6007099999999997  1.0000
  Zn  Zn4       1.0  0.6274499999999998  0.22957000000000005  0.7691499999999998  1.0000
  Zn  Zn5       1.0  0.23653999999999997  0.40291  0.9604799999999998  1.0000
  Zn  Zn6       1.0  0.24889999999999995  0.05347  0.9466999999999998  1.0000
  Zn  Zn7       1.0  0.12124999999999997  0.76901  0.22633999999999996  1.0000
  Zn  Zn8       1.0  0.73759  0.59699  0.40216999999999997  1.0000
  Zn  Zn9       1.0  0.74264  0.9607100000000002  0.39929  1.0000
  Zn  Zn10      1.0  0.75112  0.94653  0.053299999999999986  1.0000
  Zn  Zn11      1.0  0.76348  0.5971  0.03952  1.0000
  Zn  Zn12      1.0  0.37256999999999996  0.77043  0.23084999999999994  1.0000
  H   H1        1.0  0.12468999999999998  0.78818  0.76872  1.0000
  H   H2        1.0  0.37236  0.02138  0.03753999999999999  1.0000
  H   H3        1.0  0.21148  0.5753600000000002  0.59868  1.0000
  H   H4        1.0  0.53764  0.13244  0.87105  1.0000
  H   H5        1.0  0.12153000000000005  0.15311000000000005  0.07535999999999998  1.0000
  H   H6        1.0  0.13227  0.9632600000000002  0.9795999999999998  1.0000
  H   H7        1.0  0.38939  0.4927300000000001  0.98216  1.0000
  H   H8        1.0  0.0358  0.1453  0.13802  1.0000
  H   H9        1.0  0.15337  0.06825  0.36735  1.0000
  H   H10       1.0  0.08420999999999997  0.29088  0.4773099999999999  1.0000
  H   H11       1.0  0.34885999999999995  0.22259000000000004  0.3597499999999999  1.0000
  H   H12       1.0  0.31939  0.6367799999999999  0.9378  1.0000
  H   H13       1.0  0.44441  0.96355  0.60137  1.0000
  H   H14       1.0  0.5568699999999999  0.32876  0.6701099999999998  1.0000
  H   H15       1.0  0.4604899999999999  0.8635700000000001  0.8526099999999998  1.0000
  H   H16       1.0  0.13637999999999997  0.009779999999999997  0.5039299999999999  1.0000
  H   H17       1.0  0.74555  0.042480000000000004  0.9570399999999998  1.0000
  H   H18       1.0  0.39692  0.13109  0.25386  1.0000
  H   H19       1.0  0.03547  0.18762  0.21039  1.0000
  H   H20       1.0  0.44546  0.82358  0.65553  1.0000
  H   H21       1.0  0.06552999999999998  0.5246  0.86069  1.0000
  H   H22       1.0  0.38276999999999994  0.15206  0.48752  1.0000
  H   H23       1.0  0.10877999999999995  0.74815  0.8697099999999998  1.0000
  H   H24       1.0  0.4644599999999999  0.88986  0.6386999999999998  1.0000
  H   H25       1.0  0.75708  0.030410000000000003  0.5853799999999999  1.0000
  H   H26       1.0  0.46348999999999996  0.79093  0.81161  1.0000
  H   H27       1.0  0.40169  0.27421  0.14400999999999994  1.0000
  H   H28       1.0  0.36566  0.18358  0.4306099999999999  1.0000
  H   H29       1.0  0.31012  0.40124  0.42464  1.0000
  H   H30       1.0  0.41609  0.3099  0.08898  1.0000
  H   H31       1.0  0.9546499999999998  0.12861  0.8701699999999998  1.0000
  H   H32       1.0  0.3760299999999999  0.11442999999999999  0.5603899999999998  1.0000
  H   H33       1.0  0.07040999999999999  0.90339  0.6786399999999998  1.0000
  H   H34       1.0  0.3528899999999999  0.35502  0.3739099999999999  1.0000
  H   H35       1.0  0.38406  0.23215  0.21349999999999997  1.0000
  H   H36       1.0  0.4201  0.52187  0.71513  1.0000
  H   H37       1.0  0.34396  0.70726  0.8969499999999998  1.0000
  H   H38       1.0  0.15982999999999997  0.69818  0.6873799999999998  1.0000
  H   H39       1.0  0.92663  0.33013999999999993  0.8794999999999997  1.0000
  H   H40       1.0  0.35156  0.042000000000000016  0.11905  1.0000
  H   H41       1.0  0.56876  0.12356000000000002  0.67101  1.0000
  H   H42       1.0  0.39359  0.44637  0.6761899999999997  1.0000
  H   H43       1.0  0.41483  0.35025  0.0174  1.0000
  H   H44       1.0  0.012309999999999998  0.2784800000000001  0.4098199999999999  1.0000
  H   H45       1.0  0.13871  0.10775  0.29571  1.0000
  H   H46       1.0  0.15638  0.8821800000000001  0.9586299999999998  1.0000
  H   H47       1.0  0.40187  0.09053  0.17981  1.0000
  H   H48       1.0  0.05029  0.34138  0.17309  1.0000
  H   H49       1.0  0.17789  0.49664000000000014  0.56826  1.0000
  H   H50       1.0  0.34755  0.4311200000000001  0.50394  1.0000
  H   H51       1.0  0.10217999999999997  0.82217  0.9095599999999998  1.0000
  H   H52       1.0  0.16601  0.64138  0.77595  1.0000
  H   H53       1.0  0.49013000000000007  0.6607900000000002  0.7712499999999998  1.0000
  H   H54       1.0  0.13549  0.040700000000000014  0.42889  1.0000
  H   H55       1.0  0.98644  0.12513  0.67298  1.0000
  H   H56       1.0  0.03863  0.3003000000000001  0.24315  1.0000
  H   H57       1.0  0.13319  0.12320000000000003  0.99622  1.0000
  H   H58       1.0  0.052439999999999994  0.37141  0.11470999999999999  1.0000
  H   H59       1.0  0.10660999999999994  0.85761  0.7265999999999999  1.0000
  H   H60       1.0  0.36764  0.92591  0.8444599999999998  1.0000
  H   H61       1.0  0.9747899999999999  0.33138000000000006  0.67325  1.0000
  H   H62       1.0  0.4607200000000001  0.75416  0.6979199999999999  1.0000
  H   H63       1.0  0.14656999999999995  0.57108  0.8157599999999998  1.0000
  H   H64       1.0  0.35037999999999997  0.31194  0.30168  1.0000
  H   H65       1.0  0.4985399999999999  0.58963  0.7262399999999998  1.0000
  H   H66       1.0  0.068  0.4088500000000001  0.04127999999999999  1.0000
  H   H67       1.0  0.11618  0.32929  0.55321  1.0000
  H   H68       1.0  0.50863  0.32715000000000005  0.8764699999999997  1.0000
  H   H69       1.0  0.018609999999999977  0.23236  0.3391099999999999  1.0000
  H   H70       1.0  0.07614999999999997  0.45007  0.8957099999999999  1.0000
  H   H71       1.0  0.73392  0.4155100000000001  0.97178  1.0000
  H   H72       1.0  0.0702  0.97655  0.64071  1.0000
  H   H73       1.0  0.39286  0.569  0.9522  1.0000
  H   H74       1.0  0.76205  0.41695000000000004  0.58352  1.0000
  H   H75       1.0  0.35501  0.00455  0.87487  1.0000
  H   H76       1.0  0.16022  0.62584  0.64498  1.0000
  H   H77       1.0  0.6899  0.5987600000000002  0.57536  1.0000
  H   H78       1.0  0.65247  0.5688800000000003  0.49606  1.0000
  H   H79       1.0  0.89124  0.25185  0.13029  1.0000
  H   H80       1.0  0.8934099999999999  0.14239  0.2734  1.0000
  H   H81       1.0  0.60716  0.431  0.0478  1.0000
  H   H82       1.0  0.2661  0.58449  0.028219999999999995  1.0000
  H   H83       1.0  0.61596  0.7678600000000002  0.7864999999999998  1.0000
  H   H84       1.0  0.6511600000000001  0.77741  0.64025  1.0000
  H   H85       1.0  0.5981500000000001  0.9094700000000002  0.82018  1.0000
  H   H86       1.0  0.5851899999999999  0.64975  0.9825999999999999  1.0000
  H   H87       1.0  0.64713  0.64498  0.6260799999999999  1.0000
  H   H88       1.0  0.93449  0.47541  0.1393  1.0000
  H   H89       1.0  0.64501  0.99545  0.12513  1.0000
  H   H90       1.0  0.93202  0.59116  0.95872  1.0000
  H   H91       1.0  0.8753299999999999  0.21182  0.23127999999999996  1.0000
  H   H92       1.0  0.84364  0.11783  0.04136999999999998  1.0000
  H   H93       1.0  0.8613100000000001  0.89225  0.7042899999999997  1.0000
  H   H94       1.0  0.62399  0.8855700000000002  0.43961  1.0000
  H   H95       1.0  0.43126  0.87644  0.32899  1.0000
  H   H96       1.0  0.87849  0.84689  0.9246399999999998  1.0000
  H   H97       1.0  0.58393  0.6901100000000002  0.9110199999999998  1.0000
  H   H98       1.0  0.6031  0.86892  0.7461399999999999  1.0000
  H   H99       1.0  0.07339  0.66986  0.12049999999999997  1.0000
  H   H100      1.0  0.94973  0.65862  0.8269  1.0000
  H   H101      1.0  0.23797  0.58305  0.41648  1.0000
  H   H102      1.0  0.94757  0.62859  0.88529  1.0000
  H   H103      1.0  0.46238000000000007  0.86756  0.12895  1.0000
  H   H104      1.0  0.92387  0.54994  0.10428999999999997  1.0000
  H   H105      1.0  0.8636400000000001  0.99022  0.49607  1.0000
  H   H106      1.0  0.6276600000000001  0.9786200000000003  0.9624599999999999  1.0000
  H   H107      1.0  0.65606  0.29274  0.10305  1.0000
  H   H108      1.0  0.98141  0.76764  0.6608899999999998  1.0000
  H   H109      1.0  0.86775  0.036740000000000016  0.020399999999999995  1.0000
  H   H110      1.0  0.61725  0.8479400000000002  0.51248  1.0000
  H   H111      1.0  0.8340100000000001  0.35863  0.22404999999999994  1.0000
  H   H112      1.0  0.53953  0.13644000000000006  0.14739  1.0000
  H   H113      1.0  0.84665  0.93176  0.6326499999999998  1.0000
  H   H114      1.0  0.91581  0.70913  0.52268  1.0000
  H   H115      1.0  0.53556  0.11014  0.3612999999999999  1.0000
  H   H116      1.0  0.86683  0.8768  0.00378  1.0000
  H   H117      1.0  0.68063  0.36322  0.0622  1.0000
  H   H118      1.0  0.82213  0.50336  0.43174  1.0000
  H   H119      1.0  0.61063  0.50727  0.01784  1.0000
  H   H120      1.0  0.25446  0.95753  0.042959999999999984  1.0000
  H   H121      1.0  0.9877099999999999  0.72153  0.59018  1.0000
  H   H122      1.0  0.9642200000000001  0.8547100000000002  0.8619799999999997  1.0000
  H   H123      1.0  0.7885400000000004  0.42464000000000013  0.40132  1.0000
  H   H124      1.0  0.6496399999999999  0.6880600000000001  0.6983199999999998  1.0000
  H   H125      1.0  0.04537999999999999  0.87139  0.12983  1.0000
  H   H126      1.0  0.57992  0.47813  0.2848699999999999  1.0000
  H   H127      1.0  0.84019  0.30183  0.31262  1.0000
  H   H128      1.0  0.44314999999999993  0.67124  0.32988  1.0000
  H   H129      1.0  0.5983300000000001  0.7258  0.85599  1.0000
  H   H130      1.0  0.60643  0.55363  0.32381  1.0000
  H   H131      1.0  0.92961  0.09661  0.32136  1.0000
  H   H132      1.0  0.55456  0.17642  0.34447  1.0000
  H   H133      1.0  0.8398  0.37416  0.35502  1.0000
  H   H134      1.0  0.9298200000000001  0.02346  0.35929  1.0000
  H   H135      1.0  0.50989  0.33922  0.22875  1.0000
  H   H136      1.0  0.49139  0.67285  0.12353  1.0000
  H   H137      1.0  0.63238  0.07409  0.15554  1.0000
  H   H138      1.0  0.025230000000000034  0.6686200000000002  0.32675  1.0000
  H   H139      1.0  0.013580000000000014  0.8748700000000003  0.32701999999999987  1.0000
  H   H140      1.0  0.8978399999999999  0.17783000000000002  0.09044  1.0000
  H   H141      1.0  0.8534500000000002  0.42892  0.18424  1.0000
  H   H142      1.0  0.63436  0.8164200000000001  0.56939  1.0000
  H   H143      1.0  0.8645299999999999  0.9593000000000002  0.57111  1.0000
  H   H144      1.0  0.6484600000000001  0.958  0.8809499999999998  1.0000
  H   H145      1.0  0.88384  0.6707200000000001  0.44679  1.0000
  H   H146      1.0  0.24294  0.9695900000000002  0.4146199999999999  1.0000
  H   H147      1.0  0.96138  0.6997000000000002  0.75685  1.0000
  H   H148      1.0  0.50148  0.41037  0.27375  1.0000
  H   H149      1.0  0.53653  0.20908  0.18839  1.0000
  H   H150      1.0  0.96455  0.81239  0.7896  1.0000
  H   H151      1.0  0.5556099999999999  0.03645  0.3986299999999999  1.0000
  H   H152      1.0  0.5393  0.24585  0.3020799999999999  1.0000
  C   C1        1.0  0.11780999999999998  0.14321  0.16243999999999995  1.0000
  C   C2        1.0  0.4880700000000001  0.3898200000000001  0.9466199999999998  1.0000
  C   C3        1.0  0.18522  0.8355  0.71985  1.0000
  C   C4        1.0  0.19518000000000002  0.7963400000000003  0.74404  1.0000
  C   C5        1.0  0.27687  0.32913  0.36624  1.0000
  C   C6        1.0  0.005169999999999957  0.054740000000000004  0.6112899999999998  1.0000
  C   C7        1.0  0.1854699999999999  0.77363  0.8656799999999998  1.0000
  C   C8        1.0  0.76406  0.05783  0.61072  1.0000
  C   C9        1.0  0.22634999999999997  0.3113300000000001  0.15201  1.0000
  C   C10       1.0  0.30299999999999994  0.72419  0.7626399999999998  1.0000
  C   C11       1.0  0.7781500000000002  0.12909  0.6749099999999999  1.0000
  C   C12       1.0  0.23319  0.33623  0.10952  1.0000
  C   C13       1.0  0.1811  0.10683  0.024709999999999992  1.0000
  C   C14       1.0  0.08851  0.28545  0.38679  1.0000
  C   C15       1.0  0.8924  0.11132  0.6597199999999998  1.0000
  C   C16       1.0  0.26704  0.3832900000000001  0.45192999999999994  1.0000
  C   C17       1.0  0.97105  0.39261  0.94879  1.0000
  C   C18       1.0  0.2760699999999999  0.84693  0.6878099999999998  1.0000
  C   C19       1.0  0.31845  0.55615  0.66038  1.0000
  C   C20       1.0  0.86347  0.08312  0.9153199999999998  1.0000
  C   C21       1.0  0.19145  0.05943999999999999  0.4560299999999999  1.0000
  C   C22       1.0  0.23306  0.09956000000000002  0.10491  1.0000
  C   C23       1.0  0.3185699999999999  0.5015599999999999  0.9556199999999998  1.0000
  C   C24       1.0  0.3023799999999999  0.6772100000000002  0.8788299999999999  1.0000
  C   C25       1.0  0.25702  0.12290000000000002  0.40579  1.0000
  C   C26       1.0  0.18861999999999995  0.95313  0.9510699999999999  1.0000
  C   C27       1.0  0.11742999999999999  0.29418  0.22109999999999994  1.0000
  C   C28       1.0  0.31103  0.25605  0.20414999999999994  1.0000
  C   C29       1.0  0.35373  0.4761  0.66083  1.0000
  C   C30       1.0  0.60781  0.37294  0.9264399999999999  1.0000
  C   C31       1.0  0.20926999999999998  0.26218  0.23298999999999995  1.0000
  C   C32       1.0  0.2352  0.5977700000000001  0.8796799999999998  1.0000
  C   C33       1.0  0.13634  0.36554  0.09507  1.0000
  C   C34       1.0  0.31973000000000007  0.5444100000000002  0.9379199999999998  1.0000
  C   C35       1.0  0.26578  0.89646  0.89955  1.0000
  C   C36       1.0  0.3372  0.35409  0.04037  1.0000
  C   C37       1.0  0.42222999999999994  0.6128  0.7180699999999998  1.0000
  C   C38       1.0  0.51798  0.39087000000000005  0.60603  1.0000
  C   C39       1.0  0.7458  0.06826  0.93186  1.0000
  C   C40       1.0  0.14404  0.4776  0.90688  1.0000
  C   C41       1.0  0.28393  0.7221200000000002  0.80837  1.0000
  C   C42       1.0  0.76611  0.29179  0.7113499999999998  1.0000
  C   C43       1.0  0.8813499999999999  0.37608  0.62662  1.0000
  C   C44       1.0  0.27675  0.3044  0.32557999999999987  1.0000
  C   C45       1.0  0.23719  0.16914  0.3222199999999999  1.0000
  C   C46       1.0  0.18663  0.1247  0.32563  1.0000
  C   C47       1.0  0.14364  0.38723  0.05422999999999999  1.0000
  C   C48       1.0  0.28615  0.40104  0.4959399999999999  1.0000
  C   C49       1.0  0.62838  0.11873  0.88362  1.0000
  C   C50       1.0  0.6453799999999998  0.37444  0.6246999999999998  1.0000
  C   C51       1.0  0.7461  0.13412  0.8668999999999998  1.0000
  C   C52       1.0  0.25955  0.10057  0.4499399999999999  1.0000
  C   C53       1.0  0.38391  0.79762  0.83297  1.0000
  C   C54       1.0  0.09059  0.25969  0.3467199999999999  1.0000
  C   C55       1.0  0.18475  0.31946  0.39829  1.0000
  C   C56       1.0  0.7172  0.32534  0.87347  1.0000
  C   C57       1.0  0.7626299999999999  0.39153  0.6092399999999998  1.0000
  C   C58       1.0  0.83742  0.3421300000000001  0.89245  1.0000
  C   C59       1.0  0.17249  0.12245000000000002  0.06896  1.0000
  C   C60       1.0  0.19136  0.041000000000000016  0.49872999999999995  1.0000
  C   C61       1.0  0.5057  0.06802  0.9360099999999999  1.0000
  C   C62       1.0  0.32732  0.12038000000000003  0.4886899999999999  1.0000
  C   C63       1.0  0.8635399999999999  0.11654000000000003  0.8829799999999998  1.0000
  C   C64       1.0  0.19492999999999988  0.34243999999999997  0.4434299999999999  1.0000
  C   C65       1.0  0.26326  0.6797  0.8324399999999997  1.0000
  C   C66       1.0  0.23521999999999998  0.63348  0.6717299999999998  1.0000
  C   C67       1.0  0.6571399999999998  0.11044000000000001  0.6584999999999998  1.0000
  C   C68       1.0  0.84337  0.37436  0.92804  1.0000
  C   C69       1.0  0.88273  0.34342  0.6598499999999999  1.0000
  C   C70       1.0  0.7286699999999999  0.38997  0.94453  1.0000
  C   C71       1.0  0.32106999999999997  0.1118  0.18627999999999997  1.0000
  C   C72       1.0  0.74684  0.16925000000000004  0.83177  1.0000
  C   C73       1.0  0.28418  0.76458  0.8361899999999998  1.0000
  C   C74       1.0  0.52229  0.05315999999999999  0.6092299999999998  1.0000
  C   C75       1.0  0.32404  0.09975  0.53003  1.0000
  C   C76       1.0  0.22364999999999996  0.11722999999999999  0.15179999999999993  1.0000
  C   C77       1.0  0.33611  0.33144  0.0807  1.0000
  C   C78       1.0  0.7659700000000002  0.3264100000000001  0.67572  1.0000
  C   C79       1.0  0.64989  0.0747  0.62647  1.0000
  C   C80       1.0  0.23386  0.6742500000000002  0.69597  1.0000
  C   C81       1.0  0.37015999999999993  0.51858  0.68173  1.0000
  C   C82       1.0  0.13982999999999998  0.51941  0.8873799999999998  1.0000
  C   C83       1.0  0.9865699999999998  0.06291  0.9331499999999999  1.0000
  C   C84       1.0  0.32139000000000006  0.6837000000000002  0.7335899999999997  1.0000
  C   C85       1.0  0.25163  0.54799  0.61787  1.0000
  C   C86       1.0  0.11616  0.16648  0.20374999999999993  1.0000
  C   C87       1.0  0.71434  0.29097  0.83527  1.0000
  C   C88       1.0  0.37374  0.90716  0.64007  1.0000
  C   C89       1.0  0.15839999999999999  0.34343  0.5235699999999999  1.0000
  C   C90       1.0  0.60212  0.3405100000000001  0.89076  1.0000
  C   C91       1.0  0.3273  0.6012900000000001  0.68301  1.0000
  C   C92       1.0  0.18945999999999996  0.60082  0.8340599999999998  1.0000
  C   C93       1.0  0.29551  0.76655  0.73759  1.0000
  C   C94       1.0  0.64767  0.34193999999999997  0.6580199999999999  1.0000
  C   C95       1.0  0.31401  0.16642  0.4015899999999999  1.0000
  C   C96       1.0  0.30442  0.18895000000000003  0.3611099999999999  1.0000
  C   C97       1.0  0.26899  0.88948  0.66331  1.0000
  C   C98       1.0  0.20218999999999995  0.64072  0.8111199999999997  1.0000
  C   C99       1.0  0.12498999999999998  0.31768  0.18125999999999995  1.0000
  C   C100      1.0  0.30408  0.06199  0.09321  1.0000
  C   C101      1.0  0.38377  0.77707  0.70453  1.0000
  C   C102      1.0  0.15519000000000002  0.9560500000000001  0.64148  1.0000
  C   C103      1.0  0.20343  0.23811  0.2760299999999999  1.0000
  C   C104      1.0  0.13923999999999995  0.3228500000000001  0.4808399999999999  1.0000
  C   C105      1.0  0.22003999999999999  0.19255  0.2789599999999999  1.0000
  C   C106      1.0  0.006219999999999997  0.3943300000000001  0.60937  1.0000
  C   C107      1.0  0.18175999999999995  0.81555  0.8880399999999998  1.0000
  C   C108      1.0  0.8855  0.07554000000000001  0.6275099999999998  1.0000
  C   C109      1.0  0.78354  0.16716  0.7093399999999997  1.0000
  C   C110      1.0  0.18777  0.26781  0.31628  1.0000
  C   C111      1.0  0.32058  0.93222  0.8758599999999997  1.0000
  C   C112      1.0  0.31846  0.1346  0.22816999999999996  1.0000
  C   C113      1.0  0.41889000000000004  0.65312  0.74322  1.0000
  C   C114      1.0  0.32014  0.28011  0.1648  1.0000
  C   C115      1.0  0.23043  0.55408  0.9022  1.0000
  C   C116      1.0  0.15718000000000004  0.9151200000000002  0.66279  1.0000
  C   C117      1.0  0.23488999999999996  0.50426  0.5998599999999997  1.0000
  C   C118      1.0  0.21863  0.16405000000000003  0.23679  1.0000
  C   C119      1.0  0.3648  0.94828  0.6191  1.0000
  C   C120      1.0  0.2765  0.84982  0.8819299999999998  1.0000
  C   C121      1.0  0.62814  0.08584  0.91659  1.0000
  C   C122      1.0  0.28883  0.63728  0.90196  1.0000
  C   C123      1.0  0.31327999999999995  0.04925  0.04774  1.0000
  C   C124      1.0  0.38074  0.83911  0.8554999999999998  1.0000
  C   C125      1.0  0.31137  0.97617  0.8918  1.0000
  C   C126      1.0  0.37476  0.81655  0.68052  1.0000
  C   C127      1.0  0.19553  0.10227  0.36631  1.0000
  C   C128      1.0  0.19908999999999996  0.90796  0.9380699999999997  1.0000
  C   C129      1.0  0.47772999999999993  0.9468400000000002  0.39077  1.0000
  C   C130      1.0  0.11729  0.65658  0.34015  1.0000
  C   C131      1.0  0.8048399999999999  0.20367  0.25596  1.0000
  C   C132      1.0  0.11452  0.92446  0.3724899999999999  1.0000
  C   C133      1.0  0.86019  0.48059  0.11262  1.0000
  C   C134      1.0  0.87503  0.68233  0.81874  1.0000
  C   C135      1.0  0.71119  0.36273  0.09804  1.0000
  C   C136      1.0  0.013450000000000045  0.9371000000000003  0.06685  1.0000
  C   C137      1.0  0.64629  0.5239  0.33917  1.0000
  C   C138      1.0  0.39221  0.62706  0.07355999999999997  1.0000
  C   C139      1.0  0.8448299999999999  0.043960000000000006  0.35851999999999995  1.0000
  C   C140      1.0  0.74047  0.89943  0.55006  1.0000
  C   C141      1.0  0.6759799999999999  0.90025  0.4699699999999999  1.0000
  C   C142      1.0  0.11867  0.6239200000000001  0.37337999999999993  1.0000
  C   C143      1.0  0.37164  0.8812800000000002  0.11638  1.0000
  C   C144      1.0  0.7138700000000001  0.59896  0.50405  1.0000
  C   C145      1.0  0.58113  0.3468900000000001  0.25678  1.0000
  C   C146      1.0  0.84284  0.08488000000000001  0.33721  1.0000
  C   C147      1.0  0.37188  0.91416  0.08341  1.0000
  C   C148      1.0  0.1626  0.65787  0.10754999999999998  1.0000
  C   C149      1.0  0.79659  0.76189  0.7239699999999998  1.0000
  C   C150      1.0  0.71609  0.27788000000000007  0.19162999999999994  1.0000
  C   C151      1.0  0.9094199999999999  0.7403100000000002  0.65328  1.0000
  C   C152      1.0  0.8009299999999999  0.09204  0.06193  1.0000
  C   C153      1.0  0.67272  0.39872  0.31699  1.0000
  C   C154      1.0  0.23390999999999998  0.70821  0.2886499999999999  1.0000
  C   C155      1.0  0.27135000000000004  0.6100400000000002  0.05547  1.0000
  C   C156      1.0  0.76696  0.9004400000000001  0.8950899999999999  1.0000
  C   C157      1.0  0.76616  0.32575  0.30403  1.0000
  C   C158      1.0  0.8838599999999999  0.83353  0.7962499999999998  1.0000
  C   C159      1.0  0.23595999999999998  0.9421800000000002  0.3892799999999999  1.0000
  C   C160      1.0  0.8085699999999999  0.9405699999999999  0.54397  1.0000
  C   C161      1.0  0.28568  0.70903  0.16472999999999993  1.0000
  C   C162      1.0  0.68145  0.4984400000000001  0.04438  1.0000
  C   C163      1.0  0.35013000000000005  0.9253  0.37353  1.0000
  C   C164      1.0  0.28282  0.67466  0.12653  1.0000
  C   C165      1.0  0.88221  0.85679  0.8375599999999997  1.0000
  C   C166      1.0  0.73424  0.10355  0.10044999999999997  1.0000
  C   C167      1.0  0.62628  0.09284  0.35993  1.0000
  C   C168      1.0  0.72327  0.6956  0.67442  1.0000
  C   C169      1.0  0.9938  0.6056700000000003  0.39062  1.0000
  C   C170      1.0  0.80449  0.89774  0.63369  1.0000
  C   C171      1.0  0.76959  0.44592000000000004  0.09779999999999997  1.0000
  C   C172      1.0  0.6727  0.87962  0.51131  1.0000
  C   C173      1.0  0.7907499999999998  0.7378300000000002  0.767  1.0000
  C   C174      1.0  0.6628199999999999  0.6459100000000001  0.9596299999999998  1.0000
  C   C175      1.0  0.8152699999999999  0.68054  0.6017099999999997  1.0000
  C   C176      1.0  0.68157  0.44386  0.33961999999999987  1.0000
  C   C177      1.0  0.69764  0.32279  0.12117  1.0000
  C   C178      1.0  0.5777899999999999  0.3872100000000001  0.2819299999999999  1.0000
  C   C179      1.0  0.76482  0.40223  0.12031999999999997  1.0000
  C   C180      1.0  0.68029  0.45559  0.06207999999999999  1.0000
  C   C181      1.0  0.68864  0.02383  0.10819999999999998  1.0000
  C   C182      1.0  0.81339  0.87531  0.6743699999999998  1.0000
  C   C183      1.0  0.23406000000000002  0.67359  0.32427  1.0000
  C   C184      1.0  0.67895  0.8882  0.8137199999999998  1.0000
  C   C185      1.0  0.61625  0.22293  0.29547  1.0000
  C   C186      1.0  0.7429999999999998  0.8771  0.59421  1.0000
  C   C187      1.0  0.6956  0.81105  0.63888  1.0000
  C   C188      1.0  0.66391  0.66856  0.9193  1.0000
  C   C189      1.0  0.77637  0.88277  0.8481999999999997  1.0000
  C   C190      1.0  0.70451  0.23345  0.26241  1.0000
  C   C191      1.0  0.7231499999999998  0.6708700000000002  0.63376  1.0000
  C   C192      1.0  0.8275299999999999  0.87756  0.93104  1.0000
  C   C193      1.0  0.76513  0.49574  0.40013999999999994  1.0000
  C   C194      1.0  0.51195  0.6101800000000002  0.05337999999999998  1.0000
  C   C195      1.0  0.81826  0.18446000000000007  0.11194999999999997  1.0000
  C   C196      1.0  0.67988  0.7199  0.8352  1.0000
  C   C197      1.0  0.8636799999999999  0.63446  0.9049299999999998  1.0000
  C   C198      1.0  0.76283  0.83086  0.6777799999999998  1.0000
  C   C199      1.0  0.73103  0.11052000000000002  0.33669  1.0000
  C   C200      1.0  0.67944  0.06778  0.12414  1.0000
  C   C201      1.0  0.13648000000000005  0.8834600000000002  0.11702  1.0000
  C   C202      1.0  0.68156  0.8654  0.7718299999999998  1.0000
  C   C203      1.0  0.61928  0.16089  0.1445  1.0000
  C   C204      1.0  0.21648000000000003  0.83284  0.29064999999999996  1.0000
  C   C205      1.0  0.61611  0.20238000000000006  0.16703  1.0000
  C   C206      1.0  0.25317  0.83075  0.16822999999999994  1.0000
  C   C207      1.0  0.71584  0.23542000000000005  0.16380999999999996  1.0000
  C   C208      1.0  0.8122499999999999  0.7322000000000002  0.6837199999999998  1.0000
  C   C209      1.0  0.49432  0.93199  0.06399  1.0000
  C   C210      1.0  0.7668299999999999  0.66378  0.8904799999999998  1.0000
  C   C211      1.0  0.91151  0.71456  0.61321  1.0000
  C   C212      1.0  0.25392  0.86588  0.1331  1.0000
  C   C213      1.0  0.8416199999999999  0.65657  0.47643  1.0000
  C   C214      1.0  0.10762000000000001  0.8886800000000002  0.34028  1.0000
  C   C215      1.0  0.35464000000000007  0.62556  0.3753  1.0000
  C   C216      1.0  0.8105600000000001  0.3991900000000001  0.16593999999999995  1.0000
  C   C217      1.0  0.7483899999999998  0.45201  0.3821299999999999  1.0000
  C   C218      1.0  0.6867400000000001  0.95075  0.95226  1.0000
  C   C219      1.0  0.81892  0.89317  0.9752899999999999  1.0000
  C   C220      1.0  0.6786299999999998  0.31629999999999997  0.26641  1.0000
  C   C221      1.0  0.73676  0.32031  0.16755999999999996  1.0000
  C   C222      1.0  0.7736699999999999  0.68868  0.8479899999999998  1.0000
  C   C223      1.0  0.8148000000000001  0.1645  0.28014  1.0000
  C   C224      1.0  0.6889899999999999  0.74395  0.7958499999999997  1.0000
  C   C225      1.0  0.7648  0.3665200000000001  0.32827  1.0000
  C   C226      1.0  0.3523499999999999  0.65806  0.3419699999999999  1.0000
  C   C227      1.0  0.80509  0.65756  0.55656  1.0000
  C   C228      1.0  0.7813899999999997  0.8359500000000002  0.76321  1.0000
  C   C229      1.0  0.73298  0.61671  0.54807  1.0000
  C   C230      1.0  0.02897  0.60739  0.05121  1.0000
  C   C231      1.0  0.25422  0.9317400000000002  0.06813999999999998  1.0000
  C   C232      1.0  0.6970200000000001  0.27581  0.23735  1.0000
  C   C233      1.0  0.3428800000000001  0.88956  0.3415  1.0000
  C   C234      1.0  0.88259  0.7058300000000002  0.7788999999999999  1.0000
  C   C235      1.0  0.81455  0.22637  0.13431  1.0000
  C   C236      1.0  0.63522  0.05172  0.38089999999999996  1.0000
  C   C237      1.0  0.7978299999999999  0.35929  0.18887999999999994  1.0000
  C   C238      1.0  0.62986  0.48143  0.31827  1.0000
  C   C239      1.0  0.85598  0.52241  0.09311999999999997  1.0000
  C   C240      1.0  0.6252599999999999  0.18345  0.3194799999999999  1.0000
  C   C241      1.0  0.8114000000000001  0.04687  0.04893  1.0000
  C   C242      1.0  0.86078  0.6771500000000003  0.51916  1.0000
  C   C243      1.0  0.15666  0.62564  0.07195999999999997  1.0000
  C   C244      1.0  0.9948500000000001  0.94526  0.38871  1.0000
  C   C245      1.0  0.7799799999999999  0.80745  0.72103  1.0000
  C   C246      1.0  0.85638  0.61277  0.9457699999999999  1.0000
  C   C247      1.0  0.80866  0.959  0.50127  1.0000
  C   C248      1.0  0.13654000000000002  0.9168800000000003  0.08468  1.0000
  C   C249      1.0  0.69594  0.9380200000000002  0.9067899999999998  1.0000
  C   C250      1.0  0.72352  0.15019  0.11806999999999998  1.0000
  C   C251      1.0  0.72395  0.15307  0.31219  1.0000
  C   C252      1.0  0.23738999999999993  0.60847  0.39075  1.0000
  C   C253      1.0  0.4820400000000001  0.60913  0.3939699999999999  1.0000
  C   C254      1.0  0.68601  0.83358  0.5984099999999998  1.0000
  C   C255      1.0  0.39791  0.6595  0.10924  1.0000
  C   C256      1.0  0.22187  0.8709100000000002  0.32509  1.0000
  N   N1        1.0  0.25077  0.07094  0.014059999999999996  1.0000
  N   N2        1.0  0.2562  0.06073  0.53542  1.0000
  N   N3        1.0  0.24633999999999998  0.98663  0.9287299999999998  1.0000
  N   N4        1.0  0.23330999999999996  0.46829  0.9401399999999998  1.0000
  N   N5        1.0  0.23266  0.38154  0.53136  1.0000
  N   N6        1.0  0.25756  0.9729700000000001  0.62012  1.0000
  N   N7        1.0  0.24233  0.38153000000000004  0.026759999999999992  1.0000
  N   N8        1.0  0.28572000000000003  0.4687600000000001  0.6207799999999999  1.0000
  N   N9        1.0  0.7438199999999999  0.93927  0.4645799999999999  1.0000
  N   N10       1.0  0.74925  0.9290600000000002  0.9859399999999998  1.0000
  N   N11       1.0  0.7142999999999999  0.53125  0.3792199999999999  1.0000
  N   N12       1.0  0.76736  0.61847  0.4686399999999999  1.0000
  N   N13       1.0  0.74246  0.02704000000000001  0.37988  1.0000
  N   N14       1.0  0.7576799999999999  0.61848  0.97324  1.0000
  N   N15       1.0  0.76671  0.53172  0.05986  1.0000
  N   N16       1.0  0.75368  0.013370000000000002  0.07126999999999997  1.0000
  O   O1        1.0  0.07294999999999995  0.37553  0.9319599999999998  1.0000
  O   O2        1.0  0.67475  0.18193  0.7207699999999998  1.0000
  O   O3        1.0  0.37782999999999994  0.3708  0.9317499999999997  1.0000
  O   O4        1.0  0.42034999999999995  0.0685  0.6275299999999998  1.0000
  O   O5        1.0  0.9812499999999998  0.030419999999999992  0.9590599999999998  1.0000
  O   O6        1.0  0.85804  0.18404  0.8203099999999998  1.0000
  O   O7        1.0  0.8765100000000001  0.2794  0.7276  1.0000
  O   O8        1.0  0.63662  0.18182  0.81585  1.0000
  O   O9        1.0  0.99454  0.02285  0.5819599999999998  1.0000
  O   O10       1.0  0.11047999999999995  0.375  0.6249299999999998  1.0000
  O   O11       1.0  0.11571999999999999  0.07034  0.62965  1.0000
  O   O12       1.0  0.60287  0.2771  0.8179  1.0000
  O   O13       1.0  0.6551199999999999  0.27708  0.7229799999999997  1.0000
  O   O14       1.0  0.006559999999999997  0.42539  0.58168  1.0000
  O   O15       1.0  0.39726999999999996  0.08182  0.9175299999999997  1.0000
  O   O16       1.0  0.9743199999999999  0.42259  0.9796499999999998  1.0000
  O   O17       1.0  0.51334  0.4181500000000001  0.57455  1.0000
  O   O18       1.0  0.89557  0.18212  0.72512  1.0000
  O   O19       1.0  0.49848000000000003  0.4204  0.9773099999999999  1.0000
  O   O20       1.0  0.5124  0.0409  0.96767  1.0000
  O   O21       1.0  0.82348  0.2776000000000001  0.82262  1.0000
  O   O22       1.0  0.41582  0.37508  0.62538  1.0000
  O   O23       1.0  0.09364999999999996  0.08203  0.9203899999999998  1.0000
  O   O24       1.0  0.51933  0.02238  0.57925  1.0000
  O   O25       1.0  0.92707  0.62447  0.06803999999999998  1.0000
  O   O26       1.0  0.10445000000000002  0.81788  0.27487999999999996  1.0000
  O   O27       1.0  0.5842000000000002  0.6249200000000003  0.3746199999999999  1.0000
  O   O28       1.0  0.62219  0.6292  0.06825  1.0000
  O   O29       1.0  0.17653999999999997  0.72241  0.17737999999999995  1.0000
  O   O30       1.0  0.90637  0.91797  0.07960999999999997  1.0000
  O   O31       1.0  0.8842999999999999  0.92966  0.3703499999999999  1.0000
  O   O32       1.0  0.3449  0.72292  0.27701999999999993  1.0000
  O   O33       1.0  0.5796699999999998  0.93151  0.3724699999999999  1.0000
  O   O34       1.0  0.48069  0.9776300000000002  0.42075  1.0000
  O   O35       1.0  0.36339  0.8181800000000001  0.18414999999999995  1.0000
  O   O36       1.0  0.12350999999999998  0.72061  0.2724  1.0000
  O   O37       1.0  0.018770000000000002  0.96958  0.04093999999999998  1.0000
  O   O38       1.0  0.60274  0.91818  0.08247  1.0000
  O   O39       1.0  0.14197  0.81597  0.17968999999999993  1.0000
  O   O40       1.0  0.48762  0.9591000000000002  0.03233  1.0000
  O   O41       1.0  0.48668  0.58185  0.42545  1.0000
  O   O42       1.0  0.32527  0.81807  0.27923  1.0000
  O   O43       1.0  0.39715  0.7229  0.1821  1.0000
  O   O44       1.0  0.9934699999999997  0.5746199999999999  0.41832  1.0000
  O   O45       1.0  0.50153  0.5796  0.02268999999999999  1.0000
  O   O46       1.0  0.005479999999999986  0.97716  0.41803999999999997  1.0000
  O   O47       1.0  0.025700000000000008  0.57742  0.02035  1.0000
  O   O48       1.0  0.8895399999999999  0.62501  0.37506  1.0000
