data_image0
_chemical_formula_structural       Sr8H192C336Cl4O32
_chemical_formula_sum              "Sr8 H192 C336 Cl4 O32"
_cell_length_a       12.98667
_cell_length_b       16.236640000000005
_cell_length_c       40.90307
_cell_angle_alpha    89.99918
_cell_angle_beta     99.23059
_cell_angle_gamma    90.00223999999999

_space_group_name_H-M_alt    "P 1"
_space_group_IT_number       1

loop_
  _space_group_symop_operation_xyz
  'x, y, z'

loop_
  _atom_site_type_symbol
  _atom_site_label
  _atom_site_symmetry_multiplicity
  _atom_site_fract_x
  _atom_site_fract_y
  _atom_site_fract_z
  _atom_site_occupancy
  Sr  Sr1       1.0  0.86718  0.57207  0.23606000000000002  1.0000
  Sr  Sr2       1.0  0.15687999999999996  0.63894  0.25606  1.0000
  Sr  Sr3       1.0  0.63278  0.07218  0.76401  1.0000
  Sr  Sr4       1.0  0.34315  0.13851  0.74398  1.0000
  Sr  Sr5       1.0  0.13283000000000003  0.42792  0.76394  1.0000
  Sr  Sr6       1.0  0.84311  0.3611  0.74394  1.0000
  Sr  Sr7       1.0  0.36721  0.92782  0.23598999999999998  1.0000
  Sr  Sr8       1.0  0.65685  0.86148  0.25602  1.0000
  H   H1        1.0  0.84056  0.68424  0.3063  1.0000
  H   H2        1.0  0.74604  0.7414  0.34916  1.0000
  H   H3        1.0  0.030720000000000004  0.73814  0.41963  1.0000
  H   H4        1.0  0.12560000000000002  0.6801  0.37635  1.0000
  H   H5        1.0  0.76578  0.61814  0.39421  1.0000
  H   H6        1.0  0.65805  0.52298  0.42133999999999994  1.0000
  H   H7        1.0  0.59041  0.56604  0.47254  1.0000
  H   H8        1.0  0.63571  0.70264  0.4973  1.0000
  H   H9        1.0  0.79861  0.97681  0.49150999999999995  1.0000
  H   H10       1.0  0.89543  0.07617  0.46202999999999994  1.0000
  H   H11       1.0  0.95848  0.03497  0.41004  1.0000
  H   H12       1.0  0.9286399999999998  0.89351  0.38813  1.0000
  H   H13       1.0  0.56114  0.86894  0.45903  1.0000
  H   H14       1.0  0.38293000000000005  0.90816  0.46730000000000005  1.0000
  H   H15       1.0  0.34362  0.92975  0.52438  1.0000
  H   H16       1.0  0.48167  0.91425  0.57282  1.0000
  H   H17       1.0  0.85572  0.85671  0.61907  1.0000
  H   H18       1.0  0.028919999999999946  0.80892  0.61053  1.0000
  H   H19       1.0  0.06268999999999997  0.77475  0.55369  1.0000
  H   H20       1.0  0.9227899999999998  0.78977  0.50561  1.0000
  H   H21       1.0  0.70381  0.75596  0.61904  1.0000
  H   H22       1.0  0.68373  0.77121  0.67856  1.0000
  H   H23       1.0  0.61069  0.02725  0.66223  1.0000
  H   H24       1.0  0.61802  0.0106  0.60211  1.0000
  H   H25       1.0  0.8794299999999999  0.67367  0.11934  1.0000
  H   H26       1.0  0.9725499999999999  0.72368  0.07419  1.0000
  H   H27       1.0  0.23092  0.80162  0.14741  1.0000
  H   H28       1.0  0.13614999999999994  0.75626  0.19168  1.0000
  H   H29       1.0  0.22596  0.63942  0.10515  1.0000
  H   H30       1.0  0.34064999999999995  0.54043  0.0823  1.0000
  H   H31       1.0  0.41328999999999994  0.57545  0.03122  1.0000
  H   H32       1.0  0.36712  0.70673  0.002  1.0000
  H   H33       1.0  0.06636  0.9145  0.10396  1.0000
  H   H34       1.0  0.03782999999999999  0.0534  0.07909  1.0000
  H   H35       1.0  0.09923  0.08549  0.02594  1.0000
  H   H36       1.0  0.19469  0.98099  0.99854  1.0000
  H   H37       1.0  0.43433  0.8738  0.03847  1.0000
  H   H38       1.0  0.61677  0.90935  0.03374  1.0000
  H   H39       1.0  0.66745  0.93044  0.97806  1.0000
  H   H40       1.0  0.53618  0.91941  0.92763  1.0000
  H   H41       1.0  0.08372000000000003  0.78322  0.9846600000000001  1.0000
  H   H42       1.0  0.9539599999999999  0.76426  0.9340599999999999  1.0000
  H   H43       1.0  0.9971  0.80422  0.87887  1.0000
  H   H44       1.0  0.17025999999999994  0.8607  0.87442  1.0000
  H   H45       1.0  0.39082  0.0299  0.90501  1.0000
  H   H46       1.0  0.42433  0.07173  0.84965  1.0000
  H   H47       1.0  0.37525  0.82228  0.81499  1.0000
  H   H48       1.0  0.33351  0.78137  0.86989  1.0000
  H   H49       1.0  0.6594599999999999  0.1842  0.69369  1.0000
  H   H50       1.0  0.7539999999999999  0.24139  0.65084  1.0000
  H   H51       1.0  0.46929  0.23815  0.58036  1.0000
  H   H52       1.0  0.37442  0.18013  0.62365  1.0000
  H   H53       1.0  0.73424  0.11813  0.60578  1.0000
  H   H54       1.0  0.84195  0.02298  0.57865  1.0000
  H   H55       1.0  0.90958  0.06604  0.52745  1.0000
  H   H56       1.0  0.86429  0.20264  0.50269  1.0000
  H   H57       1.0  0.70138  0.47682  0.50848  1.0000
  H   H58       1.0  0.60457  0.57618  0.53795  1.0000
  H   H59       1.0  0.54153  0.53498  0.58994  1.0000
  H   H60       1.0  0.57137  0.39352  0.61186  1.0000
  H   H61       1.0  0.93886  0.36893  0.54095  1.0000
  H   H62       1.0  0.11706  0.40816  0.53268  1.0000
  H   H63       1.0  0.15635000000000007  0.42977  0.47559000000000007  1.0000
  H   H64       1.0  0.01830000000000001  0.41425  0.42715000000000003  1.0000
  H   H65       1.0  0.64425  0.35672  0.38092  1.0000
  H   H66       1.0  0.47105  0.30893  0.38946  1.0000
  H   H67       1.0  0.43728  0.27474  0.4463  1.0000
  H   H68       1.0  0.5771899999999999  0.28975  0.49438  1.0000
  H   H69       1.0  0.79583  0.25596  0.38088  1.0000
  H   H70       1.0  0.81662  0.27102  0.32145  1.0000
  H   H71       1.0  0.88957  0.52712  0.33774  1.0000
  H   H72       1.0  0.88172  0.51061  0.39781000000000005  1.0000
  H   H73       1.0  0.62053  0.17368  0.8806499999999999  1.0000
  H   H74       1.0  0.52743  0.22367  0.92581  1.0000
  H   H75       1.0  0.26903  0.30161  0.85259  1.0000
  H   H76       1.0  0.36375  0.25624  0.80831  1.0000
  H   H77       1.0  0.2740499999999999  0.13947  0.89486  1.0000
  H   H78       1.0  0.15933999999999995  0.04045  0.9177  1.0000
  H   H79       1.0  0.08667999999999998  0.07545  0.96878  1.0000
  H   H80       1.0  0.13286  0.20673  0.998  1.0000
  H   H81       1.0  0.43362000000000006  0.41447  0.8960500000000001  1.0000
  H   H82       1.0  0.46214  0.55339  0.9209  1.0000
  H   H83       1.0  0.40076  0.5855  0.97405  1.0000
  H   H84       1.0  0.30531  0.481  0.00146  1.0000
  H   H85       1.0  0.06560999999999988  0.3738  0.96149  1.0000
  H   H86       1.0  0.88316  0.40934  0.96627  1.0000
  H   H87       1.0  0.83253  0.43046  0.02195  1.0000
  H   H88       1.0  0.96385  0.41938  0.07235  1.0000
  H   H89       1.0  0.4163799999999999  0.28321  0.015339999999999998  1.0000
  H   H90       1.0  0.54607  0.26426  0.06595  1.0000
  H   H91       1.0  0.50291  0.30425  0.12114  1.0000
  H   H92       1.0  0.3297  0.36072  0.12556  1.0000
  H   H93       1.0  0.10914  0.52954  0.09481  1.0000
  H   H94       1.0  0.0752  0.57179  0.15005  1.0000
  H   H95       1.0  0.12398  0.32223  0.18483  1.0000
  H   H96       1.0  0.16634  0.28151  0.13001  1.0000
  H   H97       1.0  0.15943000000000004  0.31575  0.69369  1.0000
  H   H98       1.0  0.25395  0.2586  0.65084  1.0000
  H   H99       1.0  0.96927  0.26186  0.58037  1.0000
  H   H100      1.0  0.87439  0.31989  0.62365  1.0000
  H   H101      1.0  0.23421  0.38186  0.60579  1.0000
  H   H102      1.0  0.34193999999999997  0.47701  0.57866  1.0000
  H   H103      1.0  0.40958  0.43396  0.52746  1.0000
  H   H104      1.0  0.36427999999999994  0.29735  0.5027  1.0000
  H   H105      1.0  0.20138  0.02319  0.50849  1.0000
  H   H106      1.0  0.10456  0.92382  0.53797  1.0000
  H   H107      1.0  0.04150999999999998  0.96503  0.58996  1.0000
  H   H108      1.0  0.07134999999999998  0.10649  0.61187  1.0000
  H   H109      1.0  0.43885  0.13105  0.54096  1.0000
  H   H110      1.0  0.6170599999999999  0.09184  0.5327  1.0000
  H   H111      1.0  0.65637  0.07025  0.47561  1.0000
  H   H112      1.0  0.51832  0.08575  0.42717  1.0000
  H   H113      1.0  0.14427  0.14329  0.38093  1.0000
  H   H114      1.0  0.97107  0.19108  0.38947  1.0000
  H   H115      1.0  0.9373  0.22524  0.4463  1.0000
  H   H116      1.0  0.07719999999999996  0.21023  0.49438999999999994  1.0000
  H   H117      1.0  0.29618  0.24403  0.38095  1.0000
  H   H118      1.0  0.31626  0.22878  0.32144  1.0000
  H   H119      1.0  0.3892899999999999  0.97275  0.33776  1.0000
  H   H120      1.0  0.38197  0.9893999999999998  0.39789  1.0000
  H   H121      1.0  0.12056000000000006  0.32632  0.88066  1.0000
  H   H122      1.0  0.027440000000000027  0.27631  0.92581  1.0000
  H   H123      1.0  0.76907  0.19838  0.85258  1.0000
  H   H124      1.0  0.86384  0.24374  0.80831  1.0000
  H   H125      1.0  0.77403  0.36057  0.89485  1.0000
  H   H126      1.0  0.65934  0.45957  0.9177  1.0000
  H   H127      1.0  0.5867  0.42455  0.96878  1.0000
  H   H128      1.0  0.63287  0.29327  0.998  1.0000
  H   H129      1.0  0.93363  0.0855  0.89604  1.0000
  H   H130      1.0  0.96216  0.9465999999999999  0.9209  1.0000
  H   H131      1.0  0.9007599999999999  0.91451  0.97406  1.0000
  H   H132      1.0  0.8053  0.019  0.00145  1.0000
  H   H133      1.0  0.56566  0.12619  0.96153  1.0000
  H   H134      1.0  0.38322  0.09065  0.96626  1.0000
  H   H135      1.0  0.33254  0.06956  0.02194  1.0000
  H   H136      1.0  0.46380999999999994  0.08059  0.07236  1.0000
  H   H137      1.0  0.91627  0.21678  0.015339999999999998  1.0000
  H   H138      1.0  0.046029999999999995  0.23574  0.06593  1.0000
  H   H139      1.0  0.0028899999999999998  0.19578  0.12113  1.0000
  H   H140      1.0  0.82973  0.13929  0.12558  1.0000
  H   H141      1.0  0.60917  0.97009  0.09499  1.0000
  H   H142      1.0  0.57567  0.92827  0.15035  1.0000
  H   H143      1.0  0.62474  0.17772  0.185  1.0000
  H   H144      1.0  0.6664799999999999  0.21863  0.1301  1.0000
  H   H145      1.0  0.34053  0.8158  0.30631  1.0000
  H   H146      1.0  0.24598999999999996  0.75861  0.34916  1.0000
  H   H147      1.0  0.5307  0.76184  0.41963999999999996  1.0000
  H   H148      1.0  0.62558  0.81987  0.37635  1.0000
  H   H149      1.0  0.26576  0.88186  0.39422  1.0000
  H   H150      1.0  0.15804000000000004  0.97702  0.42135000000000006  1.0000
  H   H151      1.0  0.09041000000000005  0.93396  0.47255  1.0000
  H   H152      1.0  0.13570999999999997  0.79736  0.4973099999999999  1.0000
  H   H153      1.0  0.29861  0.52318  0.49152000000000007  1.0000
  H   H154      1.0  0.39542  0.42382  0.46204000000000006  1.0000
  H   H155      1.0  0.45847  0.46502  0.41005  1.0000
  H   H156      1.0  0.42862  0.60647  0.38814  1.0000
  H   H157      1.0  0.061130000000000025  0.63107  0.45905  1.0000
  H   H158      1.0  0.88293  0.59184  0.46732  1.0000
  H   H159      1.0  0.84364  0.57023  0.52441  1.0000
  H   H160      1.0  0.98169  0.58574  0.57285  1.0000
  H   H161      1.0  0.35573999999999995  0.64328  0.61908  1.0000
  H   H162      1.0  0.52894  0.69107  0.61054  1.0000
  H   H163      1.0  0.56271  0.72525  0.5537  1.0000
  H   H164      1.0  0.4228  0.71024  0.50562  1.0000
  H   H165      1.0  0.20415999999999995  0.74404  0.61911  1.0000
  H   H166      1.0  0.18337  0.72898  0.67855  1.0000
  H   H167      1.0  0.11041999999999999  0.47287  0.66226  1.0000
  H   H168      1.0  0.11826999999999999  0.48939  0.60219  1.0000
  H   H169      1.0  0.37945999999999996  0.82632  0.11935  1.0000
  H   H170      1.0  0.47256  0.77632  0.07419  1.0000
  H   H171      1.0  0.73096  0.69838  0.14741  1.0000
  H   H172      1.0  0.63624  0.74375  0.19168  1.0000
  H   H173      1.0  0.72594  0.86052  0.10514  1.0000
  H   H174      1.0  0.84065  0.95955  0.0823  1.0000
  H   H175      1.0  0.9133099999999998  0.9245399999999999  0.03122  1.0000
  H   H176      1.0  0.86713  0.79327  0.00199  1.0000
  H   H177      1.0  0.56637  0.58552  0.10395  1.0000
  H   H178      1.0  0.53785  0.44661  0.0791  1.0000
  H   H179      1.0  0.59923  0.4145  0.02595  1.0000
  H   H180      1.0  0.69468  0.51899  0.99854  1.0000
  H   H181      1.0  0.9343799999999999  0.62619  0.0385  1.0000
  H   H182      1.0  0.11683  0.59066  0.03373  1.0000
  H   H183      1.0  0.16746  0.56954  0.97804  1.0000
  H   H184      1.0  0.03615000000000005  0.58061  0.92764  1.0000
  H   H185      1.0  0.5836200000000001  0.71679  0.9846600000000001  1.0000
  H   H186      1.0  0.45392  0.73573  0.93404  1.0000
  H   H187      1.0  0.4970799999999999  0.69575  0.8788599999999999  1.0000
  H   H188      1.0  0.6702799999999999  0.63928  0.8744299999999999  1.0000
  H   H189      1.0  0.89086  0.47045  0.90518  1.0000
  H   H190      1.0  0.9248099999999998  0.42823  0.84994  1.0000
  H   H191      1.0  0.8760000000000001  0.67778  0.8151600000000001  1.0000
  H   H192      1.0  0.8336399999999999  0.7185  0.86999  1.0000
  C   C1        1.0  0.98902  0.67771  0.33866  1.0000
  C   C2        1.0  0.88197  0.69473  0.33127  1.0000
  C   C3        1.0  0.8285099999999999  0.7263  0.3555  1.0000
  C   C4        1.0  0.88149  0.74124  0.38762  1.0000
  C   C5        1.0  0.98925  0.72502  0.39489  1.0000
  C   C6        1.0  0.042489999999999965  0.69323  0.37071  1.0000
  C   C7        1.0  0.82722  0.77145  0.41467  1.0000
  C   C8        1.0  0.8448399999999999  0.85253  0.42696  1.0000
  C   C9        1.0  0.80587  0.87722  0.45666  1.0000
  C   C10       1.0  0.74981  0.8206  0.47326  1.0000
  C   C11       1.0  0.72476  0.74189  0.45951000000000003  1.0000
  C   C12       1.0  0.7630599999999998  0.71728  0.42962999999999996  1.0000
  C   C13       1.0  0.7374299999999999  0.63673  0.41669  1.0000
  C   C14       1.0  0.67709  0.58375  0.4318000000000001  1.0000
  C   C15       1.0  0.63966  0.60791  0.46115  1.0000
  C   C16       1.0  0.66403  0.68425  0.47477  1.0000
  C   C17       1.0  0.82682  0.95887  0.4689  1.0000
  C   C18       1.0  0.8803599999999999  0.01408  0.45243  1.0000
  C   C19       1.0  0.9166  0.99049  0.42284  1.0000
  C   C20       1.0  0.9001799999999999  0.91179  0.41065  1.0000
  C   C21       1.0  0.72567  0.84149  0.50666  1.0000
  C   C22       1.0  0.80594  0.83166  0.53428  1.0000
  C   C23       1.0  0.7851299999999999  0.84856  0.56727  1.0000
  C   C24       1.0  0.6834399999999998  0.87289  0.57216  1.0000
  C   C25       1.0  0.60401  0.88456  0.54439  1.0000
  C   C26       1.0  0.62583  0.86899  0.5113  1.0000
  C   C27       1.0  0.5437899999999999  0.87927  0.48386999999999997  1.0000
  C   C28       1.0  0.4446199999999999  0.90116  0.48848  1.0000
  C   C29       1.0  0.42253  0.91405  0.52086  1.0000
  C   C30       1.0  0.4999499999999999  0.90587  0.54803  1.0000
  C   C31       1.0  0.8692799999999999  0.84126  0.59428  1.0000
  C   C32       1.0  0.9667199999999999  0.8153  0.58944  1.0000
  C   C33       1.0  0.98593  0.79627  0.55719  1.0000
  C   C34       1.0  0.90776  0.8045  0.53033  1.0000
  C   C35       1.0  0.66301  0.88231  0.60651  1.0000
  C   C36       1.0  0.6806999999999999  0.8148  0.6284  1.0000
  C   C37       1.0  0.67126  0.82328  0.66163  1.0000
  C   C38       1.0  0.64871  0.9006  0.67412  1.0000
  C   C39       1.0  0.6282  0.96758  0.65236  1.0000
  C   C40       1.0  0.6329999999999999  0.95815  0.61877  1.0000
  C   C41       1.0  0.649  0.91103  0.71067  1.0000
  C   C42       1.0  0.002530000000000009  0.70994  0.1584  1.0000
  C   C43       1.0  0.95595  0.70224  0.12513  1.0000
  C   C44       1.0  0.00877999999999999  0.72891  0.09998999999999998  1.0000
  C   C45       1.0  0.10919999999999999  0.76324  0.10760000000000002  1.0000
  C   C46       1.0  0.15421  0.77342  0.14083  1.0000
  C   C47       1.0  0.10078999999999999  0.74723  0.16596  1.0000
  C   C48       1.0  0.16465  0.78793  0.07997  1.0000
  C   C49       1.0  0.14904  0.8673  0.06596  1.0000
  C   C50       1.0  0.18864  0.88689  0.03578  1.0000
  C   C51       1.0  0.24652999999999997  0.8276  0.02103  1.0000
  C   C52       1.0  0.27088  0.75114  0.03694  1.0000
  C   C53       1.0  0.22945999999999997  0.7311  0.0668  1.0000
  C   C54       1.0  0.25601  0.65355  0.08246  1.0000
  C   C55       1.0  0.32016999999999995  0.59877  0.06982  1.0000
  C   C56       1.0  0.3605499999999999  0.61835  0.04047  1.0000
  C   C57       1.0  0.33562  0.69174  0.02436  1.0000
  C   C58       1.0  0.09462999999999999  0.92947  0.08105  1.0000
  C   C59       1.0  0.07881  0.0065  0.06721  1.0000
  C   C60       1.0  0.11426  0.02482  0.03695  1.0000
  C   C61       1.0  0.16724  0.9667  0.02165  1.0000
  C   C62       1.0  0.27790000000000004  0.84496  0.98817  1.0000
  C   C63       1.0  0.2041999999999999  0.83217  0.95904  1.0000
  C   C64       1.0  0.23078  0.85187  0.9269100000000001  1.0000
  C   C65       1.0  0.33242  0.88073  0.92427  1.0000
  C   C66       1.0  0.40759  0.88948  0.95338  1.0000
  C   C67       1.0  0.3793500000000001  0.873  0.9855900000000001  1.0000
  C   C68       1.0  0.4568399999999999  0.88328  0.014270000000000001  1.0000
  C   C69       1.0  0.5583  0.90346  0.01164  1.0000
  C   C70       1.0  0.58691  0.91616  0.9801  1.0000
  C   C71       1.0  0.51335  0.91008  0.95179  1.0000
  C   C72       1.0  0.1027999999999999  0.80014  0.9606199999999999  1.0000
  C   C73       1.0  0.03044000000000002  0.78953  0.9323400000000001  1.0000
  C   C74       1.0  0.054969999999999984  0.81187  0.90103  1.0000
  C   C75       1.0  0.15215  0.8429  0.8984700000000001  1.0000
  C   C76       1.0  0.35908  0.90265  0.89149  1.0000
  C   C77       1.0  0.38689  0.9843  0.88534  1.0000
  C   C78       1.0  0.40628999999999993  0.0078  0.8541999999999998  1.0000
  C   C79       1.0  0.40234  0.94999  0.82852  1.0000
  C   C80       1.0  0.37763  0.86787  0.83461  1.0000
  C   C81       1.0  0.35471999999999987  0.84491  0.8655899999999999  1.0000
  C   C82       1.0  0.4251  0.98015  0.79548  1.0000
  C   C83       1.0  0.04721  0.6466  0.31239  1.0000
  C   C84       1.0  0.95119  0.67282  0.18521  1.0000
  C   C85       1.0  0.511  0.17773  0.66133  1.0000
  C   C86       1.0  0.6180599999999999  0.19473  0.66873  1.0000
  C   C87       1.0  0.6715199999999999  0.22631  0.64449  1.0000
  C   C88       1.0  0.61853  0.24125  0.61237  1.0000
  C   C89       1.0  0.51076  0.22505  0.60511  1.0000
  C   C90       1.0  0.45753  0.19326  0.62928  1.0000
  C   C91       1.0  0.6727999999999998  0.27145  0.58532  1.0000
  C   C92       1.0  0.65517  0.35254  0.57303  1.0000
  C   C93       1.0  0.69413  0.37723  0.54333  1.0000
  C   C94       1.0  0.7501899999999998  0.3206  0.52672  1.0000
  C   C95       1.0  0.77525  0.24189  0.54048  1.0000
  C   C96       1.0  0.73695  0.21728  0.57036  1.0000
  C   C97       1.0  0.76258  0.13673  0.5833  1.0000
  C   C98       1.0  0.82291  0.08375  0.56819  1.0000
  C   C99       1.0  0.86034  0.10791  0.53884  1.0000
  C   C100      1.0  0.83597  0.18425  0.52522  1.0000
  C   C101      1.0  0.67318  0.45888  0.53108  1.0000
  C   C102      1.0  0.61964  0.51409  0.54755  1.0000
  C   C103      1.0  0.5834  0.49049  0.57715  1.0000
  C   C104      1.0  0.59982  0.4118  0.58934  1.0000
  C   C105      1.0  0.77431  0.34149  0.49332  1.0000
  C   C106      1.0  0.69404  0.33165  0.4657  1.0000
  C   C107      1.0  0.71484  0.34854  0.43271  1.0000
  C   C108      1.0  0.81651  0.37288  0.42781  1.0000
  C   C109      1.0  0.89596  0.38455  0.45558  1.0000
  C   C110      1.0  0.8741499999999999  0.36899  0.48867  1.0000
  C   C111      1.0  0.95619  0.37927  0.51611  1.0000
  C   C112      1.0  0.05537000000000001  0.40116  0.51149  1.0000
  C   C113      1.0  0.07744000000000001  0.41406  0.47912  1.0000
  C   C114      1.0  2.000000000001015e-05  0.40588  0.45195  1.0000
  C   C115      1.0  0.63069  0.34125  0.40571  1.0000
  C   C116      1.0  0.53325  0.31529  0.41054999999999997  1.0000
  C   C117      1.0  0.51405  0.29626  0.4428  1.0000
  C   C118      1.0  0.59221  0.30449  0.46966  1.0000
  C   C119      1.0  0.8369  0.38227  0.39345  1.0000
  C   C120      1.0  0.81923  0.31474  0.37157  1.0000
  C   C121      1.0  0.82924  0.32306  0.33838  1.0000
  C   C122      1.0  0.85231  0.40021  0.32587  1.0000
  C   C123      1.0  0.87226  0.46738  0.34759  1.0000
  C   C124      1.0  0.86697  0.45809  0.38117  1.0000
  C   C125      1.0  0.85248  0.4102  0.28931  1.0000
  C   C126      1.0  0.49738999999999994  0.20992  0.84159  1.0000
  C   C127      1.0  0.544  0.20222  0.87486  1.0000
  C   C128      1.0  0.49121  0.2289  0.90001  1.0000
  C   C129      1.0  0.3907999999999999  0.26325  0.89241  1.0000
  C   C130      1.0  0.34574999999999995  0.27343  0.85917  1.0000
  C   C131      1.0  0.39912999999999993  0.24722  0.8340399999999999  1.0000
  C   C132      1.0  0.33537  0.28793  0.92003  1.0000
  C   C133      1.0  0.35097  0.36729  0.93405  1.0000
  C   C134      1.0  0.31138000000000005  0.38689  0.9642200000000001  1.0000
  C   C135      1.0  0.25348999999999994  0.3276  0.97896  1.0000
  C   C136      1.0  0.2291200000000001  0.25113  0.9630600000000001  1.0000
  C   C137      1.0  0.27054000000000006  0.23111  0.9332  1.0000
  C   C138      1.0  0.24399  0.15356  0.91754  1.0000
  C   C139      1.0  0.17983  0.09878  0.93019  1.0000
  C   C140      1.0  0.1394299999999999  0.11836  0.95953  1.0000
  C   C141      1.0  0.16436000000000006  0.19174  0.9756400000000001  1.0000
  C   C142      1.0  0.40537  0.42946  0.91895  1.0000
  C   C143      1.0  0.42118  0.50649  0.93279  1.0000
  C   C144      1.0  0.38574  0.52482  0.96305  1.0000
  C   C145      1.0  0.33277  0.4667  0.97835  1.0000
  C   C146      1.0  0.22212  0.34495  0.01182  1.0000
  C   C147      1.0  0.29584  0.33215  0.04093  1.0000
  C   C148      1.0  0.26926  0.35184  0.07306  1.0000
  C   C149      1.0  0.16761  0.38067  0.07568  1.0000
  C   C150      1.0  0.09241999999999999  0.38944  0.04659  1.0000
  C   C151      1.0  0.12065  0.37298  0.01438  1.0000
  C   C152      1.0  0.04312999999999999  0.38327  0.9857  1.0000
  C   C153      1.0  0.9416799999999997  0.40346  0.9883600000000001  1.0000
  C   C154      1.0  0.91307  0.41617  0.01989  1.0000
  C   C155      1.0  0.98666  0.41005  0.04819  1.0000
  C   C156      1.0  0.39726999999999996  0.30012  0.03937  1.0000
  C   C157      1.0  0.46959  0.28953  0.06767  1.0000
  C   C158      1.0  0.44504  0.31189  0.09897  1.0000
  C   C159      1.0  0.34785  0.34289  0.10152  1.0000
  C   C160      1.0  0.14077  0.40255  0.10843999999999998  1.0000
  C   C161      1.0  0.11281  0.48414  0.11452  1.0000
  C   C162      1.0  0.09347  0.50785  0.14564  1.0000
  C   C163      1.0  0.0975  0.45023  0.17139  1.0000
  C   C164      1.0  0.12193  0.36801  0.1653  1.0000
  C   C165      1.0  0.14487  0.34494  0.13434  1.0000
  C   C166      1.0  0.07453  0.48045  0.20441  1.0000
  C   C167      1.0  0.45277000000000006  0.14663  0.6876  1.0000
  C   C168      1.0  0.5487  0.17276  0.81479  1.0000
  C   C169      1.0  0.010970000000000018  0.32228  0.66134  1.0000
  C   C170      1.0  0.11801999999999999  0.30527  0.66873  1.0000
  C   C171      1.0  0.17148  0.27369  0.6445  1.0000
  C   C172      1.0  0.11849999999999998  0.25876  0.61238  1.0000
  C   C173      1.0  0.010739999999999991  0.27497  0.60511  1.0000
  C   C174      1.0  0.9574999999999997  0.30677  0.62928  1.0000
  C   C175      1.0  0.17276999999999998  0.22855  0.58533  1.0000
  C   C176      1.0  0.15514999999999998  0.14746  0.57304  1.0000
  C   C177      1.0  0.19412  0.12277  0.54334  1.0000
  C   C178      1.0  0.25018  0.1794  0.52673  1.0000
  C   C179      1.0  0.27523  0.25811  0.54049  1.0000
  C   C180      1.0  0.23693  0.28272  0.57037  1.0000
  C   C181      1.0  0.26256  0.36326  0.58331  1.0000
  C   C182      1.0  0.32289999999999996  0.41625  0.5682  1.0000
  C   C183      1.0  0.36032999999999993  0.39209  0.53885  1.0000
  C   C184      1.0  0.33596  0.31575  0.52523  1.0000
  C   C185      1.0  0.17317  0.04112  0.53109  1.0000
  C   C186      1.0  0.11963000000000001  0.98592  0.54757  1.0000
  C   C187      1.0  0.08338999999999999  0.00951  0.57716  1.0000
  C   C188      1.0  0.09980999999999998  0.08821  0.58935  1.0000
  C   C189      1.0  0.27432  0.15851  0.49333  1.0000
  C   C190      1.0  0.19405  0.16833  0.46572  1.0000
  C   C191      1.0  0.21486  0.15143  0.43272  1.0000
  C   C192      1.0  0.31655  0.1271  0.42784  1.0000
  C   C193      1.0  0.39597999999999994  0.11544  0.45561000000000007  1.0000
  C   C194      1.0  0.37417  0.13101  0.4887  1.0000
  C   C195      1.0  0.45619999999999994  0.12073  0.51613  1.0000
  C   C196      1.0  0.55537  0.09884  0.51152  1.0000
  C   C197      1.0  0.5774599999999999  0.08595  0.47913999999999995  1.0000
  C   C198      1.0  0.50004  0.09413  0.45197  1.0000
  C   C199      1.0  0.13071  0.15874  0.40572  1.0000
  C   C200      1.0  0.03327  0.1847  0.41056  1.0000
  C   C201      1.0  0.014059999999999986  0.20373  0.4428099999999999  1.0000
  C   C202      1.0  0.09223000000000005  0.1955  0.46967  1.0000
  C   C203      1.0  0.33697999999999995  0.11769  0.39349  1.0000
  C   C204      1.0  0.31929  0.1852  0.37159  1.0000
  C   C205      1.0  0.32873  0.17672  0.33837  1.0000
  C   C206      1.0  0.3512799999999999  0.0994  0.32588  1.0000
  C   C207      1.0  0.37179  0.03241  0.34763  1.0000
  C   C208      1.0  0.36699  0.04185  0.38123  1.0000
  C   C209      1.0  0.3509899999999999  0.08897  0.28933  1.0000
  C   C210      1.0  0.9974599999999998  0.29006  0.84159  1.0000
  C   C211      1.0  0.04403999999999999  0.29776  0.87487  1.0000
  C   C212      1.0  0.9912099999999998  0.27109  0.90001  1.0000
  C   C213      1.0  0.8908  0.23676  0.8924  1.0000
  C   C214      1.0  0.84578  0.22657  0.85916  1.0000
  C   C215      1.0  0.8992  0.25277  0.8340399999999999  1.0000
  C   C216      1.0  0.8353399999999999  0.21207  0.92003  1.0000
  C   C217      1.0  0.8509499999999999  0.1327  0.93404  1.0000
  C   C218      1.0  0.8113500000000001  0.11311  0.9642200000000001  1.0000
  C   C219      1.0  0.75346  0.17239  0.97897  1.0000
  C   C220      1.0  0.72911  0.24886  0.96305  1.0000
  C   C221      1.0  0.77053  0.26889  0.9332  1.0000
  C   C222      1.0  0.74398  0.34645  0.91754  1.0000
  C   C223      1.0  0.6798199999999998  0.40123  0.9301799999999999  1.0000
  C   C224      1.0  0.63944  0.38164  0.95952  1.0000
  C   C225      1.0  0.6643700000000001  0.30826  0.9756400000000001  1.0000
  C   C226      1.0  0.9053599999999999  0.07052  0.91895  1.0000
  C   C227      1.0  0.92118  0.9935  0.93279  1.0000
  C   C228      1.0  0.8857299999999999  0.97518  0.96305  1.0000
  C   C229      1.0  0.83275  0.0333  0.97835  1.0000
  C   C230      1.0  0.72209  0.15504  0.01183  1.0000
  C   C231      1.0  0.79579  0.16782  0.04095  1.0000
  C   C232      1.0  0.76921  0.14812  0.07308  1.0000
  C   C233      1.0  0.6675699999999999  0.11927  0.07572  1.0000
  C   C234      1.0  0.5924  0.11051  0.04662  1.0000
  C   C235      1.0  0.6206399999999999  0.127  0.014409999999999997  1.0000
  C   C236      1.0  0.54315  0.11671  0.98573  1.0000
  C   C237      1.0  0.44168999999999997  0.09654  0.9883600000000001  1.0000
  C   C238      1.0  0.41307999999999995  0.08384  0.01989  1.0000
  C   C239      1.0  0.48664  0.08992  0.04821  1.0000
  C   C240      1.0  0.89719  0.19986  0.03938  1.0000
  C   C241      1.0  0.96955  0.21047  0.06766  1.0000
  C   C242      1.0  0.9450199999999999  0.18812  0.09897  1.0000
  C   C243      1.0  0.84785  0.15709  0.10153  1.0000
  C   C244      1.0  0.64091  0.09735  0.10851000000000001  1.0000
  C   C245      1.0  0.6131  0.0157  0.11465  1.0000
  C   C246      1.0  0.59371  0.9922  0.1458  1.0000
  C   C247      1.0  0.59766  0.05001  0.17148  1.0000
  C   C248      1.0  0.6223599999999999  0.13213  0.16538  1.0000
  C   C249      1.0  0.64527  0.15509  0.1344  1.0000
  C   C250      1.0  0.57489  0.01984  0.20452  1.0000
  C   C251      1.0  0.95278  0.35339  0.6876  1.0000
  C   C252      1.0  0.0488  0.32718  0.81479  1.0000
  C   C253      1.0  0.48899  0.82227  0.33866  1.0000
  C   C254      1.0  0.38194  0.80526  0.33127  1.0000
  C   C255      1.0  0.32847  0.77369  0.3555  1.0000
  C   C256      1.0  0.38145999999999997  0.75874  0.38763  1.0000
  C   C257      1.0  0.48923  0.77494  0.39489  1.0000
  C   C258      1.0  0.54246  0.80674  0.37072  1.0000
  C   C259      1.0  0.32719  0.72854  0.41467999999999994  1.0000
  C   C260      1.0  0.34481999999999996  0.64746  0.42696  1.0000
  C   C261      1.0  0.30586  0.62277  0.45667  1.0000
  C   C262      1.0  0.24979999999999997  0.6794  0.47327  1.0000
  C   C263      1.0  0.22474  0.7581  0.45952  1.0000
  C   C264      1.0  0.26303999999999994  0.78271  0.42962999999999996  1.0000
  C   C265      1.0  0.23741  0.86326  0.4167  1.0000
  C   C266      1.0  0.17708  0.91625  0.43181  1.0000
  C   C267      1.0  0.13965  0.89209  0.46116  1.0000
  C   C268      1.0  0.16401999999999997  0.81575  0.47478  1.0000
  C   C269      1.0  0.32681  0.54111  0.46891  1.0000
  C   C270      1.0  0.38035  0.48591  0.45244  1.0000
  C   C271      1.0  0.41659  0.5095  0.42285  1.0000
  C   C272      1.0  0.40017  0.5882  0.41066  1.0000
  C   C273      1.0  0.22568  0.65851  0.50668  1.0000
  C   C274      1.0  0.30595  0.66835  0.53429  1.0000
  C   C275      1.0  0.28515  0.65146  0.56729  1.0000
  C   C276      1.0  0.18349  0.62712  0.57219  1.0000
  C   C277      1.0  0.10403000000000001  0.61545  0.54442  1.0000
  C   C278      1.0  0.12584  0.631  0.51132  1.0000
  C   C279      1.0  0.0438  0.62073  0.48389  1.0000
  C   C280      1.0  0.94462  0.59884  0.48850000000000005  1.0000
  C   C281      1.0  0.92255  0.58593  0.52088  1.0000
  C   C282      1.0  0.9999699999999999  0.59412  0.54805  1.0000
  C   C283      1.0  0.3693  0.65875  0.59429  1.0000
  C   C284      1.0  0.46674  0.6847  0.58945  1.0000
  C   C285      1.0  0.4859399999999999  0.70374  0.5572  1.0000
  C   C286      1.0  0.40778  0.69551  0.53034  1.0000
  C   C287      1.0  0.16309000000000004  0.61772  0.60655  1.0000
  C   C288      1.0  0.18076000000000003  0.68525  0.62843  1.0000
  C   C289      1.0  0.17074999999999993  0.67694  0.66162  1.0000
  C   C290      1.0  0.14769  0.59979  0.67413  1.0000
  C   C291      1.0  0.12774  0.53261  0.65241  1.0000
  C   C292      1.0  0.13301999999999994  0.5419  0.61883  1.0000
  C   C293      1.0  0.14753  0.58979  0.71069  1.0000
  C   C294      1.0  0.5026  0.79008  0.15841  1.0000
  C   C295      1.0  0.456  0.79778  0.12514  1.0000
  C   C296      1.0  0.5087799999999999  0.7711  0.09998999999999998  1.0000
  C   C297      1.0  0.60919  0.73675  0.10759000000000002  1.0000
  C   C298      1.0  0.65424  0.72657  0.14083  1.0000
  C   C299      1.0  0.60086  0.75278  0.16596  1.0000
  C   C300      1.0  0.6646200000000001  0.71207  0.07996  1.0000
  C   C301      1.0  0.6490299999999999  0.6327  0.06595  1.0000
  C   C302      1.0  0.68861  0.6131  0.03577  1.0000
  C   C303      1.0  0.7465  0.6724  0.02103  1.0000
  C   C304      1.0  0.77087  0.74886  0.03694  1.0000
  C   C305      1.0  0.72945  0.76889  0.06679  1.0000
  C   C306      1.0  0.756  0.84643  0.08245  1.0000
  C   C307      1.0  0.82016  0.90121  0.06981  1.0000
  C   C308      1.0  0.86056  0.88164  0.04047  1.0000
  C   C309      1.0  0.83563  0.80826  0.02435  1.0000
  C   C310      1.0  0.59462  0.57053  0.08105  1.0000
  C   C311      1.0  0.57881  0.49351  0.06721  1.0000
  C   C312      1.0  0.61425  0.47518  0.03695  1.0000
  C   C313      1.0  0.6672199999999999  0.53329  0.02164  1.0000
  C   C314      1.0  0.77787  0.65505  0.98818  1.0000
  C   C315      1.0  0.70415  0.66785  0.95906  1.0000
  C   C316      1.0  0.73073  0.64815  0.9269399999999999  1.0000
  C   C317      1.0  0.83238  0.61933  0.92431  1.0000
  C   C318      1.0  0.9075699999999999  0.61055  0.95341  1.0000
  C   C319      1.0  0.8793400000000001  0.62702  0.9856100000000001  1.0000
  C   C320      1.0  0.95686  0.61672  0.01429  1.0000
  C   C321      1.0  0.05831  0.59653  0.01164  1.0000
  C   C322      1.0  0.08692000000000003  0.58383  0.9801  1.0000
  C   C323      1.0  0.013330000000000055  0.58994  0.9518000000000001  1.0000
  C   C324      1.0  0.6027299999999999  0.69987  0.9606199999999999  1.0000
  C   C325      1.0  0.5304  0.71046  0.93233  1.0000
  C   C326      1.0  0.55495  0.68811  0.90103  1.0000
  C   C327      1.0  0.65214  0.6571  0.8984700000000001  1.0000
  C   C328      1.0  0.85921  0.59745  0.89156  1.0000
  C   C329      1.0  0.88718  0.51586  0.8854800000000002  1.0000
  C   C330      1.0  0.9065499999999999  0.49216  0.85436  1.0000
  C   C331      1.0  0.90252  0.5498  0.8286100000000001  1.0000
  C   C332      1.0  0.8780800000000001  0.63201  0.8347000000000001  1.0000
  C   C333      1.0  0.8551099999999998  0.65507  0.8656600000000001  1.0000
  C   C334      1.0  0.9255  0.51957  0.7955900000000001  1.0000
  C   C335      1.0  0.5472200000000003  0.85337  0.3124  1.0000
  C   C336      1.0  0.45129  0.82724  0.18521  1.0000
  Cl  Cl1       1.0  0.73021  0.70184  0.24978  1.0000
  Cl  Cl2       1.0  0.76993  0.20172  0.75023  1.0000
  Cl  Cl3       1.0  0.26979  0.29816  0.75021  1.0000
  Cl  Cl4       1.0  0.23003  0.79831  0.24976  1.0000
  O   O1        1.0  0.14635  0.64563  0.318  1.0000
  O   O2        1.0  0.61331  0.85337  0.72589  1.0000
  O   O3        1.0  0.68713  0.9784  0.72396  1.0000
  O   O4        1.0  0.85923  0.64506  0.17852  1.0000
  O   O5        1.0  0.0054399999999999995  0.66725  0.21453  1.0000
  O   O6        1.0  0.34871  0.01206  0.77597  1.0000
  O   O7        1.0  0.51832  0.97525  0.79041  1.0000
  O   O8        1.0  0.99512  0.62455  0.28412  1.0000
  O   O9        1.0  0.35364  0.14563  0.68198  1.0000
  O   O10       1.0  0.89008  0.35311  0.27427  1.0000
  O   O11       1.0  0.8130199999999999  0.47701  0.2759  1.0000
  O   O12       1.0  0.64063  0.14496  0.8215  1.0000
  O   O13       1.0  0.49449999999999994  0.16721  0.78546  1.0000
  O   O14       1.0  0.15094  0.51242  0.22389999999999996  1.0000
  O   O15       1.0  0.98137  0.4752  0.20953  1.0000
  O   O16       1.0  0.50484  0.12458  0.71588  1.0000
  O   O17       1.0  0.85364  0.35436  0.682  1.0000
  O   O18       1.0  0.38669999999999993  0.14662  0.27411  1.0000
  O   O19       1.0  0.31286  0.0216  0.27604  1.0000
  O   O20       1.0  0.14076  0.35493  0.82148  1.0000
  O   O21       1.0  0.99455  0.33275  0.78547  1.0000
  O   O22       1.0  0.65128  0.98792  0.22403  1.0000
  O   O23       1.0  0.4816799999999999  0.02475  0.20958999999999997  1.0000
  O   O24       1.0  0.004869999999999964  0.37545  0.71588  1.0000
  O   O25       1.0  0.64635  0.85436  0.31802  1.0000
  O   O26       1.0  0.10996  0.6469  0.72573  1.0000
  O   O27       1.0  0.18697000000000008  0.52297  0.7241  1.0000
  O   O28       1.0  0.35936  0.85504  0.1785  1.0000
  O   O29       1.0  0.50549  0.83279  0.21453  1.0000
  O   O30       1.0  0.8490899999999999  0.48761  0.77609  1.0000
  O   O31       1.0  0.018670000000000037  0.5248  0.79047  1.0000
  O   O32       1.0  0.49515  0.87542  0.28412  1.0000
