data_image0
_chemical_formula_structural       Cu24H96C216N24O120
_chemical_formula_sum              "Cu24 H96 C216 N24 O120"
_cell_length_a       18.7885
_cell_length_b       28.30368
_cell_length_c       32.57743
_cell_angle_alpha    112.38595
_cell_angle_beta     90.00875
_cell_angle_gamma    90.06614

_space_group_name_H-M_alt    "P 1"
_space_group_IT_number       1

loop_
  _space_group_symop_operation_xyz
  'x, y, z'

loop_
  _atom_site_type_symbol
  _atom_site_label
  _atom_site_symmetry_multiplicity
  _atom_site_fract_x
  _atom_site_fract_y
  _atom_site_fract_z
  _atom_site_occupancy
  Cu  Cu1       1.0  0.9926  0.7166  0.6985600000000002  1.0000
  Cu  Cu2       1.0  0.81102  0.7860500000000002  0.9941000000000002  1.0000
  Cu  Cu3       1.0  0.75309  0.70971  0.4910600000000001  1.0000
  Cu  Cu4       1.0  0.49245  0.28350000000000003  0.80174  1.0000
  Cu  Cu5       1.0  0.80598  0.2925800000000001  0.5311700000000003  1.0000
  Cu  Cu6       1.0  0.50213  0.79379  0.2661  1.0000
  Cu  Cu7       1.0  0.19402  0.7074200000000003  0.46883000000000014  1.0000
  Cu  Cu8       1.0  0.2469  0.29029000000000005  0.50894  1.0000
  Cu  Cu9       1.0  0.74684  0.7094000000000001  0.9903900000000002  1.0000
  Cu  Cu10      1.0  0.75766  0.21459000000000011  0.025620000000000007  1.0000
  Cu  Cu11      1.0  0.74159  0.21463  0.52557  1.0000
  Cu  Cu12      1.0  0.30598  0.7074500000000002  0.9692600000000002  1.0000
  Cu  Cu13      1.0  0.18898  0.21395000000000006  0.005900000000000002  1.0000
  Cu  Cu14      1.0  0.50755  0.7165  0.19826000000000005  1.0000
  Cu  Cu15      1.0  0.00176  0.20644000000000007  0.23387  1.0000
  Cu  Cu16      1.0  0.9982400000000001  0.79356  0.76613  1.0000
  Cu  Cu17      1.0  0.24233  0.78541  0.97438  1.0000
  Cu  Cu18      1.0  0.25316  0.2906  0.009610000000000004  1.0000
  Cu  Cu19      1.0  0.31109  0.2136800000000001  0.5051100000000001  1.0000
  Cu  Cu20      1.0  0.2584  0.78537  0.47443000000000013  1.0000
  Cu  Cu21      1.0  0.49787  0.20620000000000008  0.7339000000000002  1.0000
  Cu  Cu22      1.0  0.69401  0.29255  0.030740000000000007  1.0000
  Cu  Cu23      1.0  0.00739  0.2834000000000001  0.30144  1.0000
  Cu  Cu24      1.0  0.6889  0.7863199999999999  0.49489  1.0000
  H   H1        1.0  0.64576  0.39061  0.51294  1.0000
  H   H2        1.0  0.97335  0.7452700000000002  0.46877  1.0000
  H   H3        1.0  0.137  0.38163000000000014  0.26436000000000004  1.0000
  H   H4        1.0  0.80114  0.5443500000000002  0.7334700000000001  1.0000
  H   H5        1.0  0.52748  0.25843000000000016  0.5079000000000002  1.0000
  H   H6        1.0  0.25917  0.5558200000000001  0.21055000000000004  1.0000
  H   H7        1.0  0.16493  0.24497000000000002  0.37697  1.0000
  H   H8        1.0  0.7342  0.04768000000000005  0.3216200000000001  1.0000
  H   H9        1.0  0.19233  0.04805000000000013  0.7984600000000002  1.0000
  H   H10       1.0  0.25125  0.8815000000000003  0.6100600000000003  1.0000
  H   H11       1.0  0.91707  0.61321  0.00305  1.0000
  H   H12       1.0  0.97272  0.25829  0.007920000000000003  1.0000
  H   H13       1.0  0.19885  0.4556400000000001  0.26653  1.0000
  H   H14       1.0  0.9166400000000001  0.12023000000000003  0.52937  1.0000
  H   H15       1.0  0.85427  0.87973  0.48126000000000013  1.0000
  H   H16       1.0  0.30162  0.11866000000000007  0.3651600000000001  1.0000
  H   H17       1.0  0.67129  0.8870000000000002  0.24485000000000004  1.0000
  H   H18       1.0  0.21838999999999997  0.6209400000000002  0.32994  1.0000
  H   H19       1.0  0.69838  0.8813400000000002  0.6348400000000002  1.0000
  H   H20       1.0  0.62982  0.75094  0.3577300000000001  1.0000
  H   H21       1.0  0.23455  0.9516000000000002  0.17743  1.0000
  H   H22       1.0  0.33485  0.24525000000000013  0.8780800000000002  1.0000
  H   H23       1.0  0.75883  0.44400000000000006  0.28967  1.0000
  H   H24       1.0  0.87569  0.24650000000000008  0.3932700000000001  1.0000
  H   H25       1.0  0.74874  0.11849000000000001  0.38994  1.0000
  H   H26       1.0  0.47317  0.25455000000000005  0.03141  1.0000
  H   H27       1.0  0.9173400000000002  0.95092  0.47399  1.0000
  H   H28       1.0  0.24116999999999997  0.5560000000000002  0.7103300000000002  1.0000
  H   H29       1.0  0.58326  0.12024000000000003  0.02953  1.0000
  H   H30       1.0  0.08265  0.04908000000000013  0.5260100000000002  1.0000
  H   H31       1.0  0.13034  0.24948000000000006  0.14221  1.0000
  H   H32       1.0  0.80766  0.95194  0.20154  1.0000
  H   H33       1.0  0.64586  0.88023  0.9811500000000002  1.0000
  H   H34       1.0  0.84124  0.3748300000000001  0.2807  1.0000
  H   H35       1.0  0.63846  0.11223000000000005  0.7721000000000002  1.0000
  H   H36       1.0  0.27138  0.38759000000000005  0.6444200000000002  1.0000
  H   H37       1.0  0.35414  0.11976000000000003  0.01885  1.0000
  H   H38       1.0  0.41401  0.53965  0.49270000000000014  1.0000
  H   H39       1.0  0.02664  0.2547300000000002  0.5312300000000002  1.0000
  H   H40       1.0  0.08572  0.5394900000000002  0.9918300000000002  1.0000
  H   H41       1.0  0.47251000000000004  0.74156  0.4921  1.0000
  H   H42       1.0  0.74994  0.11892000000000012  0.8903100000000003  1.0000
  H   H43       1.0  0.25005  0.8810800000000002  0.10969000000000002  1.0000
  H   H44       1.0  0.34403  0.7538800000000001  0.3443400000000001  1.0000
  H   H45       1.0  0.71884  0.37930000000000014  0.16992000000000004  1.0000
  H   H46       1.0  0.74082  0.44417  0.78945  1.0000
  H   H47       1.0  0.63745  0.6184400000000002  0.23584000000000005  1.0000
  H   H48       1.0  0.65823  0.3747  0.78053  1.0000
  H   H49       1.0  0.52682  0.74545  0.96859  1.0000
  H   H50       1.0  0.69363  0.9522  0.70197  1.0000
  H   H51       1.0  0.84332  0.24615000000000006  0.1559  1.0000
  H   H52       1.0  0.41674  0.87976  0.9704700000000003  1.0000
  H   H53       1.0  0.72861  0.6124100000000002  0.35558  1.0000
  H   H54       1.0  0.62336  0.24652000000000007  0.8928400000000001  1.0000
  H   H55       1.0  0.83507  0.7550300000000002  0.62303  1.0000
  H   H56       1.0  0.13807  0.8878100000000002  0.7276  1.0000
  H   H57       1.0  0.37663  0.75348  0.10716000000000003  1.0000
  H   H58       1.0  0.19758  0.11894000000000012  0.8660800000000002  1.0000
  H   H59       1.0  0.2292  0.3884800000000001  0.14517000000000005  1.0000
  H   H60       1.0  0.8696600000000001  0.7505200000000002  0.85779  1.0000
  H   H61       1.0  0.027269999999999996  0.7417100000000002  0.9920800000000002  1.0000
  H   H62       1.0  0.37018  0.24905000000000005  0.64227  1.0000
  H   H63       1.0  0.58281  0.95135  0.97426  1.0000
  H   H64       1.0  0.66514  0.7547500000000003  0.12192  1.0000
  H   H65       1.0  0.14576  0.61015  0.9880200000000002  1.0000
  H   H66       1.0  0.2658  0.9523200000000003  0.67838  1.0000
  H   H67       1.0  0.35423  0.6093800000000001  0.4870600000000001  1.0000
  H   H68       1.0  0.41732  0.38648000000000005  0.49639  1.0000
  H   H69       1.0  0.82934  0.8873000000000003  0.7458600000000002  1.0000
  H   H70       1.0  0.58599  0.46035  0.5073  1.0000
  H   H71       1.0  0.28116  0.62069  0.83008  1.0000
  H   H72       1.0  0.08293  0.38679  0.99695  1.0000
  H   H73       1.0  0.8542299999999999  0.38985000000000003  0.011980000000000003  1.0000
  H   H74       1.0  0.80241  0.88106  0.13392  1.0000
  H   H75       1.0  0.7708  0.61152  0.8548300000000002  1.0000
  H   H76       1.0  0.863  0.61837  0.73564  1.0000
  H   H77       1.0  0.30017  0.4550200000000001  0.76596  1.0000
  H   H78       1.0  0.58267  0.61351  0.5036100000000001  1.0000
  H   H79       1.0  0.14573  0.12027  0.51874  1.0000
  H   H80       1.0  0.15667  0.7538400000000002  0.8441000000000001  1.0000
  H   H81       1.0  0.86193  0.11218000000000006  0.2724000000000001  1.0000
  H   H82       1.0  0.36153  0.8877700000000002  0.2279  1.0000
  H   H83       1.0  0.69983  0.54498  0.23404000000000005  1.0000
  H   H84       1.0  0.34176  0.6253000000000002  0.21947  1.0000
  H   H85       1.0  0.7816  0.3790600000000001  0.67006  1.0000
  H   H86       1.0  0.65596  0.24611000000000005  0.6556600000000001  1.0000
  H   H87       1.0  0.76545  0.04840000000000016  0.8225700000000002  1.0000
  H   H88       1.0  0.08336  0.87977  0.4706300000000001  1.0000
  H   H89       1.0  0.30637  0.047790000000000055  0.29803000000000013  1.0000
  H   H90       1.0  0.32871  0.11299  0.75515  1.0000
  H   H91       1.0  0.41719  0.04865  0.02574  1.0000
  H   H92       1.0  0.36254  0.38156000000000007  0.7641600000000002  1.0000
  H   H93       1.0  0.17066  0.11270000000000002  0.25414  1.0000
  H   H94       1.0  0.15876  0.6251700000000001  0.7193  1.0000
  H   H95       1.0  0.12431  0.7535000000000003  0.6067300000000002  1.0000
  H   H96       1.0  0.91428  0.46051  0.00817  1.0000
  C   C1        1.0  0.25676  0.21044  0.4235  1.0000
  C   C2        1.0  0.65069  0.6365400000000002  0.2709400000000001  1.0000
  C   C3        1.0  0.24402999999999997  0.7132600000000002  0.8892  1.0000
  C   C4        1.0  0.03438  0.31971  0.0017100000000000004  1.0000
  C   C5        1.0  0.60348  0.70725  0.50054  1.0000
  C   C6        1.0  0.014460000000000002  0.9739100000000003  0.4982200000000001  1.0000
  C   C7        1.0  0.22223  0.6898800000000005  0.8414700000000003  1.0000
  C   C8        1.0  0.1534  0.86757  0.6932300000000002  1.0000
  C   C9        1.0  0.3493  0.36346  0.72906  1.0000
  C   C10       1.0  0.18628  0.3911  0.20769000000000007  1.0000
  C   C11       1.0  0.97131  0.29597  0.0065  1.0000
  C   C12       1.0  0.97184  0.7841400000000002  0.4700700000000001  1.0000
  C   C13       1.0  0.31386  0.3906300000000001  0.7071500000000002  1.0000
  C   C14       1.0  0.39499  0.7833100000000002  0.96436  1.0000
  C   C15       1.0  0.24657  0.6407800000000005  0.8155200000000002  1.0000
  C   C16       1.0  0.89634  0.7068700000000002  0.99991  1.0000
  C   C17       1.0  0.66364  0.8179900000000002  0.18553  1.0000
  C   C18       1.0  0.30148  0.8902300000000001  0.17192000000000005  1.0000
  C   C19       1.0  0.19932  0.29171  0.09107  1.0000
  C   C20       1.0  0.20246  0.36746000000000006  0.16243000000000005  1.0000
  C   C21       1.0  0.16108  0.7027200000000002  0.98355  1.0000
  C   C22       1.0  0.9686200000000001  0.88549  0.4756200000000001  1.0000
  C   C23       1.0  0.34702  0.6924  0.2796700000000001  1.0000
  C   C24       1.0  0.65351  0.13252  0.80653  1.0000
  C   C25       1.0  0.40496  0.6291400000000003  0.49062  1.0000
  C   C26       1.0  0.26532  0.5298  0.75765  1.0000
  C   C27       1.0  0.51454  0.02613  0.0019500000000000003  1.0000
  C   C28       1.0  0.46821  0.6058500000000001  0.49608  1.0000
  C   C29       1.0  0.30983  0.13329000000000005  0.7888  1.0000
  C   C30       1.0  0.65298  0.3076  0.72033  1.0000
  C   C31       1.0  0.33635  0.18201  0.81447  1.0000
  C   C32       1.0  0.82395  0.28399  0.17633  1.0000
  C   C33       1.0  0.08708  0.28619  0.22878  1.0000
  C   C34       1.0  0.73666  0.8151600000000001  0.12343000000000003  1.0000
  C   C35       1.0  0.89487  0.2167400000000001  0.5353600000000002  1.0000
  C   C36       1.0  0.34649  0.8674800000000003  0.19347  1.0000
  C   C37       1.0  0.31764  0.31558000000000014  0.6390100000000002  1.0000
  C   C38       1.0  0.71589  0.13622000000000012  0.8728900000000003  1.0000
  C   C39       1.0  0.4712  0.7038500000000002  0.49341  1.0000
  C   C40       1.0  0.75291  0.9749  0.75658  1.0000
  C   C41       1.0  0.46576999999999996  0.31961  0.50145  1.0000
  C   C42       1.0  0.8494  0.6362700000000003  0.7706800000000003  1.0000
  C   C43       1.0  0.6078  0.7939800000000002  0.20419  1.0000
  C   C44       1.0  0.33873  0.21402000000000004  0.019730000000000008  1.0000
  C   C45       1.0  0.81371  0.6088900000000005  0.7923100000000002  1.0000
  C   C46       1.0  0.22399  0.47952000000000006  0.21831000000000006  1.0000
  C   C47       1.0  0.53423  0.6803800000000002  0.4985500000000001  1.0000
  C   C48       1.0  0.39651  0.2927400000000001  0.4994600000000001  1.0000
  C   C49       1.0  0.25259  0.025260000000000046  0.7443000000000002  1.0000
  C   C50       1.0  0.46658999999999995  0.36849  0.50006  1.0000
  C   C51       1.0  0.02816  0.21585000000000004  0.52993  1.0000
  C   C52       1.0  0.74324  0.78956  0.5765  1.0000
  C   C53       1.0  0.68676  0.7921000000000002  0.14182000000000006  1.0000
  C   C54       1.0  0.72327  0.5207200000000001  0.28231  1.0000
  C   C55       1.0  0.27569  0.6177700000000003  0.27128  1.0000
  C   C56       1.0  0.90508  0.3704000000000001  0.008840000000000004  1.0000
  C   C57       1.0  0.52879  0.29615000000000014  0.5065900000000001  1.0000
  C   C58       1.0  0.13022  0.31297  0.20574000000000006  1.0000
  C   C59       1.0  0.81002  0.18505  0.39617  1.0000
  C   C60       1.0  0.77555  0.38236  0.22878  1.0000
  C   C61       1.0  0.03392  0.8601500000000002  0.47103  1.0000
  C   C62       1.0  0.48546  0.9738700000000005  0.9980500000000002  1.0000
  C   C63       1.0  0.3224  0.6434300000000002  0.25338  1.0000
  C   C64       1.0  0.03361  0.3686000000000001  0.00032000000000000013  1.0000
  C   C65       1.0  0.23989  0.11024  0.30643  1.0000
  C   C66       1.0  0.10779  0.20573000000000005  0.29482000000000014  1.0000
  C   C67       1.0  0.75596  0.2867300000000001  0.11080000000000002  1.0000
  C   C68       1.0  0.59495  0.8605700000000002  0.9769800000000002  1.0000
  C   C69       1.0  0.84652  0.30768  0.22049000000000005  1.0000
  C   C70       1.0  0.53151  0.8856500000000002  0.97551  1.0000
  C   C71       1.0  0.53379  0.13977000000000003  0.029120000000000007  1.0000
  C   C72       1.0  0.25578  0.71347  0.38900000000000007  1.0000
  C   C73       1.0  0.35388  0.28835000000000016  0.6605100000000003  1.0000
  C   C74       1.0  0.7601  0.88976  0.69357  1.0000
  C   C75       1.0  0.82204  0.35664000000000007  0.24674000000000004  1.0000
  C   C76       1.0  0.17605  0.7160100000000004  0.8236700000000002  1.0000
  C   C77       1.0  0.18653  0.20762000000000005  0.35720000000000013  1.0000
  C   C78       1.0  0.52834  0.7843500000000001  0.9699200000000001  1.0000
  C   C79       1.0  0.79754  0.6325400000000002  0.8375700000000003  1.0000
  C   C80       1.0  0.0316  0.6059700000000001  0.9961300000000002  1.0000
  C   C81       1.0  0.9656099999999999  0.6802900000000001  0.9982900000000002  1.0000
  C   C82       1.0  0.80067  0.7082800000000002  0.90893  1.0000
  C   C83       1.0  0.77776  0.3101200000000001  0.15853  1.0000
  C   C84       1.0  0.36987  0.31273  0.70572  1.0000
  C   C85       1.0  0.8725599999999999  0.18181000000000005  0.33047  1.0000
  C   C86       1.0  0.9844  0.52586  0.0016100000000000005  1.0000
  C   C87       1.0  0.64611  0.7116500000000002  0.33949  1.0000
  C   C88       1.0  0.35542  0.7915100000000003  0.12513  1.0000
  C   C89       1.0  0.0794  0.79407  0.69253  1.0000
  C   C90       1.0  0.76396  0.8635600000000002  0.14883  1.0000
  C   C91       1.0  0.10365  0.29313000000000006  9.000000000000003e-05  1.0000
  C   C92       1.0  0.27777  0.6900600000000002  0.3414  1.0000
  C   C93       1.0  0.46619999999999995  0.8602300000000003  0.97088  1.0000
  C   C94       1.0  0.90656  0.32161  0.010230000000000003  1.0000
  C   C95       1.0  0.8365  0.81829  0.68655  1.0000
  C   C96       1.0  0.64457  0.20849000000000018  0.8748700000000003  1.0000
  C   C97       1.0  0.75699  0.78921  0.07564000000000003  1.0000
  C   C98       1.0  0.79342  0.21135000000000004  0.44444000000000006  1.0000
  C   C99       1.0  0.80123  0.10949000000000006  0.32801  1.0000
  C   C100      1.0  0.85351  0.7111800000000003  0.8393900000000001  1.0000
  C   C101      1.0  0.40669  0.18973  0.02521  1.0000
  C   C102      1.0  0.29796  0.36671  0.66185  1.0000
  C   C103      1.0  0.8172  0.6836400000000002  0.86059  1.0000
  C   C104      1.0  0.09344  0.6783900000000003  0.9897700000000003  1.0000
  C   C105      1.0  0.41272  0.28619  0.72912  1.0000
  C   C106      1.0  0.29507  0.78866  0.05547000000000001  1.0000
  C   C107      1.0  0.9012300000000001  0.28284  0.23903000000000005  1.0000
  C   C108      1.0  0.23624  0.18456000000000006  0.3756800000000001  1.0000
  C   C109      1.0  0.9129200000000001  0.7138100000000004  0.7712200000000002  1.0000
  C   C110      1.0  0.81032  0.86703  0.71222  1.0000
  C   C111      1.0  0.67559  0.2838700000000001  0.67621  1.0000
  C   C112      1.0  0.59504  0.3708500000000002  0.5093800000000003  1.0000
  C   C113      1.0  0.78306  0.13592000000000007  0.3727000000000001  1.0000
  C   C114      1.0  0.69894  0.70921  0.4094000000000001  1.0000
  C   C115      1.0  0.73468  0.4702000000000001  0.24235  1.0000
  C   C116      1.0  0.27672  0.47928000000000004  0.7176900000000003  1.0000
  C   C117      1.0  0.15348  0.69232  0.77951  1.0000
  C   C118      1.0  0.3244  0.7161200000000002  0.32379  1.0000
  C   C119      1.0  0.18997  0.81495  0.6038300000000002  1.0000
  C   C120      1.0  0.19876  0.8905100000000002  0.6719900000000002  1.0000
  C   C121      1.0  0.26328  0.1361700000000001  0.3502500000000001  1.0000
  C   C122      1.0  0.73672  0.86382  0.64975  1.0000
  C   C123      1.0  0.74668  0.35904000000000025  0.6845200000000002  1.0000
  C   C124      1.0  0.47164999999999996  0.21565  0.030080000000000006  1.0000
  C   C125      1.0  0.23603  0.1364400000000001  0.85117  1.0000
  C   C126      1.0  0.3726  0.81817  0.16986  1.0000
  C   C127      1.0  0.24301  0.21079000000000017  0.9243600000000002  1.0000
  C   C128      1.0  0.74058  0.8894700000000002  0.19265000000000004  1.0000
  C   C129      1.0  0.42045  0.7941300000000003  0.19291000000000005  1.0000
  C   C130      1.0  0.69852  0.10977000000000008  0.82808  1.0000
  C   C131      1.0  0.48438  0.4742000000000001  0.49863  1.0000
  C   C132      1.0  0.839  0.7857200000000001  0.48082000000000014  1.0000
  C   C133      1.0  0.84659  0.13243000000000008  0.3067600000000001  1.0000
  C   C134      1.0  0.76508  0.46992000000000017  0.7418800000000002  1.0000
  C   C135      1.0  0.39219  0.20602000000000012  0.7958100000000002  1.0000
  C   C136      1.0  0.14535  0.79157  0.62493  1.0000
  C   C137      1.0  0.4016  0.7173000000000003  0.26108  1.0000
  C   C138      1.0  0.53178  0.3941500000000002  0.5039200000000003  1.0000
  C   C139      1.0  0.09876  0.7171500000000001  0.7609700000000003  1.0000
  C   C140      1.0  0.51561  0.5258000000000002  0.5013700000000001  1.0000
  C   C141      1.0  0.9683999999999999  0.39402  0.00387  1.0000
  C   C142      1.0  0.31135  0.8148  0.10376  1.0000
  C   C143      1.0  0.72222  0.30994000000000005  0.6586  1.0000
  C   C144      1.0  0.92059  0.2059300000000001  0.30747000000000013  1.0000
  C   C145      1.0  0.0931  0.19002000000000008  0.5250100000000001  1.0000
  C   C146      1.0  0.20832  0.9760900000000005  0.7339600000000002  1.0000
  C   C147      1.0  0.66092  0.29775000000000007  0.5172900000000001  1.0000
  C   C148      1.0  0.69016  0.8667000000000002  0.21120000000000005  1.0000
  C   C149      1.0  0.68864  0.18520000000000006  0.89624  1.0000
  C   C150      1.0  0.9069000000000002  0.80997  0.47499  1.0000
  C   C151      1.0  0.57955  0.20586000000000015  0.8070900000000002  1.0000
  C   C152      1.0  0.79168  0.023910000000000004  0.26604  1.0000
  C   C153      1.0  0.24708999999999998  0.025100000000000032  0.24342000000000005  1.0000
  C   C154      1.0  0.58728  0.7138000000000001  0.27088  1.0000
  C   C155      1.0  0.5933  0.8102700000000004  0.9747900000000003  1.0000
  C   C156      1.0  0.74741  0.97474  0.2557  1.0000
  C   C157      1.0  0.30105  0.29078000000000015  0.5906000000000002  1.0000
  C   C158      1.0  0.59839  0.2827000000000002  0.7389200000000002  1.0000
  C   C159      1.0  0.70879  0.023970000000000023  0.7665400000000001  1.0000
  C   C160      1.0  0.66127  0.7859800000000005  0.9802700000000002  1.0000
  C   C161      1.0  0.46514999999999995  0.8094800000000001  0.9677200000000002  1.0000
  C   C162      1.0  0.25942  0.11053000000000016  0.8073500000000002  1.0000
  C   C163      1.0  0.68613  0.60937  0.2928500000000001  1.0000
  C   C164      1.0  0.09492  0.6295900000000001  0.9911600000000003  1.0000
  C   C165      1.0  0.76375  0.81543  0.62431  1.0000
  C   C166      1.0  0.40649  0.67794  0.4892400000000001  1.0000
  C   C167      1.0  0.9855400000000001  0.026089999999999988  0.50178  1.0000
  C   C168      1.0  0.70203  0.6332800000000002  0.33815  1.0000
  C   C169      1.0  0.02868  0.7040200000000002  0.9935000000000003  1.0000
  C   C170      1.0  0.12743  0.8181800000000002  0.6695300000000002  1.0000
  C   C171      1.0  0.26333  0.18483999999999995  0.87657  1.0000
  C   C172      1.0  0.85465  0.20843  0.37507000000000007  1.0000
  C   C173      1.0  0.5334  0.63151  0.4999400000000001  1.0000
  C   C174      1.0  0.40505  0.13943  0.02302  1.0000
  C   C175      1.0  0.83891  0.2972700000000001  0.01645  1.0000
  C   C176      1.0  0.2841  0.86377  0.12711  1.0000
  C   C177      1.0  0.53485  0.19051000000000007  0.03228  1.0000
  C   C178      1.0  0.86978  0.68702  0.7942500000000002  1.0000
  C   C179      1.0  0.09477  0.13975  0.52289  1.0000
  C   C180      1.0  0.10512  0.7832600000000001  0.4646400000000001  1.0000
  C   C181      1.0  0.68236  0.6844200000000003  0.3609900000000001  1.0000
  C   C182      1.0  0.03138  0.11450999999999997  0.52438  1.0000
  C   C183      1.0  0.6274  0.18183000000000005  0.83014  1.0000
  C   C184      1.0  0.29121  0.97603  0.23346000000000006  1.0000
  C   C185      1.0  0.63013  0.68726  0.2942800000000001  1.0000
  C   C186      1.0  0.31324  0.2078900000000001  0.8581800000000003  1.0000
  C   C187      1.0  0.8922099999999998  0.79426  0.70518  1.0000
  C   C188      1.0  0.9663799999999999  0.6314000000000002  0.99968  1.0000
  C   C189      1.0  0.14649  0.28882  0.16061000000000006  1.0000
  C   C190      1.0  0.9649800000000001  0.19059000000000006  0.5321  1.0000
  C   C191      1.0  0.5935  0.32206  0.51076  1.0000
  C   C192      1.0  0.67759  0.35656  0.74662  1.0000
  C   C193      1.0  0.75343  0.35922  0.18448000000000006  1.0000
  C   C194      1.0  0.72431  0.38223000000000007  0.72872  1.0000
  C   C195      1.0  0.18967  0.13297  0.28778  1.0000
  C   C196      1.0  0.25331  0.6409600000000001  0.3154800000000001  1.0000
  C   C197      1.0  0.17796  0.6433500000000002  0.7532600000000003  1.0000
  C   C198      1.0  0.90523  0.8602400000000003  0.4771100000000001  1.0000
  C   C199      1.0  0.21693  0.8640800000000002  0.62729  1.0000
  C   C200      1.0  0.33908  0.7022400000000001  0.48271  1.0000
  C   C201      1.0  0.16099  0.21428  0.51918  1.0000
  C   C202      1.0  0.15059  0.3637200000000001  0.22932000000000005  1.0000
  C   C203      1.0  0.03502000000000001  0.8094  0.4679000000000001  1.0000
  C   C204      1.0  0.60501  0.21668000000000004  0.03564000000000001  1.0000
  C   C205      1.0  0.01559  0.4741400000000001  0.99839  1.0000
  C   C206      1.0  0.16349  0.18171000000000007  0.3134500000000001  1.0000
  C   C207      1.0  0.74422  0.2865300000000002  0.6110000000000002  1.0000
  C   C208      1.0  0.4684900000000001  0.11434000000000001  0.02449000000000001  1.0000
  C   C209      1.0  0.20657  0.7886500000000002  0.55556  1.0000
  C   C210      1.0  0.77601  0.52047  0.78169  1.0000
  C   C211      1.0  0.23490999999999998  0.53008  0.25812  1.0000
  C   C212      1.0  0.22444  0.61763  0.7712200000000002  1.0000
  C   C213      1.0  0.96608  0.13985  0.52897  1.0000
  C   C214      1.0  0.70493  0.21134000000000008  0.9445300000000002  1.0000
  C   C215      1.0  0.81346  0.79238  0.6428000000000003  1.0000
  C   C216      1.0  0.1828  0.31636  0.1394  1.0000
  N   N1        1.0  0.73233  0.93881  0.71689  1.0000
  N   N2        1.0  0.25376  0.56807  0.24427000000000004  1.0000
  N   N3        1.0  0.70408  0.55823  0.2679300000000001  1.0000
  N   N4        1.0  0.53541  0.9369800000000003  0.9799400000000003  1.0000
  N   N5        1.0  0.03532  0.06318000000000006  0.5200100000000001  1.0000
  N   N6        1.0  0.96328  0.44341  0.0034400000000000008  1.0000
  N   N7        1.0  0.26766  0.06118000000000007  0.2831100000000001  1.0000
  N   N8        1.0  0.46312000000000003  0.5565700000000002  0.4967700000000001  1.0000
  N   N9        1.0  0.24638  0.56795  0.74404  1.0000
  N   N10       1.0  0.27269  0.9394200000000003  0.19357  1.0000
  N   N11       1.0  0.77283  0.06018000000000006  0.3060000000000001  1.0000
  N   N12       1.0  0.7273  0.06056999999999997  0.80643  1.0000
  N   N13       1.0  0.29592  0.44177000000000016  0.7320700000000002  1.0000
  N   N14       1.0  0.22715999999999997  0.9398200000000002  0.6940000000000002  1.0000
  N   N15       1.0  0.74624  0.43193  0.75573  1.0000
  N   N16       1.0  0.79605  0.5577700000000002  0.7673000000000002  1.0000
  N   N17       1.0  0.20395  0.4422200000000001  0.23270000000000005  1.0000
  N   N18       1.0  0.03671  0.5565900000000003  0.9965600000000002  1.0000
  N   N19       1.0  0.76841  0.93857  0.21615000000000006  1.0000
  N   N20       1.0  0.75361  0.4320400000000001  0.25596  1.0000
  N   N21       1.0  0.46459  0.06302000000000002  0.02006000000000001  1.0000
  N   N22       1.0  0.23159  0.06142000000000013  0.7838500000000003  1.0000
  N   N23       1.0  0.53688  0.44343  0.50323  1.0000
  N   N24       1.0  0.96467  0.9368200000000001  0.47999  1.0000
  O   O1        1.0  0.16062  0.31792000000000015  0.99995  1.0000
  O   O2        1.0  0.17953  0.74442  0.5349400000000002  1.0000
  O   O3        1.0  0.84249  0.7403400000000002  0.48021  1.0000
  O   O4        1.0  0.16109  0.8099900000000002  0.46722000000000014  1.0000
  O   O5        1.0  0.73226  0.6820300000000002  0.4268200000000001  1.0000
  O   O6        1.0  0.8389  0.19001000000000007  0.53278  1.0000
  O   O7        1.0  0.4177  0.17881  0.75763  1.0000
  O   O8        1.0  0.20368  0.18566000000000007  0.9410700000000002  1.0000
  O   O9        1.0  0.82154  0.7544900000000004  0.9291500000000003  1.0000
  O   O10       1.0  0.9428499999999999  0.25119000000000014  0.33034000000000013  1.0000
  O   O11       1.0  0.77949  0.31464000000000003  0.59542  1.0000
  O   O12       1.0  0.71842  0.3236000000000001  0.52097  1.0000
  O   O13       1.0  0.25691  0.8139500000000002  0.03832  1.0000
  O   O14       1.0  0.66346  0.02700000000000008  0.7401700000000002  1.0000
  O   O15       1.0  0.0748  0.9690100000000003  0.51107  1.0000
  O   O16       1.0  0.08223  0.17874  0.25662  1.0000
  O   O17       1.0  0.67825  0.7553700000000001  0.42973  1.0000
  O   O18       1.0  0.73203  0.7442600000000003  0.05492  1.0000
  O   O19       1.0  0.76699  0.52402  0.82031  1.0000
  O   O20       1.0  0.07971  0.46437000000000017  0.9920200000000002  1.0000
  O   O21       1.0  0.9215799999999998  0.23792000000000008  0.21416000000000004  1.0000
  O   O22       1.0  0.27228  0.5328900000000002  0.7963100000000002  1.0000
  O   O23       1.0  0.82046  0.2555700000000001  0.46506  1.0000
  O   O24       1.0  0.65772  0.7406000000000003  0.9797100000000002  1.0000
  O   O25       1.0  0.06416  0.82056  0.7331  1.0000
  O   O26       1.0  0.34228  0.2594000000000001  0.020290000000000006  1.0000
  O   O27       1.0  0.56813  0.7597800000000003  0.29327000000000003  1.0000
  O   O28       1.0  0.76837  0.7447600000000002  0.55565  1.0000
  O   O29       1.0  0.57475  0.30925  0.77784  1.0000
  O   O30       1.0  0.42525  0.69074  0.22216000000000005  1.0000
  O   O31       1.0  0.26774  0.3179700000000001  0.5731800000000002  1.0000
  O   O32       1.0  0.21725999999999998  0.18684  0.51303  1.0000
  O   O33       1.0  0.9248299999999999  0.3092400000000001  0.27804  1.0000
  O   O34       1.0  0.07516  0.6907500000000001  0.7219600000000003  1.0000
  O   O35       1.0  0.91776  0.8212600000000001  0.7433800000000003  1.0000
  O   O36       1.0  0.33653  0.9729900000000002  0.25983  1.0000
  O   O37       1.0  0.9358399999999999  0.17944000000000004  0.2669  1.0000
  O   O38       1.0  0.77197  0.46678  0.70318  1.0000
  O   O39       1.0  0.70029  0.9714000000000004  0.2809200000000001  1.0000
  O   O40       1.0  0.73184  0.5240400000000001  0.3209300000000001  1.0000
  O   O41       1.0  0.26796  0.2557400000000001  0.9450800000000001  1.0000
  O   O42       1.0  0.22482000000000002  0.7595500000000001  0.9109200000000002  1.0000
  O   O43       1.0  0.92853  0.6877800000000002  0.7305300000000002  1.0000
  O   O44       1.0  0.67902  0.2559500000000001  0.9650300000000003  1.0000
  O   O45       1.0  0.89969  0.7521600000000002  5e-05  1.0000
  O   O46       1.0  0.08909  0.2513900000000001  0.3192100000000001  1.0000
  O   O47       1.0  0.10376  0.7363000000000002  0.4603700000000001  1.0000
  O   O48       1.0  0.34376  0.74647  0.4810100000000001  1.0000
  O   O49       1.0  0.32175  0.24463000000000004  0.57027  1.0000
  O   O50       1.0  0.24607000000000004  0.81346  0.53851  1.0000
  O   O51       1.0  0.33944  0.31721000000000016  0.49902000000000013  1.0000
  O   O52       1.0  0.8962399999999999  0.2636900000000001  0.5396300000000003  1.0000
  O   O53       1.0  0.39985  0.2475200000000001  0.49930000000000013  1.0000
  O   O54       1.0  0.8432  0.25289  0.01793000000000001  1.0000
  O   O55       1.0  0.1003  0.24783000000000002  0.99995  1.0000
  O   O56       1.0  0.78169  0.32329  0.02013  1.0000
  O   O57       1.0  0.06787  0.24023000000000005  0.20613000000000006  1.0000
  O   O58       1.0  0.20041  0.028520000000000014  0.21799000000000002  1.0000
  O   O59       1.0  0.33923  0.81017  0.9671000000000002  1.0000
  O   O60       1.0  0.42499  0.9688000000000002  0.0107  1.0000
  O   O61       1.0  0.16268  0.9726900000000005  0.7600100000000002  1.0000
  O   O62       1.0  0.60386  0.26375  0.04014000000000001  1.0000
  O   O63       1.0  0.65624  0.25352  0.51899  1.0000
  O   O64       1.0  0.77517  0.24044000000000004  0.08908  1.0000
  O   O65       1.0  0.27497  0.7598100000000004  0.4106900000000001  1.0000
  O   O66       1.0  0.76748  0.68111  0.9264200000000002  1.0000
  O   O67       1.0  0.93213  0.7597700000000003  0.7938700000000002  1.0000
  O   O68       1.0  0.66055  0.68279  0.50098  1.0000
  O   O69       1.0  0.91091  0.74861  0.6807900000000002  1.0000
  O   O70       1.0  0.05714999999999999  0.7488100000000001  0.6696600000000003  1.0000
  O   O71       1.0  0.23301  0.47597  0.17969  1.0000
  O   O72       1.0  0.5783  0.23762  0.71426  1.0000
  O   O73       1.0  0.44270999999999994  0.74893  0.16998  1.0000
  O   O74       1.0  0.70347  0.81446  0.55985  1.0000
  O   O75       1.0  0.15751  0.25966000000000006  0.5197800000000001  1.0000
  O   O76       1.0  0.26816  0.47595  0.67907  1.0000
  O   O77       1.0  0.74308  0.18605000000000008  0.9616800000000002  1.0000
  O   O78       1.0  0.57987  0.53546  0.50704  1.0000
  O   O79       1.0  0.79959  0.9714800000000003  0.7820000000000003  1.0000
  O   O80       1.0  0.23163  0.25524  0.44435  1.0000
  O   O81       1.0  0.78274  0.81315  0.4869700000000001  1.0000
  O   O82       1.0  0.28158  0.6764  0.4790300000000001  1.0000
  O   O83       1.0  0.22050999999999998  0.6853600000000002  0.40458  1.0000
  O   O84       1.0  0.41091  0.25175000000000014  0.8200300000000003  1.0000
  O   O85       1.0  0.07146  0.31222  0.2694700000000001  1.0000
  O   O86       1.0  0.83732  0.02730000000000001  0.23998  1.0000
  O   O87       1.0  0.58229  0.82118  0.24237000000000006  1.0000
  O   O88       1.0  0.4217  0.7623800000000001  0.28574  1.0000
  O   O89       1.0  0.79632  0.8143400000000002  0.05893000000000002  1.0000
  O   O90       1.0  0.55729  0.2510700000000001  0.83002  1.0000
  O   O91       1.0  0.23251  0.31889  0.07358000000000003  1.0000
  O   O92       1.0  0.17846  0.24551000000000003  0.07085000000000002  1.0000
  O   O93       1.0  0.42012  0.4645400000000001  0.4929600000000001  1.0000
  O   O94       1.0  0.75393  0.18654000000000004  0.4614900000000001  1.0000
  O   O95       1.0  0.72502  0.24019000000000013  0.5893100000000002  1.0000
  O   O96       1.0  0.07841  0.7620800000000002  0.78584  1.0000
  O   O97       1.0  0.32098  0.7440500000000002  0.03497  1.0000
  O   O98       1.0  0.21831000000000003  0.6767000000000003  0.9798700000000002  1.0000
  O   O99       1.0  0.575  0.031200000000000037  0.9893000000000001  1.0000
  O   O100      1.0  0.29971  0.028600000000000028  0.71908  1.0000
  O   O101      1.0  0.72104  0.31479  0.09508000000000003  1.0000
  O   O102      1.0  0.28236  0.18664000000000006  0.014000000000000004  1.0000
  O   O103      1.0  0.56437  0.17938000000000012  0.7664900000000002  1.0000
  O   O104      1.0  0.72771  0.4671000000000001  0.20369  1.0000
  O   O105      1.0  0.1568  0.7471100000000003  0.98207  1.0000
  O   O106      1.0  0.29652  0.18553  0.44015  1.0000
  O   O107      1.0  0.83938  0.68208  5e-05  1.0000
  O   O108      1.0  0.60015  0.7524800000000003  0.5007  1.0000
  O   O109      1.0  0.43187000000000003  0.24021000000000015  0.7067300000000002  1.0000
  O   O110      1.0  0.71763  0.8133600000000001  0.9860000000000002  1.0000
  O   O111      1.0  0.39614  0.7362500000000001  0.95986  1.0000
  O   O112      1.0  0.22802  0.53321  0.2968200000000001  1.0000
  O   O113      1.0  0.43563  0.8206200000000002  0.23351  1.0000
  O   O114      1.0  0.27896  0.6852000000000004  0.9049200000000002  1.0000
  O   O115      1.0  0.92519  0.03098000000000002  0.48893000000000003  1.0000
  O   O116      1.0  0.42827  0.3123100000000001  0.7698300000000002  1.0000
  O   O117      1.0  0.92028  0.5356300000000002  0.00798  1.0000
  O   O118      1.0  0.58909  0.7482500000000002  0.17997000000000005  1.0000
  O   O119      1.0  0.66076  0.18982  0.0329  1.0000
  O   O120      1.0  0.57173  0.68768  0.23017  1.0000
