data_image0
_chemical_formula_structural       Zn12Cr6H120C180N12O86
_chemical_formula_sum              "Zn12 Cr6 H120 C180 N12 O86"
_cell_length_a       19.58645
_cell_length_b       19.61362
_cell_length_c       35.56547
_cell_angle_alpha    90.00408
_cell_angle_beta     89.92302
_cell_angle_gamma    120.05996999999999

_symmetry_space_group_name_H-M    'P 1'
_symmetry_Int_Tables_number       1

loop_
  _symmetry_equiv_pos_as_xyz
  'x,y,z'

loop_
  _atom_site_type_symbol
  _atom_site_label
  _atom_site_symmetry_multiplicity
  _atom_site_fract_x
  _atom_site_fract_y
  _atom_site_fract_z
  _atom_site_occupancy
  Zn  Zn1       1.0  0.9592  0.47852  0.96672  1.0000
  Zn  Zn2       1.0  0.51914  0.04062  0.96673  1.0000
  Zn  Zn3       1.0  0.5216099999999999  0.48095000000000004  0.9665  1.0000
  Zn  Zn4       1.0  0.04096000000000004  0.5192200000000001  0.46741999999999995  1.0000
  Zn  Zn5       1.0  0.48039999999999994  0.95922  0.46742999999999996  1.0000
  Zn  Zn6       1.0  0.47853999999999997  0.51913  0.4673399999999999  1.0000
  Zn  Zn7       1.0  0.47997999999999996  0.5211  0.03294  1.0000
  Zn  Zn8       1.0  0.47829  0.95938  0.03325999999999999  1.0000
  Zn  Zn9       1.0  0.04071000000000001  0.5191  0.03325999999999999  1.0000
  Zn  Zn10      1.0  0.51966  0.47881  0.53267  1.0000
  Zn  Zn11      1.0  0.52137  0.04056  0.53313  1.0000
  Zn  Zn12      1.0  0.95909  0.47843  0.53257  1.0000
  Cr  Cr1       1.0  0.56203  0.28102  0.74967  1.0000
  Cr  Cr2       1.0  0.71901  0.43758000000000014  0.74964  1.0000
  Cr  Cr3       1.0  0.7193399999999998  0.2815  0.7497  1.0000
  Cr  Cr4       1.0  0.43811  0.71917  0.25035  1.0000
  Cr  Cr5       1.0  0.28115  0.56232  0.2503  1.0000
  Cr  Cr6       1.0  0.2812400000000001  0.7190100000000003  0.25035  1.0000
  H   H1        1.0  0.70629  0.63449  0.08382  1.0000
  H   H2        1.0  0.08770999999999998  0.64616  0.41139  1.0000
  H   H3        1.0  0.7835599999999998  0.74896  0.11521  1.0000
  H   H4        1.0  0.31485  0.45865  0.15459  1.0000
  H   H5        1.0  0.9278099999999999  0.28847  0.08485  1.0000
  H   H6        1.0  0.5592399999999998  0.9121000000000002  0.4111199999999999  1.0000
  H   H7        1.0  0.14356000000000002  0.6851700000000001  0.15444  1.0000
  H   H8        1.0  0.74433  0.07838  0.14662  1.0000
  H   H9        1.0  0.07726  0.83335  0.6582  1.0000
  H   H10       1.0  0.36058  0.07317  0.08494999999999998  1.0000
  H   H11       1.0  0.35255000000000003  0.4400700000000001  0.4108  1.0000
  H   H12       1.0  0.5415300000000001  0.85626  0.15426999999999996  1.0000
  H   H13       1.0  0.33389  0.25622  0.14657  1.0000
  H   H14       1.0  0.28856  0.35977  0.5845199999999999  1.0000
  H   H15       1.0  0.9111699999999999  0.35245  0.9104299999999999  1.0000
  H   H16       1.0  0.68566  0.54171  0.65372  1.0000
  H   H17       1.0  0.07909  0.33368  0.64644  1.0000
  H   H18       1.0  0.83344  0.756  0.15855  1.0000
  H   H19       1.0  0.07090999999999997  0.70565  0.58329  1.0000
  H   H20       1.0  0.44043  0.08805  0.9103799999999999  1.0000
  H   H21       1.0  0.033120000000000094  0.7823200000000002  0.61527  1.0000
  H   H22       1.0  0.85678  0.31474  0.65391  1.0000
  H   H23       1.0  0.6395400000000001  0.9275900000000002  0.58438  1.0000
  H   H24       1.0  0.6474299999999997  0.55947  0.9099899999999999  1.0000
  H   H25       1.0  0.45841999999999994  0.14357  0.6540499999999999  1.0000
  H   H26       1.0  0.6654999999999998  0.74479  0.64628  1.0000
  H   H27       1.0  0.07177  0.35972  0.9150200000000001  1.0000
  H   H28       1.0  0.4409  0.35299  0.58886  1.0000
  H   H29       1.0  0.8555499999999998  0.54115  0.84557  1.0000
  H   H30       1.0  0.2556  0.33358  0.85326  1.0000
  H   H31       1.0  0.9228099999999999  0.7561200000000002  0.34178  1.0000
  H   H32       1.0  0.6396  0.71194  0.9152  1.0000
  H   H33       1.0  0.64741  0.0877  0.58923  1.0000
  H   H34       1.0  0.45831  0.3144  0.84553  1.0000
  H   H35       1.0  0.6659999999999998  0.92179  0.85346  1.0000
  H   H36       1.0  0.28818000000000005  0.9279400000000002  0.91511  1.0000
  H   H37       1.0  0.91229  0.55866  0.5885499999999999  1.0000
  H   H38       1.0  0.68556  0.14448000000000005  0.8454  1.0000
  H   H39       1.0  0.07813999999999997  0.74437  0.85341  1.0000
  H   H40       1.0  0.92905  0.63493  0.4166599999999999  1.0000
  H   H41       1.0  0.55911  0.64794  0.08924999999999998  1.0000
  H   H42       1.0  0.9667699999999999  0.74918  0.38473  1.0000
  H   H43       1.0  0.14351000000000003  0.4582600000000001  0.34586  1.0000
  H   H44       1.0  0.36072  0.28832  0.41572  1.0000
  H   H45       1.0  0.35195  0.91149  0.08994  1.0000
  H   H46       1.0  0.54197  0.68532  0.34633  1.0000
  H   H47       1.0  0.33468  0.07958000000000003  0.35381  1.0000
  H   H48       1.0  0.71133  0.0714  0.4157599999999999  1.0000
  H   H49       1.0  0.08880999999999999  0.44092  0.08976999999999997  1.0000
  H   H50       1.0  0.31446  0.85628  0.34641  1.0000
  H   H51       1.0  0.9208299999999999  0.25466  0.35356999999999994  1.0000
  H   H52       1.0  0.24404000000000003  0.07616  0.34172  1.0000
  H   H53       1.0  0.2950999999999999  0.3655700000000001  0.9159899999999999  1.0000
  H   H54       1.0  0.9141699999999999  0.3492  0.58814  1.0000
  H   H55       1.0  0.2181  0.2503  0.88438  1.0000
  H   H56       1.0  0.67998  0.53349  0.8446599999999997  1.0000
  H   H57       1.0  0.07052000000000003  0.70465  0.9160399999999999  1.0000
  H   H58       1.0  0.43570999999999993  0.08604000000000003  0.5883999999999999  1.0000
  H   H59       1.0  0.031999999999999966  0.78153  0.88449  1.0000
  H   H60       1.0  0.8533799999999999  0.32016  0.84501  1.0000
  H   H61       1.0  0.9240999999999998  0.1675  0.34142  1.0000
  H   H62       1.0  0.6344499999999998  0.92953  0.9163  1.0000
  H   H63       1.0  0.65126  0.5642  0.5879299999999998  1.0000
  H   H64       1.0  0.74931  0.9676200000000001  0.88456  1.0000
  H   H65       1.0  0.4662  0.14636  0.84502  1.0000
  H   H66       1.0  0.7564300000000002  0.92479  0.84121  1.0000
  H   H67       1.0  0.71058  0.6390700000000002  0.41649999999999987  1.0000
  H   H68       1.0  0.08685999999999999  0.6505  0.0887  1.0000
  H   H69       1.0  0.31979  0.46656  0.34569  1.0000
  H   H70       1.0  0.91941  0.66572  0.35386999999999996  1.0000
  H   H71       1.0  0.16795999999999997  0.24332  0.84114  1.0000
  H   H72       1.0  0.9292999999999998  0.29464  0.41651999999999995  1.0000
  H   H73       1.0  0.5633900000000001  0.9126800000000003  0.08833  1.0000
  H   H74       1.0  0.9674999999999999  0.21800000000000005  0.38459  1.0000
  H   H75       1.0  0.14670999999999995  0.67974  0.34602  1.0000
  H   H76       1.0  0.07531000000000015  0.8317600000000003  0.84122  1.0000
  H   H77       1.0  0.36587  0.07072  0.41692  1.0000
  H   H78       1.0  0.34908  0.43616  0.08878  1.0000
  H   H79       1.0  0.25101  0.03241  0.38479999999999986  1.0000
  H   H80       1.0  0.53341  0.8534400000000002  0.34589  1.0000
  H   H81       1.0  0.92911  0.63904  0.08422  1.0000
  H   H82       1.0  0.5643000000000002  0.6502200000000002  0.41194  1.0000
  H   H83       1.0  0.14714000000000002  0.46701  0.15506  1.0000
  H   H84       1.0  0.7458499999999998  0.66582  0.14634  1.0000
  H   H85       1.0  0.07516000000000003  0.24298  0.6586599999999998  1.0000
  H   H86       1.0  0.36575999999999986  0.29586  0.08296999999999999  1.0000
  H   H87       1.0  0.3490499999999999  0.91315  0.41222  1.0000
  H   H88       1.0  0.25051  0.2187  0.11547  1.0000
  H   H89       1.0  0.53343  0.68059  0.15462  1.0000
  H   H90       1.0  0.7561800000000001  0.8320500000000002  0.65833  1.0000
  H   H91       1.0  0.70479  0.07053  0.084  1.0000
  H   H92       1.0  0.08607999999999993  0.43496  0.41165  1.0000
  H   H93       1.0  0.78177  0.03244  0.11555999999999998  1.0000
  H   H94       1.0  0.3198300000000001  0.8533  0.15528  1.0000
  H   H95       1.0  0.83188  0.07568  0.15881  1.0000
  H   H96       1.0  0.07039  0.36467  0.58352  1.0000
  H   H97       1.0  0.43609  0.34892  0.9113999999999999  1.0000
  H   H98       1.0  0.03203  0.25028  0.61546  1.0000
  H   H99       1.0  0.8533799999999999  0.53308  0.65396  1.0000
  H   H100      1.0  0.6343299999999997  0.7047700000000001  0.58307  1.0000
  H   H101      1.0  0.6512099999999997  0.08779000000000002  0.91126  1.0000
  H   H102      1.0  0.74907  0.78126  0.61524  1.0000
  H   H103      1.0  0.46640999999999994  0.3199  0.65409  1.0000
  H   H104      1.0  0.24366999999999994  0.16844  0.15866  1.0000
  H   H105      1.0  0.2893  0.92841  0.58344  1.0000
  H   H106      1.0  0.9117  0.56335  0.9114999999999999  1.0000
  H   H107      1.0  0.6804799999999998  0.14691  0.6544  1.0000
  H   H108      1.0  0.08044000000000008  0.7461900000000002  0.64613  1.0000
  H   H109      1.0  0.24219  0.48558000000000007  0.00202  1.0000
  H   H110      1.0  0.24327  0.7575  0.00214  1.0000
  H   H111      1.0  0.5143100000000002  0.7567200000000002  0.00247  1.0000
  H   H112      1.0  0.7567200000000001  0.51365  0.50298  1.0000
  H   H113      1.0  0.7563199999999997  0.24179  0.5027  1.0000
  H   H114      1.0  0.48627  0.24388  0.50279  1.0000
  H   H115      1.0  0.75812  0.51474  0.9972699999999999  1.0000
  H   H116      1.0  0.4853  0.24172  0.9969899999999999  1.0000
  H   H117      1.0  0.7572099999999999  0.24314000000000002  0.99786  1.0000
  H   H118      1.0  0.24403000000000002  0.48556000000000005  0.49767  1.0000
  H   H119      1.0  0.5136800000000001  0.7574700000000002  0.4973699999999999  1.0000
  H   H120      1.0  0.24321999999999994  0.75683  0.49695  1.0000
  C   C1        1.0  0.9001299999999999  0.3878500000000001  0.60423  1.0000
  C   C2        1.0  0.20173999999999995  0.28248  0.86434  1.0000
  C   C3        1.0  0.42586999999999997  0.15167000000000003  0.03945  1.0000
  C   C4        1.0  0.09664999999999996  0.45138  0.9759799999999998  1.0000
  C   C5        1.0  0.6307400000000001  0.13231  0.8588899999999998  1.0000
  C   C6        1.0  0.61954  0.74664  0.5711699999999998  1.0000
  C   C7        1.0  0.4885099999999999  0.10027  0.60445  1.0000
  C   C8        1.0  0.08072  0.79805  0.8644599999999999  1.0000
  C   C9        1.0  0.72511  0.57299  0.03902  1.0000
  C   C10       1.0  0.35488999999999987  0.90293  0.97597  1.0000
  C   C11       1.0  0.50103  0.36921  0.8589  1.0000
  C   C12       1.0  0.12717  0.37954  0.57157  1.0000
  C   C13       1.0  0.61247  0.51159  0.6041  1.0000
  C   C14       1.0  0.71717  0.91919  0.8644599999999999  1.0000
  C   C15       1.0  0.8482699999999999  0.27445  0.03974  1.0000
  C   C16       1.0  0.5480399999999999  0.64527  0.9760999999999999  1.0000
  C   C17       1.0  0.86767  0.4985800000000001  0.85903  1.0000
  C   C18       1.0  0.25037999999999994  0.87162  0.57066  1.0000
  C   C19       1.0  0.10095999999999991  0.61197  0.10481  1.0000
  C   C20       1.0  0.57391  0.84826  0.53927  1.0000
  C   C21       1.0  0.9015999999999997  0.54568  0.4775  1.0000
  C   C22       1.0  0.36911999999999995  0.86805  0.35983999999999994  1.0000
  C   C23       1.0  0.38051  0.25394  0.07105  1.0000
  C   C24       1.0  0.51095  0.89896  0.10464  1.0000
  C   C25       1.0  0.9186599999999999  0.2012  0.36465  1.0000
  C   C26       1.0  0.27465  0.42545  0.53961  1.0000
  C   C27       1.0  0.64497  0.09688  0.47673999999999994  1.0000
  C   C28       1.0  0.49896  0.6305800000000001  0.35971  1.0000
  C   C29       1.0  0.8723399999999999  0.62116  0.07136  1.0000
  C   C30       1.0  0.38796  0.48880000000000007  0.10485  1.0000
  C   C31       1.0  0.28314  0.08144  0.36494  1.0000
  C   C32       1.0  0.15172000000000005  0.7241200000000002  0.5386299999999999  1.0000
  C   C33       1.0  0.45250999999999997  0.35494  0.47655999999999993  1.0000
  C   C34       1.0  0.13149000000000013  0.5007600000000002  0.35946  1.0000
  C   C35       1.0  0.74657  0.12711  0.07189  1.0000
  C   C36       1.0  0.5115199999999999  0.6117  0.39584  1.0000
  C   C37       1.0  0.27430000000000004  0.8485200000000003  0.9602199999999999  1.0000
  C   C38       1.0  0.64487  0.5464000000000002  0.02287  1.0000
  C   C39       1.0  0.49872000000000005  0.8681800000000002  0.1409  1.0000
  C   C40       1.0  0.87261  0.25269  0.42853  1.0000
  C   C41       1.0  0.38771000000000005  0.89923  0.39600999999999986  1.0000
  C   C42       1.0  0.28288  0.20246  0.13543999999999998  1.0000
  C   C43       1.0  0.15109  0.42531  0.9601699999999999  1.0000
  C   C44       1.0  0.4521299999999999  0.09721  0.02395  1.0000
  C   C45       1.0  0.13195000000000007  0.63059  0.14103  1.0000
  C   C46       1.0  0.74945  0.6211300000000002  0.42929  1.0000
  C   C47       1.0  0.10008  0.48768000000000006  0.39562  1.0000
  C   C48       1.0  0.7981799999999999  0.08106  0.13557  1.0000
  C   C49       1.0  0.57434  0.7259300000000001  0.96046  1.0000
  C   C50       1.0  0.9024099999999998  0.35519  0.02402  1.0000
  C   C51       1.0  0.3696  0.50144  0.14109  1.0000
  C   C52       1.0  0.38068  0.12736000000000006  0.42887  1.0000
  C   C53       1.0  0.48855999999999994  0.38781  0.89511  1.0000
  C   C54       1.0  0.08090000000000001  0.2821600000000001  0.63541  1.0000
  C   C55       1.0  0.7254399999999998  0.15087000000000006  0.46082  1.0000
  C   C56       1.0  0.3552599999999999  0.45213  0.52386  1.0000
  C   C57       1.0  0.50128  0.13179  0.64056  1.0000
  C   C58       1.0  0.1271  0.74647  0.92812  1.0000
  C   C59       1.0  0.6122599999999999  0.10135  0.89514  1.0000
  C   C60       1.0  0.71701  0.7981900000000001  0.63513  1.0000
  C   C61       1.0  0.84824  0.57251  0.46131  1.0000
  C   C62       1.0  0.54738  0.90233  0.52365  1.0000
  C   C63       1.0  0.8687099999999999  0.36933  0.64039  1.0000
  C   C64       1.0  0.25325  0.38032  0.9280399999999999  1.0000
  C   C65       1.0  0.8983299999999999  0.51099  0.8953  1.0000
  C   C66       1.0  0.42617  0.27449  0.46084  1.0000
  C   C67       1.0  0.09836999999999997  0.64392  0.52246  1.0000
  C   C68       1.0  0.6309799999999999  0.49888  0.64026  1.0000
  C   C69       1.0  0.6197199999999999  0.87297  0.92832  1.0000
  C   C70       1.0  0.10134999999999994  0.60694  0.39554  1.0000
  C   C71       1.0  0.79985  0.71685  0.13532  1.0000
  C   C72       1.0  0.57248  0.84841  0.96081  1.0000
  C   C73       1.0  0.9026499999999998  0.54682  0.02313  1.0000
  C   C74       1.0  0.37455000000000005  0.8664200000000002  0.14143  1.0000
  C   C75       1.0  0.37878  0.24979000000000004  0.42872  1.0000
  C   C76       1.0  0.5060100000000001  0.8982300000000002  0.39551  1.0000
  C   C77       1.0  0.2757  0.42745  0.9605099999999999  1.0000
  C   C78       1.0  0.64367  0.09815  0.02316  1.0000
  C   C79       1.0  0.49190999999999996  0.62567  0.141  1.0000
  C   C80       1.0  0.8724099999999998  0.61979  0.42886  1.0000
  C   C81       1.0  0.39201999999999987  0.49347  0.3953  1.0000
  C   C82       1.0  0.15165999999999996  0.72397  0.9605999999999999  1.0000
  C   C83       1.0  0.45404999999999995  0.35564  0.0216  1.0000
  C   C84       1.0  0.13399  0.50852  0.14129  1.0000
  C   C85       1.0  0.7500299999999998  0.12814  0.42863999999999997  1.0000
  C   C86       1.0  0.8976199999999999  0.3919700000000001  0.89482  1.0000
  C   C87       1.0  0.4279  0.15204  0.46132  1.0000
  C   C88       1.0  0.09891000000000001  0.45349  0.52257  1.0000
  C   C89       1.0  0.62565  0.1338  0.64073  1.0000
  C   C90       1.0  0.62161  0.75054  0.9282200000000002  1.0000
  C   C91       1.0  0.49372  0.1019  0.89476  1.0000
  C   C92       1.0  0.08241000000000002  0.79949  0.63497  1.0000
  C   C93       1.0  0.7253  0.57368  0.46142999999999995  1.0000
  C   C94       1.0  0.35507  0.9017400000000002  0.52239  1.0000
  C   C95       1.0  0.50844  0.37472  0.64048  1.0000
  C   C96       1.0  0.12852000000000005  0.37807000000000013  0.9279899999999999  1.0000
  C   C97       1.0  0.60788  0.50625  0.89444  1.0000
  C   C98       1.0  0.8480099999999999  0.27508000000000005  0.46107  1.0000
  C   C99       1.0  0.54537  0.64404  0.52242  1.0000
  C   C100      1.0  0.86669  0.49148  0.64036  1.0000
  C   C101      1.0  0.24966  0.8711700000000002  0.9280599999999999  1.0000
  C   C102      1.0  0.49407999999999996  0.39229  0.60453  1.0000
  C   C103      1.0  0.72396  0.15156000000000006  0.039409999999999994  1.0000
  C   C104      1.0  0.35601  0.4546800000000001  0.9767799999999999  1.0000
  C   C105      1.0  0.50802  0.13352  0.85873  1.0000
  C   C106      1.0  0.12754  0.7472  0.57109  1.0000
  C   C107      1.0  0.60805  0.10158000000000003  0.60485  1.0000
  C   C108      1.0  0.8491699999999999  0.57398  0.03914  1.0000
  C   C109      1.0  0.54531  0.90171  0.9768499999999999  1.0000
  C   C110      1.0  0.8663  0.37478  0.85877  1.0000
  C   C111      1.0  0.24985000000000002  0.3778100000000001  0.57167  1.0000
  C   C112      1.0  0.8987399999999999  0.50582  0.6044  1.0000
  C   C113      1.0  0.42721  0.27576  0.03832  1.0000
  C   C114      1.0  0.09838000000000002  0.64357  0.9767799999999999  1.0000
  C   C115      1.0  0.62521  0.49181  0.8584599999999999  1.0000
  C   C116      1.0  0.62143  0.87099  0.57136  1.0000
  C   C117      1.0  0.5061  0.60823  0.10498999999999999  1.0000
  C   C118      1.0  0.91749  0.71709  0.36502  1.0000
  C   C119      1.0  0.2745599999999999  0.8483  0.53853  1.0000
  C   C120      1.0  0.64484  0.54655  0.47767  1.0000
  C   C121      1.0  0.4915300000000002  0.8663100000000002  0.35956  1.0000
  C   C122      1.0  0.8710699999999999  0.24988  0.07189  1.0000
  C   C123      1.0  0.39164  0.8979200000000002  0.10539  1.0000
  C   C124      1.0  0.15196000000000004  0.42677  0.53911  1.0000
  C   C125      1.0  0.45475999999999994  0.09874000000000002  0.4776  1.0000
  C   C126      1.0  0.1334  0.62482  0.35959  1.0000
  C   C127      1.0  0.74797  0.61969  0.07162  1.0000
  C   C128      1.0  0.10235999999999994  0.49406  0.1053  1.0000
  C   C129      1.0  0.57225  0.7241200000000002  0.5387399999999999  1.0000
  C   C130      1.0  0.90117  0.35494  0.47745999999999994  1.0000
  C   C131      1.0  0.3746  0.50822  0.35939999999999994  1.0000
  C   C132      1.0  0.37871999999999995  0.1296  0.07171  1.0000
  C   C133      1.0  0.8236100000000002  0.6453200000000002  0.41337999999999997  1.0000
  C   C134      1.0  0.8241899999999999  0.17849  0.41282  1.0000
  C   C135      1.0  0.35481999999999997  0.17561  0.41313  1.0000
  C   C136      1.0  0.17904000000000003  0.3544600000000001  0.91231  1.0000
  C   C137      1.0  0.17547  0.82069  0.91241  1.0000
  C   C138      1.0  0.6454  0.8246000000000002  0.91251  1.0000
  C   C139      1.0  0.17551999999999995  0.35373  0.58734  1.0000
  C   C140      1.0  0.64537  0.82075  0.58694  1.0000
  C   C141      1.0  0.1762400000000001  0.8215700000000001  0.58657  1.0000
  C   C142      1.0  0.82221  0.64504  0.08725  1.0000
  C   C143      1.0  0.3550099999999999  0.18015  0.08718  1.0000
  C   C144      1.0  0.8207999999999999  0.17566  0.08757  1.0000
  C   C145      1.0  0.14968  0.57832  0.15957999999999994  1.0000
  C   C146      1.0  0.55032  0.77508  0.52239  1.0000
  C   C147      1.0  0.4287800000000001  0.8507600000000002  0.15962  1.0000
  C   C148      1.0  0.22502  0.44893  0.52272  1.0000
  C   C149      1.0  0.42216999999999993  0.5716  0.15954  1.0000
  C   C150      1.0  0.22455000000000003  0.7748500000000001  0.52197  1.0000
  C   C151      1.0  0.8508499999999998  0.42171  0.6587899999999998  1.0000
  C   C152      1.0  0.44904  0.22448000000000004  0.02218  1.0000
  C   C153      1.0  0.5715399999999999  0.14972  0.65899  1.0000
  C   C154      1.0  0.77591  0.55102  0.02241  1.0000
  C   C155      1.0  0.5784399999999998  0.42871  0.6588  1.0000
  C   C156      1.0  0.775  0.22446  0.02293  1.0000
  C   C157      1.0  0.57112  0.42181000000000013  0.84027  1.0000
  C   C158      1.0  0.7751399999999998  0.22408000000000006  0.47761999999999993  1.0000
  C   C159      1.0  0.57805  0.14958  0.84037  1.0000
  C   C160      1.0  0.77538  0.55031  0.47794999999999993  1.0000
  C   C161      1.0  0.85057  0.42877  0.84041  1.0000
  C   C162      1.0  0.44972999999999996  0.22489000000000003  0.47774  1.0000
  C   C163      1.0  0.42873999999999995  0.57834  0.34118  1.0000
  C   C164      1.0  0.22451  0.77519  0.97706  1.0000
  C   C165      1.0  0.4215599999999999  0.85035  0.34126  1.0000
  C   C166      1.0  0.22446000000000002  0.4490400000000001  0.97697  1.0000
  C   C167      1.0  0.14929999999999993  0.57101  0.34111  1.0000
  C   C168      1.0  0.5507999999999998  0.77564  0.97735  1.0000
  C   C169      1.0  0.59168  0.40243  0.80328  1.0000
  C   C170      1.0  0.81119  0.40842  0.8033  1.0000
  C   C171      1.0  0.59731  0.18928  0.8033  1.0000
  C   C172      1.0  0.4083899999999999  0.5981  0.3042099999999999  1.0000
  C   C173      1.0  0.18946999999999997  0.5916  0.30414  1.0000
  C   C174      1.0  0.40202  0.81045  0.30423  1.0000
  C   C175      1.0  0.18928  0.59753  0.19665999999999995  1.0000
  C   C176      1.0  0.4031100000000001  0.5921000000000002  0.19665999999999995  1.0000
  C   C177      1.0  0.4084999999999999  0.81116  0.1967  1.0000
  C   C178      1.0  0.81082  0.4022300000000001  0.69581  1.0000
  C   C179      1.0  0.598  0.4082800000000001  0.69581  1.0000
  C   C180      1.0  0.59195  0.18989  0.69592  1.0000
  N   N1        1.0  0.08698999999999998  0.54529  0.08726999999999999  1.0000
  N   N2        1.0  0.45822  0.91313  0.08724  1.0000
  N   N3        1.0  0.45473  0.54133  0.08714  1.0000
  N   N4        1.0  0.9144799999999998  0.45457  0.58666  1.0000
  N   N5        1.0  0.54109  0.08587  0.58701  1.0000
  N   N6        1.0  0.54553  0.45911  0.58664  1.0000
  N   N7        1.0  0.54117  0.45481  0.9124799999999998  1.0000
  N   N8        1.0  0.5453199999999999  0.08693  0.91272  1.0000
  N   N9        1.0  0.91266  0.4585100000000001  0.91283  1.0000
  N   N10       1.0  0.45882  0.54471  0.41326  1.0000
  N   N11       1.0  0.45463999999999993  0.91363  0.41345  1.0000
  N   N12       1.0  0.0857  0.53996  0.41326  1.0000
  O   O1        1.0  0.37027999999999994  0.48499000000000003  0.00956  1.0000
  O   O2        1.0  0.55505  0.95933  0.9562  1.0000
  O   O3        1.0  0.6633300000000001  0.4460000000000001  0.79235  1.0000
  O   O4        1.0  0.11424000000000002  0.62894  0.0095  1.0000
  O   O5        1.0  0.40427  0.44516000000000006  0.9562699999999998  1.0000
  O   O6        1.0  0.7836599999999999  0.33702000000000004  0.79232  1.0000
  O   O7        1.0  0.51491  0.88595  0.00963  1.0000
  O   O8        1.0  0.04058000000000002  0.59562  0.95621  1.0000
  O   O9        1.0  0.55335  0.2167  0.79231  1.0000
  O   O10       1.0  0.63041  0.51584  0.51038  1.0000
  O   O11       1.0  0.44492  0.040910000000000016  0.4571  1.0000
  O   O12       1.0  0.33676000000000006  0.5548100000000001  0.29328  1.0000
  O   O13       1.0  0.8852699999999999  0.3688200000000001  0.5103399999999999  1.0000
  O   O14       1.0  0.5965  0.55581  0.4572  1.0000
  O   O15       1.0  0.21796000000000013  0.6632200000000003  0.29329999999999995  1.0000
  O   O16       1.0  0.48498  0.11447  0.51037  1.0000
  O   O17       1.0  0.9590799999999999  0.40345  0.45705  1.0000
  O   O18       1.0  0.44526  0.78209  0.29332  1.0000
  O   O19       1.0  0.88663  0.51619  0.99041  1.0000
  O   O20       1.0  0.5955499999999998  0.04036  0.04373  1.0000
  O   O21       1.0  0.21674999999999994  0.55367  0.20769  1.0000
  O   O22       1.0  0.4844800000000001  0.3699400000000001  0.9888099999999999  1.0000
  O   O23       1.0  0.9599299999999997  0.55598  0.04381999999999999  1.0000
  O   O24       1.0  0.4471899999999999  0.66346  0.2077  1.0000
  O   O25       1.0  0.6293  0.11398  0.99038  1.0000
  O   O26       1.0  0.44417999999999996  0.4038  0.04196  1.0000
  O   O27       1.0  0.3369899999999999  0.78349  0.20773999999999998  1.0000
  O   O28       1.0  0.11481000000000004  0.48292  0.48962999999999995  1.0000
  O   O29       1.0  0.40338000000000007  0.9591900000000001  0.5429199999999998  1.0000
  O   O30       1.0  0.7820399999999997  0.44514000000000004  0.7066  1.0000
  O   O31       1.0  0.51521  0.62972  0.48962999999999995  1.0000
  O   O32       1.0  0.04107000000000004  0.44440000000000013  0.54296  1.0000
  O   O33       1.0  0.55478  0.33664  0.70666  1.0000
  O   O34       1.0  0.3695099999999999  0.88562  0.48961999999999994  1.0000
  O   O35       1.0  0.55503  0.59591  0.54288  1.0000
  O   O36       1.0  0.6636799999999998  0.2186  0.70673  1.0000
  O   O37       1.0  0.6312099999999999  0.5186400000000001  0.9895599999999999  1.0000
  O   O38       1.0  0.44459999999999994  0.04169000000000001  0.04551  1.0000
  O   O39       1.0  0.3425999999999999  0.53996  0.21513999999999997  1.0000
  O   O40       1.0  0.8886599999999999  0.36961  0.99075  1.0000
  O   O41       1.0  0.59601  0.55372  0.04395  1.0000
  O   O42       1.0  0.19751999999999995  0.65779  0.21519  1.0000
  O   O43       1.0  0.48024999999999995  0.11075000000000003  0.9906499999999999  1.0000
  O   O44       1.0  0.9580099999999999  0.4034  0.04548  1.0000
  O   O45       1.0  0.4607  0.8030000000000003  0.21513999999999997  1.0000
  O   O46       1.0  0.36963  0.4811500000000001  0.49079  1.0000
  O   O47       1.0  0.55544  0.95843  0.54486  1.0000
  O   O48       1.0  0.65803  0.46051  0.71442  1.0000
  O   O49       1.0  0.11433999999999997  0.62955  0.48967000000000005  1.0000
  O   O50       1.0  0.40357  0.44413000000000014  0.54488  1.0000
  O   O51       1.0  0.8035  0.34258  0.71452  1.0000
  O   O52       1.0  0.51851  0.8881  0.49056  1.0000
  O   O53       1.0  0.04045999999999999  0.59576  0.54298  1.0000
  O   O54       1.0  0.5395500000000001  0.19745000000000004  0.71452  1.0000
  O   O55       1.0  0.11016000000000002  0.47886  0.00936  1.0000
  O   O56       1.0  0.40315999999999996  0.95876  0.9545299999999999  1.0000
  O   O57       1.0  0.8030499999999999  0.46046  0.78475  1.0000
  O   O58       1.0  0.52003  0.63079  0.00942  1.0000
  O   O59       1.0  0.04113000000000001  0.44431  0.95452  1.0000
  O   O60       1.0  0.53944  0.3422500000000001  0.78476  1.0000
  O   O61       1.0  0.3691900000000001  0.8892200000000001  0.00925  1.0000
  O   O62       1.0  0.5554599999999998  0.59718  0.9545499999999999  1.0000
  O   O63       1.0  0.6578200000000001  0.19772000000000003  0.78481  1.0000
  O   O64       1.0  0.8856  0.51539  0.51031  1.0000
  O   O65       1.0  0.59648  0.041  0.45548  1.0000
  O   O66       1.0  0.19726000000000007  0.5393600000000002  0.2856  1.0000
  O   O67       1.0  0.4812699999999999  0.36944  0.50967  1.0000
  O   O68       1.0  0.9594899999999998  0.5553500000000001  0.45700999999999997  1.0000
  O   O69       1.0  0.46072  0.65823  0.28564  1.0000
  O   O70       1.0  0.63103  0.11114  0.50999  1.0000
  O   O71       1.0  0.44439  0.40304000000000006  0.4553499999999999  1.0000
  O   O72       1.0  0.34208000000000005  0.8028000000000001  0.28562  1.0000
  O   O73       1.0  0.6940499999999998  0.84957  0.61789  1.0000
  O   O74       1.0  0.15559999999999993  0.3051  0.61835  1.0000
  O   O75       1.0  0.15678999999999993  0.85084  0.6175  1.0000
  O   O76       1.0  0.30675999999999987  0.15161  0.11835999999999999  1.0000
  O   O77       1.0  0.85113  0.69323  0.11838  1.0000
  O   O78       1.0  0.8495499999999999  0.15583  0.11853999999999999  1.0000
  O   O79       1.0  0.84388  0.14977000000000004  0.38174  1.0000
  O   O80       1.0  0.8430899999999999  0.6941  0.38246  1.0000
  O   O81       1.0  0.30608000000000013  0.15575000000000006  0.38222  1.0000
  O   O82       1.0  0.1555599999999999  0.84932  0.88143  1.0000
  O   O83       1.0  0.15043  0.30601  0.8813  1.0000
  O   O84       1.0  0.69361  0.84433  0.88134  1.0000
  O   O85       1.0  0.66662  0.33318  0.75019  1.0000
  O   O86       1.0  0.33347999999999994  0.66678  0.24984999999999996  1.0000
