data_image0
_chemical_formula_structural       Zn16H152C264O56
_chemical_formula_sum              "Zn16 H152 C264 O56"
_cell_length_a       21.78892
_cell_length_b       22.54282
_cell_length_c       24.935010000000002
_cell_angle_alpha    109.59865
_cell_angle_beta     111.55882999999999
_cell_angle_gamma    104.18542000000001

_symmetry_space_group_name_H-M    'P 1'
_symmetry_Int_Tables_number       1

loop_
  _symmetry_equiv_pos_as_xyz
  'x,y,z'

loop_
  _atom_site_type_symbol
  _atom_site_label
  _atom_site_symmetry_multiplicity
  _atom_site_fract_x
  _atom_site_fract_y
  _atom_site_fract_z
  _atom_site_occupancy
  Zn  Zn1       1.0  0.9938299999999999  0.55952  0.12434  1.0000
  Zn  Zn2       1.0  0.07549  0.50566  0.03718  1.0000
  Zn  Zn3       1.0  0.4235699999999999  0.49405999999999994  0.4755499999999999  1.0000
  Zn  Zn4       1.0  0.39683  0.36538999999999994  0.36205  1.0000
  Zn  Zn5       1.0  0.43008999999999986  0.009349999999999976  0.9685299999999999  1.0000
  Zn  Zn6       1.0  0.44163  0.9289099999999999  0.05820999999999999  1.0000
  Zn  Zn7       1.0  0.14482  0.04447000000000001  0.51569  1.0000
  Zn  Zn8       1.0  0.9696899999999999  0.0058299999999999914  0.43672  1.0000
  Zn  Zn9       1.0  0.006179999999999996  0.44049  0.87567  1.0000
  Zn  Zn10      1.0  0.92452  0.49433999999999995  0.96283  1.0000
  Zn  Zn11      1.0  0.5764299999999999  0.50595  0.52445  1.0000
  Zn  Zn12      1.0  0.60317  0.63461  0.63795  1.0000
  Zn  Zn13      1.0  0.56991  0.99065  0.03147  1.0000
  Zn  Zn14      1.0  0.55837  0.07109999999999995  0.9418  1.0000
  Zn  Zn15      1.0  0.8551799999999997  0.95554  0.4843199999999999  1.0000
  Zn  Zn16      1.0  0.030309999999999913  0.9941799999999998  0.56328  1.0000
  H   H1        1.0  0.13961  0.68305  0.34862  1.0000
  H   H2        1.0  0.22803999999999996  0.77686  0.46345  1.0000
  H   H3        1.0  0.31252  0.75241  0.54254  1.0000
  H   H4        1.0  0.31092000000000003  0.6341399999999999  0.50759  1.0000
  H   H5        1.0  0.08539999999999998  0.55337  0.2639  1.0000
  H   H6        1.0  0.25105999999999995  0.50751  0.41541999999999996  1.0000
  H   H7        1.0  0.9722  0.46295  0.25103  1.0000
  H   H8        1.0  0.9261699999999998  0.37772999999999995  0.28489  1.0000
  H   H9        1.0  0.012670000000000006  0.3538  0.36372  1.0000
  H   H10       1.0  0.14649  0.41586  0.40980999999999995  1.0000
  H   H11       1.0  0.29744  0.4364799999999999  0.23153  1.0000
  H   H12       1.0  0.20795999999999998  0.45512999999999987  0.14980999999999997  1.0000
  H   H13       1.0  0.40135999999999994  0.53356  0.66352  1.0000
  H   H14       1.0  0.34663000000000005  0.5665000000000001  0.7346  1.0000
  H   H15       1.0  0.29193  0.48364  0.76626  1.0000
  H   H16       1.0  0.29008999999999996  0.36517  0.72618  1.0000
  H   H17       1.0  0.43266999999999994  0.43896999999999997  0.5996  1.0000
  H   H18       1.0  0.32618  0.27811  0.65929  1.0000
  H   H19       1.0  0.45097  0.27538  0.72308  1.0000
  H   H20       1.0  0.58214  0.31551  0.75546  1.0000
  H   H21       1.0  0.63683  0.3967  0.72142  1.0000
  H   H22       1.0  0.56061  0.43892  0.65541  1.0000
  H   H23       1.0  0.2027  0.14755  0.42095  1.0000
  H   H24       1.0  0.2598  0.22990999999999998  0.38907  1.0000
  H   H25       1.0  0.54239  0.21952999999999998  0.42551  1.0000
  H   H26       1.0  0.52511  0.11065  0.43499  1.0000
  H   H27       1.0  0.51849  0.007669999999999994  0.3504  1.0000
  H   H28       1.0  0.5266699999999999  0.011609999999999959  0.25478999999999996  1.0000
  H   H29       1.0  0.56207  0.285  0.35998  1.0000
  H   H30       1.0  0.5436399999999999  0.08498999999999998  0.19551999999999997  1.0000
  H   H31       1.0  0.69481  0.35846999999999996  0.38975999999999994  1.0000
  H   H32       1.0  0.7979499999999999  0.36155999999999994  0.36794999999999994  1.0000
  H   H33       1.0  0.78621  0.25854  0.27992  1.0000
  H   H34       1.0  0.67177  0.1489  0.21513  1.0000
  H   H35       1.0  0.34925  0.13998  0.07383  1.0000
  H   H36       1.0  0.35162  0.23580999999999996  0.16233  1.0000
  H   H37       1.0  0.46661000000000014  0.62658  0.94711  1.0000
  H   H38       1.0  0.4863700000000001  0.5253400000000001  0.95724  1.0000
  H   H39       1.0  0.38712  0.42937  0.94399  1.0000
  H   H40       1.0  0.26571999999999996  0.4311  0.9163399999999999  1.0000
  H   H41       1.0  0.37603999999999993  0.6846199999999999  0.9226199999999999  1.0000
  H   H42       1.0  0.18319999999999992  0.4945899999999999  0.8892099999999998  1.0000
  H   H43       1.0  0.10572999999999996  0.46045999999999987  0.7666999999999999  1.0000
  H   H44       1.0  0.09674000000000006  0.48506999999999995  0.67422  1.0000
  H   H45       1.0  0.19689999999999994  0.5839  0.69197  1.0000
  H   H46       1.0  0.30637999999999993  0.6600299999999999  0.8019499999999999  1.0000
  H   H47       1.0  0.21675  0.69206  0.07459  1.0000
  H   H48       1.0  0.30546999999999996  0.79329  0.08279  1.0000
  H   H49       1.0  0.29562  0.24673  0.72616  1.0000
  H   H50       1.0  0.36113999999999996  0.3569499999999998  0.8321399999999999  1.0000
  H   H51       1.0  0.46201000000000003  0.36866  0.92968  1.0000
  H   H52       1.0  0.4965  0.2702899999999998  0.9240099999999999  1.0000
  H   H53       1.0  0.28929  0.12721000000000002  0.66164  1.0000
  H   H54       1.0  0.4754  0.14492999999999998  0.85108  1.0000
  H   H55       1.0  0.36581  0.12001  0.60239  1.0000
  H   H56       1.0  0.4843299999999998  0.12484999999999996  0.6093  1.0000
  H   H57       1.0  0.5811099999999999  0.13444  0.70794  1.0000
  H   H58       1.0  0.56081  0.13970999999999992  0.80159  1.0000
  H   H59       1.0  0.26108  0.94035  0.78366  1.0000
  H   H60       1.0  0.16474999999999992  0.92967  0.68331  1.0000
  H   H61       1.0  0.77378  0.68911  0.06144  1.0000
  H   H62       1.0  0.67489  0.72116  0.07135  1.0000
  H   H63       1.0  0.7051299999999998  0.8347799999999999  0.15843  1.0000
  H   H64       1.0  0.8348799999999998  0.9189699999999998  0.23755  1.0000
  H   H65       1.0  0.9137799999999999  0.72523  0.10784999999999999  1.0000
  H   H66       1.0  0.9710100000000003  0.94482  0.27572  1.0000
  H   H67       1.0  0.04635999999999999  0.012350000000000017  0.23801  1.0000
  H   H68       1.0  0.09092  0.006540000000000002  0.15816  1.0000
  H   H69       1.0  0.058449999999999974  0.8927099999999999  0.06922  1.0000
  H   H70       1.0  0.9820499999999998  0.7828399999999998  0.0597  1.0000
  H   H71       1.0  0.08457  0.83446  0.39755  1.0000
  H   H72       1.0  0.058830000000000014  0.72203  0.30952  1.0000
  H   H73       1.0  0.50016  0.4784999999999999  0.41300999999999993  1.0000
  H   H74       1.0  0.56423  0.11395  0.04844  1.0000
  H   H75       1.0  0.07556  0.11032  0.55341  1.0000
  H   H76       1.0  0.0321  0.60959  0.05939  1.0000
  H   H77       1.0  0.86039  0.3169599999999999  0.6513799999999998  1.0000
  H   H78       1.0  0.77196  0.22314999999999996  0.53655  1.0000
  H   H79       1.0  0.68748  0.24759999999999993  0.4574599999999999  1.0000
  H   H80       1.0  0.6890799999999998  0.36587  0.49240999999999996  1.0000
  H   H81       1.0  0.9145999999999997  0.44663999999999987  0.7361  1.0000
  H   H82       1.0  0.7489399999999999  0.49249  0.58459  1.0000
  H   H83       1.0  0.027809999999999974  0.53706  0.74897  1.0000
  H   H84       1.0  0.07382999999999999  0.62228  0.71511  1.0000
  H   H85       1.0  0.9873299999999999  0.6462099999999998  0.63628  1.0000
  H   H86       1.0  0.8535100000000003  0.58415  0.5902  1.0000
  H   H87       1.0  0.70256  0.56352  0.76848  1.0000
  H   H88       1.0  0.79205  0.54487  0.85019  1.0000
  H   H89       1.0  0.59864  0.46644  0.33649  1.0000
  H   H90       1.0  0.6533799999999998  0.4335  0.26541  1.0000
  H   H91       1.0  0.70808  0.51637  0.23375  1.0000
  H   H92       1.0  0.7099099999999999  0.63483  0.27382999999999996  1.0000
  H   H93       1.0  0.56733  0.56104  0.40041  1.0000
  H   H94       1.0  0.67382  0.7219  0.34070999999999996  1.0000
  H   H95       1.0  0.54903  0.72463  0.27692  1.0000
  H   H96       1.0  0.41786  0.68449  0.24455  1.0000
  H   H97       1.0  0.36317  0.60331  0.27858  1.0000
  H   H98       1.0  0.43939  0.56109  0.34459  1.0000
  H   H99       1.0  0.7973  0.8524599999999999  0.57906  1.0000
  H   H100      1.0  0.7402  0.7701  0.61093  1.0000
  H   H101      1.0  0.45761  0.7804799999999998  0.57449  1.0000
  H   H102      1.0  0.4748899999999999  0.8893499999999999  0.56502  1.0000
  H   H103      1.0  0.48151999999999995  0.99233  0.64961  1.0000
  H   H104      1.0  0.47332999999999986  0.9884  0.74521  1.0000
  H   H105      1.0  0.43794  0.71501  0.64002  1.0000
  H   H106      1.0  0.45636  0.91502  0.80449  1.0000
  H   H107      1.0  0.30519  0.64153  0.61024  1.0000
  H   H108      1.0  0.20204999999999998  0.63845  0.6320599999999998  1.0000
  H   H109      1.0  0.21378999999999992  0.7414699999999999  0.72008  1.0000
  H   H110      1.0  0.32824000000000003  0.8511  0.7848799999999999  1.0000
  H   H111      1.0  0.65075  0.8600299999999999  0.92618  1.0000
  H   H112      1.0  0.6483799999999998  0.76419  0.8376699999999999  1.0000
  H   H113      1.0  0.53339  0.37343  0.0529  1.0000
  H   H114      1.0  0.51363  0.47467  0.04276  1.0000
  H   H115      1.0  0.61289  0.57064  0.05601  1.0000
  H   H116      1.0  0.73428  0.5689  0.08366  1.0000
  H   H117      1.0  0.62397  0.31539  0.07739  1.0000
  H   H118      1.0  0.8167999999999999  0.50542  0.1108  1.0000
  H   H119      1.0  0.89427  0.5395499999999999  0.2333  1.0000
  H   H120      1.0  0.90326  0.51494  0.32578  1.0000
  H   H121      1.0  0.8031  0.41611  0.30803  1.0000
  H   H122      1.0  0.69362  0.33998  0.19804999999999998  1.0000
  H   H123      1.0  0.7832499999999999  0.30794000000000005  0.92542  1.0000
  H   H124      1.0  0.6945299999999998  0.20671999999999985  0.91722  1.0000
  H   H125      1.0  0.7043899999999998  0.7532799999999998  0.27385  1.0000
  H   H126      1.0  0.63886  0.64305  0.16785999999999998  1.0000
  H   H127      1.0  0.538  0.63135  0.07033  1.0000
  H   H128      1.0  0.50351  0.72972  0.07599  1.0000
  H   H129      1.0  0.71071  0.8728  0.33837  1.0000
  H   H130      1.0  0.52461  0.85508  0.14892  1.0000
  H   H131      1.0  0.6342  0.87999  0.39761  1.0000
  H   H132      1.0  0.51568  0.87516  0.39071  1.0000
  H   H133      1.0  0.4189  0.86557  0.29207  1.0000
  H   H134      1.0  0.43919  0.8603  0.19840999999999998  1.0000
  H   H135      1.0  0.73892  0.05964999999999996  0.21633999999999998  1.0000
  H   H136      1.0  0.83526  0.07032999999999998  0.31669  1.0000
  H   H137      1.0  0.22621999999999995  0.3108899999999999  0.93856  1.0000
  H   H138      1.0  0.32510999999999984  0.27883999999999987  0.92865  1.0000
  H   H139      1.0  0.29486999999999985  0.16522999999999993  0.8415699999999999  1.0000
  H   H140      1.0  0.16512000000000004  0.08104000000000007  0.76245  1.0000
  H   H141      1.0  0.08621999999999999  0.27476999999999996  0.89215  1.0000
  H   H142      1.0  0.028990000000000026  0.055190000000000024  0.72428  1.0000
  H   H143      1.0  0.9536499999999998  0.9876599999999998  0.7619999999999999  1.0000
  H   H144      1.0  0.90909  0.9934599999999999  0.8418399999999999  1.0000
  H   H145      1.0  0.9415499999999999  0.10729000000000001  0.93078  1.0000
  H   H146      1.0  0.01794999999999994  0.21716999999999995  0.94031  1.0000
  H   H147      1.0  0.91543  0.16555  0.60246  1.0000
  H   H148      1.0  0.94117  0.2779799999999999  0.69048  1.0000
  H   H149      1.0  0.49984  0.5215  0.587  1.0000
  H   H150      1.0  0.4357699999999999  0.88605  0.9515699999999999  1.0000
  H   H151      1.0  0.92444  0.88969  0.44659  1.0000
  H   H152      1.0  0.9679  0.39041  0.94061  1.0000
  C   C1        1.0  0.1770599999999999  0.6727199999999998  0.38352  1.0000
  C   C2        1.0  0.22671999999999992  0.72514  0.44792  1.0000
  C   C3        1.0  0.2745199999999999  0.71151  0.49263  1.0000
  C   C4        1.0  0.2737299999999999  0.6452  0.47323999999999994  1.0000
  C   C5        1.0  0.22405999999999995  0.59321  0.40942999999999996  1.0000
  C   C6        1.0  0.17566999999999988  0.6065799999999999  0.36462999999999995  1.0000
  C   C7        1.0  0.12296999999999997  0.5424699999999999  0.29816  1.0000
  C   C8        1.0  0.21320999999999993  0.5178599999999999  0.38069  1.0000
  C   C9        1.0  0.08488999999999997  0.48769  0.31212  1.0000
  C   C10       1.0  0.010189999999999973  0.45274999999999993  0.28563  1.0000
  C   C11       1.0  0.98447  0.40452  0.30477  1.0000
  C   C12       1.0  0.03312999999999998  0.39126  0.34918  1.0000
  C   C13       1.0  0.1084  0.42608  0.3753  1.0000
  C   C14       1.0  0.13374  0.47431  0.35662  1.0000
  C   C15       1.0  0.16926  0.51369  0.27294  1.0000
  C   C16       1.0  0.21998  0.5026  0.31915  1.0000
  C   C17       1.0  0.26699  0.47613  0.30476  1.0000
  C   C18       1.0  0.26160999999999995  0.45805999999999997  0.24277999999999997  1.0000
  C   C19       1.0  0.21163  0.4681499999999999  0.19727  1.0000
  C   C20       1.0  0.16440999999999995  0.49575999999999987  0.21121999999999996  1.0000
  C   C21       1.0  0.11111999999999998  0.50282  0.15801  1.0000
  C   C22       1.0  0.32325  0.4654499999999999  0.35195  1.0000
  C   C23       1.0  0.37581  0.43064  0.65493  1.0000
  C   C24       1.0  0.37678  0.4966299999999999  0.67682  1.0000
  C   C25       1.0  0.3462399999999999  0.51519  0.71705  1.0000
  C   C26       1.0  0.31517  0.46833  0.73484  1.0000
  C   C27       1.0  0.3141599999999999  0.4018999999999999  0.7125099999999999  1.0000
  C   C28       1.0  0.34463999999999984  0.3834899999999999  0.6726899999999999  1.0000
  C   C29       1.0  0.40871  0.40204  0.61327  1.0000
  C   C30       1.0  0.35100000000000003  0.31503  0.64605  1.0000
  C   C31       1.0  0.4633599999999999  0.3811599999999999  0.6526999999999998  1.0000
  C   C32       1.0  0.43226  0.33451  0.671  1.0000
  C   C33       1.0  0.4747  0.31095  0.70824  1.0000
  C   C34       1.0  0.5487400000000001  0.3338  0.72644  1.0000
  C   C35       1.0  0.57951  0.37947  0.70747  1.0000
  C   C36       1.0  0.53666  0.4034499999999999  0.6703  1.0000
  C   C37       1.0  0.34833999999999987  0.3337499999999999  0.5538999999999998  1.0000
  C   C38       1.0  0.31665  0.28653  0.57193  1.0000
  C   C39       1.0  0.26285  0.21977  0.52379  1.0000
  C   C40       1.0  0.24305  0.1999  0.45764999999999995  1.0000
  C   C41       1.0  0.27484000000000003  0.2455  0.43996  1.0000
  C   C42       1.0  0.3273400000000001  0.31339  0.48776  1.0000
  C   C43       1.0  0.35826  0.35891  0.46415  1.0000
  C   C44       1.0  0.22403  0.16698  0.5376  1.0000
  C   C45       1.0  0.54506  0.17661  0.33536  1.0000
  C   C46       1.0  0.5389399999999999  0.17422  0.38833999999999996  1.0000
  C   C47       1.0  0.52923  0.11286999999999997  0.39348  1.0000
  C   C48       1.0  0.5253  0.05491  0.34589  1.0000
  C   C49       1.0  0.53015  0.05701  0.29192  1.0000
  C   C50       1.0  0.53994  0.11802  0.28701  1.0000
  C   C51       1.0  0.55821  0.23912  0.32284  1.0000
  C   C52       1.0  0.5478  0.13063999999999998  0.23292999999999997  1.0000
  C   C53       1.0  0.62626  0.2517  0.31562  1.0000
  C   C54       1.0  0.68978  0.3127799999999999  0.35178999999999994  1.0000
  C   C55       1.0  0.74757  0.3145299999999999  0.33893999999999996  1.0000
  C   C56       1.0  0.7412200000000002  0.25626  0.28974  1.0000
  C   C57       1.0  0.6771100000000001  0.19482999999999998  0.25319  1.0000
  C   C58       1.0  0.62031  0.19295  0.26678  1.0000
  C   C59       1.0  0.49555  0.21447999999999998  0.25494  1.0000
  C   C60       1.0  0.48977  0.15556999999999999  0.20587999999999998  1.0000
  C   C61       1.0  0.43667  0.1284  0.14036  1.0000
  C   C62       1.0  0.3891  0.16013  0.12473  1.0000
  C   C63       1.0  0.39133  0.21437999999999996  0.17386999999999997  1.0000
  C   C64       1.0  0.44484  0.24259  0.2397  1.0000
  C   C65       1.0  0.44308999999999993  0.29888  0.29157  1.0000
  C   C66       1.0  0.42852  0.06667  0.08697  1.0000
  C   C67       1.0  0.35528999999999994  0.58538  0.9261699999999999  1.0000
  C   C68       1.0  0.4230700000000001  0.5843  0.94099  1.0000
  C   C69       1.0  0.43414  0.5275  0.94701  1.0000
  C   C70       1.0  0.37820999999999977  0.4731699999999999  0.93911  1.0000
  C   C71       1.0  0.30977999999999994  0.47392999999999996  0.9236599999999999  1.0000
  C   C72       1.0  0.29874  0.52982  0.91672  1.0000
  C   C73       1.0  0.33224000000000004  0.64096  0.91478  1.0000
  C   C74       1.0  0.22742  0.53774  0.8968  1.0000
  C   C75       1.0  0.26769999999999994  0.6021799999999999  0.8453799999999999  1.0000
  C   C76       1.0  0.21116999999999994  0.5462899999999999  0.83551  1.0000
  C   C77       1.0  0.14936  0.50388  0.77423  1.0000
  C   C78       1.0  0.14459  0.5178  0.72239  1.0000
  C   C79       1.0  0.20066999999999996  0.57363  0.73239  1.0000
  C   C80       1.0  0.26269  0.61654  0.7942  1.0000
  C   C81       1.0  0.31997  0.7317199999999999  0.00544  1.0000
  C   C82       1.0  0.30109999999999976  0.6639099999999999  0.9599499999999999  1.0000
  C   C83       1.0  0.24536000000000013  0.60747  0.95079  1.0000
  C   C84       1.0  0.21411999999999995  0.61794  0.99112  1.0000
  C   C85       1.0  0.23934  0.68482  0.04183  1.0000
  C   C86       1.0  0.28957  0.74078  0.04717  1.0000
  C   C87       1.0  0.36723  0.7962699999999999  0.01044  1.0000
  C   C88       1.0  0.15161999999999995  0.56187  0.98061  1.0000
  C   C89       1.0  0.36060999999999993  0.19829999999999998  0.76617  1.0000
  C   C90       1.0  0.33947  0.25234  0.76946  1.0000
  C   C91       1.0  0.3761599999999997  0.31377999999999984  0.8289499999999997  1.0000
  C   C92       1.0  0.4324699999999998  0.32023  0.88405  1.0000
  C   C93       1.0  0.45241  0.26503  0.88107  1.0000
  C   C94       1.0  0.41594999999999993  0.20412999999999987  0.8217699999999999  1.0000
  C   C95       1.0  0.33126  0.13044  0.70466  1.0000
  C   C96       1.0  0.4325299999999999  0.14036999999999988  0.8077999999999999  1.0000
  C   C97       1.0  0.39763  0.12753999999999996  0.69809  1.0000
  C   C98       1.0  0.40820999999999996  0.12383999999999994  0.6454899999999999  1.0000
  C   C99       1.0  0.47492  0.12656  0.6496  1.0000
  C   C100      1.0  0.5295699999999998  0.13221999999999995  0.7053099999999999  1.0000
  C   C101      1.0  0.51847  0.13517  0.75799  1.0000
  C   C102      1.0  0.45241  0.13299999999999998  0.75394  1.0000
  C   C103      1.0  0.30537  0.07209999999999998  0.72023  1.0000
  C   C104      1.0  0.36028999999999994  0.07768999999999997  0.77675  1.0000
  C   C105      1.0  0.34409  0.02890999999999999  0.79863  1.0000
  C   C106      1.0  0.27278  0.97656  0.7652  1.0000
  C   C107      1.0  0.21926999999999994  0.97089  0.70974  1.0000
  C   C108      1.0  0.23533  0.017859999999999994  0.68597  1.0000
  C   C109      1.0  0.17649999999999996  0.008319999999999992  0.62496  1.0000
  C   C110      1.0  0.3992699999999999  0.02891999999999998  0.85572  1.0000
  C   C111      1.0  0.85934  0.78599  0.14432  1.0000
  C   C112      1.0  0.78701  0.73906  0.09991999999999998  1.0000
  C   C113      1.0  0.73161  0.7572899999999999  0.1053  1.0000
  C   C114      1.0  0.7486299999999999  0.82162  0.15451999999999996  1.0000
  C   C115      1.0  0.82138  0.86881  0.19917  1.0000
  C   C116      1.0  0.8762499999999999  0.85059  0.19357  1.0000
  C   C117      1.0  0.92644  0.77538  0.14593  1.0000
  C   C118      1.0  0.95791  0.8947199999999998  0.23744  1.0000
  C   C119      1.0  0.9714899999999999  0.83659  0.14305  1.0000
  C   C120      1.0  0.9891  0.901  0.19293  1.0000
  C   C121      1.0  0.03207000000000002  0.96244  0.19885999999999998  1.0000
  C   C122      1.0  0.057020000000000036  0.95901  0.1539  1.0000
  C   C123      1.0  0.03887  0.89479  0.10384  1.0000
  C   C124      1.0  0.9959700000000001  0.83301  0.09823  1.0000
  C   C125      1.0  0.97227  0.78583  0.21462999999999996  1.0000
  C   C126      1.0  0.9872099999999999  0.84984  0.26444  1.0000
  C   C127      1.0  0.026620000000000043  0.86677  0.33044  1.0000
  C   C128      1.0  0.05338999999999991  0.8204299999999998  0.34632  1.0000
  C   C129      1.0  0.03910000000000001  0.75819  0.29753  1.0000
  C   C130      1.0  0.99849  0.7397899999999997  0.23089  1.0000
  C   C131      1.0  0.9892199999999999  0.6731300000000001  0.1819  1.0000
  C   C132      1.0  0.03889  0.92941  0.38569  1.0000
  C   C133      1.0  0.82295  0.32729  0.61649  1.0000
  C   C134      1.0  0.77328  0.27487  0.55208  1.0000
  C   C135      1.0  0.72548  0.28848999999999997  0.5073699999999999  1.0000
  C   C136      1.0  0.7262700000000001  0.3548  0.52676  1.0000
  C   C137      1.0  0.77594  0.40678999999999993  0.59057  1.0000
  C   C138      1.0  0.82433  0.39343  0.63537  1.0000
  C   C139      1.0  0.87703  0.45753999999999984  0.7018499999999999  1.0000
  C   C140      1.0  0.7867999999999998  0.48213999999999996  0.6193199999999999  1.0000
  C   C141      1.0  0.91511  0.51232  0.68788  1.0000
  C   C142      1.0  0.98981  0.54725  0.71438  1.0000
  C   C143      1.0  0.015529999999999976  0.59548  0.69524  1.0000
  C   C144      1.0  0.96687  0.60874  0.65083  1.0000
  C   C145      1.0  0.8916  0.5739299999999999  0.6247  1.0000
  C   C146      1.0  0.86626  0.5257  0.64338  1.0000
  C   C147      1.0  0.8307399999999999  0.48632  0.72706  1.0000
  C   C148      1.0  0.78002  0.4974  0.68085  1.0000
  C   C149      1.0  0.73301  0.52388  0.69524  1.0000
  C   C150      1.0  0.7383899999999999  0.5419499999999999  0.7572199999999999  1.0000
  C   C151      1.0  0.78837  0.53185  0.80273  1.0000
  C   C152      1.0  0.83559  0.50424  0.78878  1.0000
  C   C153      1.0  0.88889  0.4971899999999999  0.8419999999999999  1.0000
  C   C154      1.0  0.67676  0.5345499999999999  0.6480499999999999  1.0000
  C   C155      1.0  0.6241899999999999  0.56937  0.34507  1.0000
  C   C156      1.0  0.6232199999999999  0.50338  0.32319  1.0000
  C   C157      1.0  0.65376  0.4848199999999999  0.28295  1.0000
  C   C158      1.0  0.6848300000000002  0.53168  0.26516  1.0000
  C   C159      1.0  0.68584  0.5981000000000001  0.28749  1.0000
  C   C160      1.0  0.6553599999999999  0.6165199999999998  0.32731  1.0000
  C   C161      1.0  0.5912999999999999  0.59796  0.38673  1.0000
  C   C162      1.0  0.649  0.68498  0.35396  1.0000
  C   C163      1.0  0.53664  0.61885  0.3473  1.0000
  C   C164      1.0  0.56774  0.6655  0.329  1.0000
  C   C165      1.0  0.5253  0.68906  0.29177  1.0000
  C   C166      1.0  0.45126  0.66621  0.27356  1.0000
  C   C167      1.0  0.4205  0.6205400000000001  0.29254  1.0000
  C   C168      1.0  0.4633399999999999  0.59655  0.32971  1.0000
  C   C169      1.0  0.6516599999999999  0.6662599999999999  0.44611  1.0000
  C   C170      1.0  0.6833499999999999  0.71348  0.42807  1.0000
  C   C171      1.0  0.73715  0.78023  0.47620999999999997  1.0000
  C   C172      1.0  0.7569499999999999  0.8001099999999999  0.54235  1.0000
  C   C173      1.0  0.72516  0.7545099999999999  0.56004  1.0000
  C   C174      1.0  0.67266  0.68661  0.51224  1.0000
  C   C175      1.0  0.6417399999999999  0.6411  0.53585  1.0000
  C   C176      1.0  0.77597  0.83302  0.4623999999999999  1.0000
  C   C177      1.0  0.45494  0.8233999999999999  0.66465  1.0000
  C   C178      1.0  0.46105999999999997  0.82579  0.61166  1.0000
  C   C179      1.0  0.47077  0.8871299999999999  0.60653  1.0000
  C   C180      1.0  0.4747  0.9451  0.65412  1.0000
  C   C181      1.0  0.46985  0.9429999999999998  0.70808  1.0000
  C   C182      1.0  0.46007  0.8819899999999999  0.7129899999999999  1.0000
  C   C183      1.0  0.4418  0.76089  0.67717  1.0000
  C   C184      1.0  0.4522  0.86936  0.76707  1.0000
  C   C185      1.0  0.37374999999999997  0.7483099999999999  0.68438  1.0000
  C   C186      1.0  0.3102199999999999  0.68723  0.64821  1.0000
  C   C187      1.0  0.25243  0.68548  0.66106  1.0000
  C   C188      1.0  0.25877999999999995  0.7437399999999998  0.71026  1.0000
  C   C189      1.0  0.32288999999999995  0.80518  0.74681  1.0000
  C   C190      1.0  0.37969  0.80706  0.73323  1.0000
  C   C191      1.0  0.5044499999999998  0.7855199999999999  0.74507  1.0000
  C   C192      1.0  0.5102299999999999  0.8444399999999997  0.79412  1.0000
  C   C193      1.0  0.5633399999999998  0.8716099999999998  0.8596399999999998  1.0000
  C   C194      1.0  0.6109  0.83988  0.8752699999999999  1.0000
  C   C195      1.0  0.6086699999999998  0.7856199999999998  0.8261299999999999  1.0000
  C   C196      1.0  0.5551599999999999  0.7574099999999999  0.76031  1.0000
  C   C197      1.0  0.5569199999999999  0.7011199999999999  0.70843  1.0000
  C   C198      1.0  0.5714799999999999  0.93334  0.91303  1.0000
  C   C199      1.0  0.6447099999999999  0.41462  0.07383999999999999  1.0000
  C   C200      1.0  0.57693  0.41571  0.05900999999999999  1.0000
  C   C201      1.0  0.56587  0.47251  0.053  1.0000
  C   C202      1.0  0.62179  0.52684  0.0609  1.0000
  C   C203      1.0  0.69022  0.52607  0.07634999999999999  1.0000
  C   C204      1.0  0.70126  0.47018  0.08328  1.0000
  C   C205      1.0  0.66777  0.3590499999999999  0.08521999999999999  1.0000
  C   C206      1.0  0.7725799999999999  0.4622599999999999  0.1032  1.0000
  C   C207      1.0  0.7323099999999998  0.39782  0.15461999999999998  1.0000
  C   C208      1.0  0.78884  0.45371999999999996  0.1645  1.0000
  C   C209      1.0  0.85064  0.49612  0.22577  1.0000
  C   C210      1.0  0.8554199999999996  0.48219999999999996  0.27762  1.0000
  C   C211      1.0  0.79933  0.4263799999999999  0.26762  1.0000
  C   C212      1.0  0.7373099999999999  0.38347  0.2058  1.0000
  C   C213      1.0  0.68003  0.2682899999999999  0.9945599999999999  1.0000
  C   C214      1.0  0.6989  0.3361  0.04005  1.0000
  C   C215      1.0  0.75464  0.39253999999999994  0.04921999999999999  1.0000
  C   C216      1.0  0.78588  0.38206999999999997  0.00888  1.0000
  C   C217      1.0  0.76066  0.31518  0.95817  1.0000
  C   C218      1.0  0.71044  0.2592199999999999  0.95283  1.0000
  C   C219      1.0  0.63277  0.20373  0.98956  1.0000
  C   C220      1.0  0.84838  0.43812999999999996  0.01939  1.0000
  C   C221      1.0  0.6394  0.80171  0.23382999999999998  1.0000
  C   C222      1.0  0.6605399999999998  0.74766  0.23055  1.0000
  C   C223      1.0  0.62384  0.68623  0.17105  1.0000
  C   C224      1.0  0.5675300000000001  0.67978  0.11595  1.0000
  C   C225      1.0  0.54759  0.73498  0.11893  1.0000
  C   C226      1.0  0.58405  0.7958799999999999  0.17824  1.0000
  C   C227      1.0  0.66874  0.8695599999999999  0.29534  1.0000
  C   C228      1.0  0.56747  0.8596399999999998  0.1922  1.0000
  C   C229      1.0  0.60238  0.87247  0.30191  1.0000
  C   C230      1.0  0.5918  0.8761699999999999  0.35451  1.0000
  C   C231      1.0  0.52509  0.87344  0.35041  1.0000
  C   C232      1.0  0.47043  0.8677899999999998  0.29469  1.0000
  C   C233      1.0  0.48153999999999997  0.86484  0.24202  1.0000
  C   C234      1.0  0.5475899999999999  0.86701  0.24605999999999997  1.0000
  C   C235      1.0  0.69464  0.9279  0.27977  1.0000
  C   C236      1.0  0.6397100000000001  0.92232  0.22326  1.0000
  C   C237      1.0  0.6559199999999997  0.97109  0.20137999999999998  1.0000
  C   C238      1.0  0.7272199999999999  0.02345  0.2348  1.0000
  C   C239      1.0  0.78073  0.029119999999999993  0.29027  1.0000
  C   C240      1.0  0.7646700000000003  0.98215  0.31404  1.0000
  C   C241      1.0  0.82351  0.99168  0.37504  1.0000
  C   C242      1.0  0.60073  0.9710799999999998  0.14428  1.0000
  C   C243      1.0  0.14067  0.21400999999999995  0.85568  1.0000
  C   C244      1.0  0.21300000000000005  0.26093999999999995  0.9000799999999999  1.0000
  C   C245      1.0  0.2683900000000001  0.24271999999999996  0.89471  1.0000
  C   C246      1.0  0.2513699999999999  0.17839000000000005  0.84548  1.0000
  C   C247      1.0  0.17861999999999995  0.13118999999999995  0.8008299999999999  1.0000
  C   C248      1.0  0.12375  0.14941999999999997  0.80643  1.0000
  C   C249      1.0  0.07356000000000003  0.22463  0.85407  1.0000
  C   C250      1.0  0.042089999999999954  0.10528999999999997  0.7625599999999999  1.0000
  C   C251      1.0  0.028519999999999934  0.16341999999999995  0.8569499999999999  1.0000
  C   C252      1.0  0.010910000000000013  0.09900000000000002  0.80707  1.0000
  C   C253      1.0  0.96793  0.03757  0.80114  1.0000
  C   C254      1.0  0.9429799999999999  0.04100000000000004  0.8461  1.0000
  C   C255      1.0  0.9611299999999999  0.10521999999999992  0.89617  1.0000
  C   C256      1.0  0.0040299999999999555  0.167  0.90177  1.0000
  C   C257      1.0  0.02772999999999998  0.21417  0.78538  1.0000
  C   C258      1.0  0.012789999999999949  0.15016999999999991  0.7355599999999999  1.0000
  C   C259      1.0  0.97339  0.13323  0.66956  1.0000
  C   C260      1.0  0.94662  0.17957999999999993  0.65369  1.0000
  C   C261      1.0  0.9608999999999999  0.24182  0.70247  1.0000
  C   C262      1.0  0.0015100000000000061  0.26021  0.76911  1.0000
  C   C263      1.0  0.01077999999999994  0.3268799999999999  0.8180999999999999  1.0000
  C   C264      1.0  0.9611199999999999  0.07060000000000001  0.61431  1.0000
  O   O1        1.0  0.07255999999999997  0.5338699999999998  0.16964  1.0000
  O   O2        1.0  0.10824  0.4760499999999999  0.10191  1.0000
  O   O3        1.0  0.33638  0.41388  0.32836  1.0000
  O   O4        1.0  0.35617  0.51074  0.4133  1.0000
  O   O5        1.0  0.015210000000000015  0.56129  0.050359999999999995  1.0000
  O   O6        1.0  0.1533  0.56153  0.03258  1.0000
  O   O7        1.0  0.4855199999999999  0.4577599999999999  0.43742999999999993  1.0000
  O   O8        1.0  0.36183  0.32927  0.4125  1.0000
  O   O9        1.0  0.37809  0.42460999999999993  0.4962  1.0000
  O   O10       1.0  0.37809  0.29327  0.28081  1.0000
  O   O11       1.0  0.4996399999999999  0.34708  0.34247  1.0000
  O   O12       1.0  0.40512  0.06259  0.029659999999999995  1.0000
  O   O13       1.0  0.44531  0.02142999999999998  0.10100999999999999  1.0000
  O   O14       1.0  0.21566999999999986  0.1819499999999999  0.5868499999999999  1.0000
  O   O15       1.0  0.19705  0.10272  0.49187  1.0000
  O   O16       1.0  0.54269  0.06508  0.01603  1.0000
  O   O17       1.0  0.37499999999999994  0.9937399999999997  0.88087  1.0000
  O   O18       1.0  0.36916  0.85339  0.050019999999999995  1.0000
  O   O19       1.0  0.40111  0.79653  0.97924  1.0000
  O   O20       1.0  0.46601999999999993  0.06178000000000003  0.87553  1.0000
  O   O21       1.0  0.19501999999999992  0.029589999999999936  0.5898199999999999  1.0000
  O   O22       1.0  0.11045999999999999  0.97827  0.6121299999999998  1.0000
  O   O23       1.0  0.05839999999999999  0.060659999999999985  0.52629  1.0000
  O   O24       1.0  0.08800999999999999  0.94722  0.4430799999999999  1.0000
  O   O25       1.0  0.9972599999999999  0.9607199999999998  0.37372  1.0000
  O   O26       1.0  0.9701899999999998  0.65845  0.12295  1.0000
  O   O27       1.0  0.004719999999999978  0.63065  0.20365999999999998  1.0000
  O   O28       1.0  0.10071999999999987  0.5207799999999998  0.9221299999999998  1.0000
  O   O29       1.0  0.92744  0.46613999999999994  0.83036  1.0000
  O   O30       1.0  0.8917599999999999  0.52396  0.8981  1.0000
  O   O31       1.0  0.6636199999999999  0.58613  0.67164  1.0000
  O   O32       1.0  0.64383  0.48926  0.58671  1.0000
  O   O33       1.0  0.98479  0.43871999999999994  0.9496399999999999  1.0000
  O   O34       1.0  0.8467  0.43846999999999997  0.96742  1.0000
  O   O35       1.0  0.51448  0.54224  0.56257  1.0000
  O   O36       1.0  0.63818  0.6707399999999998  0.58751  1.0000
  O   O37       1.0  0.62191  0.5754  0.50381  1.0000
  O   O38       1.0  0.6219199999999999  0.7067299999999999  0.71919  1.0000
  O   O39       1.0  0.5003599999999998  0.65293  0.65754  1.0000
  O   O40       1.0  0.59488  0.9374199999999999  0.97035  1.0000
  O   O41       1.0  0.55469  0.9785799999999999  0.8989899999999998  1.0000
  O   O42       1.0  0.7843299999999999  0.81805  0.41315  1.0000
  O   O43       1.0  0.8029499999999999  0.8972899999999998  0.50814  1.0000
  O   O44       1.0  0.45730999999999994  0.9349299999999999  0.9839699999999999  1.0000
  O   O45       1.0  0.625  0.00626999999999999  0.11912999999999999  1.0000
  O   O46       1.0  0.63084  0.14661000000000005  0.94998  1.0000
  O   O47       1.0  0.59889  0.20347  0.020759999999999997  1.0000
  O   O48       1.0  0.53398  0.93822  0.12446999999999998  1.0000
  O   O49       1.0  0.80498  0.9704099999999998  0.41018999999999994  1.0000
  O   O50       1.0  0.88954  0.02173999999999999  0.38787  1.0000
  O   O51       1.0  0.9416  0.9393399999999998  0.47372  1.0000
  O   O52       1.0  0.91199  0.05278999999999996  0.55692  1.0000
  O   O53       1.0  0.0027400000000000015  0.03928000000000001  0.62628  1.0000
  O   O54       1.0  0.029810000000000055  0.34156000000000003  0.87705  1.0000
  O   O55       1.0  0.99528  0.36936  0.79635  1.0000
  O   O56       1.0  0.89928  0.47923  0.07788  1.0000
