data_image0
_chemical_formula_structural       Zn12H132C204N12O48
_chemical_formula_sum              "Zn12 H132 C204 N12 O48"
_cell_length_a       18.41225
_cell_length_b       18.64725
_cell_length_c       18.64605
_cell_angle_alpha    109.72149999999999
_cell_angle_beta     109.23036
_cell_angle_gamma    109.22765000000001

_symmetry_space_group_name_H-M    'P 1'
_symmetry_Int_Tables_number       1

loop_
  _symmetry_equiv_pos_as_xyz
  'x,y,z'

loop_
  _atom_site_type_symbol
  _atom_site_label
  _atom_site_symmetry_multiplicity
  _atom_site_fract_x
  _atom_site_fract_y
  _atom_site_fract_z
  _atom_site_occupancy
  Zn  Zn1       1.0  0.51291  0.57827  0.0725  1.0000
  Zn  Zn2       1.0  0.93469  0.49434  0.4217899999999999  1.0000
  Zn  Zn3       1.0  0.44045999999999996  0.9275599999999999  0.50572  1.0000
  Zn  Zn4       1.0  0.058499999999999996  0.49429  0.07266999999999998  1.0000
  Zn  Zn5       1.0  0.98579  0.92735  0.4216099999999999  1.0000
  Zn  Zn6       1.0  0.56411  0.57831  0.50568  1.0000
  Zn  Zn7       1.0  0.48707999999999985  0.4217299999999998  0.9274999999999998  1.0000
  Zn  Zn8       1.0  0.06529999999999994  0.5056499999999999  0.57821  1.0000
  Zn  Zn9       1.0  0.5595299999999997  0.07243999999999993  0.4942799999999999  1.0000
  Zn  Zn10      1.0  0.9414899999999999  0.5056999999999999  0.9273199999999998  1.0000
  Zn  Zn11      1.0  0.014199999999999975  0.07264999999999996  0.57838  1.0000
  Zn  Zn12      1.0  0.43588999999999994  0.4216799999999999  0.49431999999999987  1.0000
  H   H1        1.0  0.77794  0.65298  0.28137  1.0000
  H   H2        1.0  0.3667  0.23002000000000003  0.99935  1.0000
  H   H3        1.0  0.72996  0.016989999999999988  0.30774  1.0000
  H   H4        1.0  0.43521  0.85063  0.24969  1.0000
  H   H5        1.0  0.32973  0.68915  0.17375  1.0000
  H   H6        1.0  0.37616  0.58399  0.10669  1.0000
  H   H7        1.0  0.77019  0.90519  0.24767999999999996  1.0000
  H   H8        1.0  0.58258  0.9708799999999999  0.29902  1.0000
  H   H9        1.0  0.6631199999999999  0.7462399999999999  0.17355  1.0000
  H   H10       1.0  0.12487999999999998  0.6283899999999999  0.3473  1.0000
  H   H11       1.0  0.13674  0.76963  0.77012  1.0000
  H   H12       1.0  0.7128  0.29069  0.98294  1.0000
  H   H13       1.0  0.58449  0.3989899999999999  0.14914999999999995  1.0000
  H   H14       1.0  0.64051  0.4846099999999999  0.31069999999999987  1.0000
  H   H15       1.0  0.7921  0.52253  0.41597  1.0000
  H   H16       1.0  0.86494  0.34245999999999993  0.09484999999999998  1.0000
  H   H17       1.0  0.61158  0.32814999999999994  0.02909  1.0000
  H   H18       1.0  0.91683  0.42727  0.25386  1.0000
  H   H19       1.0  0.49629000000000006  0.71875  0.37148999999999993  1.0000
  H   H20       1.0  0.3672599999999999  0.0005799999999999764  0.23069999999999993  1.0000
  H   H21       1.0  0.4221799999999999  0.6923499999999999  0.7092799999999998  1.0000
  H   H22       1.0  0.18569999999999998  0.7503299999999999  0.60108  1.0000
  H   H23       1.0  0.1558300000000001  0.82615  0.51536  1.0000
  H   H24       1.0  0.26943999999999996  0.8933499999999999  0.47731  1.0000
  H   H25       1.0  0.52254  0.7523999999999998  0.65754  1.0000
  H   H26       1.0  0.2835  0.70113  0.67179  1.0000
  H   H27       1.0  0.4895899999999998  0.8264899999999998  0.5726299999999998  1.0000
  H   H28       1.0  0.003089999999999952  0.6283299999999999  0.28099  1.0000
  H   H29       1.0  0.13273999999999997  0.76926  0.99937  1.0000
  H   H30       1.0  0.07788999999999992  0.2907599999999999  0.3077099999999999  1.0000
  H   H31       1.0  0.31423  0.3991  0.24952  1.0000
  H   H32       1.0  0.34372  0.48464  0.17359  1.0000
  H   H33       1.0  0.23016  0.5227  0.10643  1.0000
  H   H34       1.0  0.97748  0.34248  0.24763999999999994  1.0000
  H   H35       1.0  0.21651  0.32828  0.29883  1.0000
  H   H36       1.0  0.010309999999999995  0.42735  0.17361  1.0000
  H   H37       1.0  0.72185  0.71888  0.3473199999999999  1.0000
  H   H38       1.0  0.13326999999999994  0.0007299999999999903  0.76987  1.0000
  H   H39       1.0  0.7701  0.6922  0.98294  1.0000
  H   H40       1.0  0.06485999999999997  0.75054  0.14975  1.0000
  H   H41       1.0  0.1701299999999999  0.8265799999999998  0.3112899999999999  1.0000
  H   H42       1.0  0.12352000000000006  0.89361  0.4163  1.0000
  H   H43       1.0  0.7296499999999998  0.75218  0.09459999999999998  1.0000
  H   H44       1.0  0.91753  0.70107  0.029319999999999995  1.0000
  H   H45       1.0  0.8365399999999998  0.82635  0.25358  1.0000
  H   H46       1.0  0.3745899999999999  0.65256  0.3716199999999999  1.0000
  H   H47       1.0  0.36333  0.22991999999999999  0.23054999999999995  1.0000
  H   H48       1.0  0.7872699999999999  0.017079999999999942  0.7092599999999999  1.0000
  H   H49       1.0  0.9152499999999998  0.8504699999999998  0.6008699999999998  1.0000
  H   H50       1.0  0.8589799999999999  0.6889099999999999  0.51534  1.0000
  H   H51       1.0  0.7073  0.5838  0.4774599999999999  1.0000
  H   H52       1.0  0.63508  0.9053399999999998  0.6575699999999998  1.0000
  H   H53       1.0  0.88832  0.97071  0.67174  1.0000
  H   H54       1.0  0.58302  0.74635  0.57277  1.0000
  H   H55       1.0  0.22205999999999995  0.3470199999999999  0.71863  1.0000
  H   H56       1.0  0.6333  0.76998  0.00065  1.0000
  H   H57       1.0  0.27003  0.983  0.69226  1.0000
  H   H58       1.0  0.5647799999999998  0.14935999999999985  0.7503099999999998  1.0000
  H   H59       1.0  0.6702599999999999  0.3108499999999999  0.8262399999999998  1.0000
  H   H60       1.0  0.62384  0.41601  0.89331  1.0000
  H   H61       1.0  0.2298100000000001  0.09480000000000001  0.75231  1.0000
  H   H62       1.0  0.41740999999999995  0.029109999999999987  0.70097  1.0000
  H   H63       1.0  0.33687  0.25375  0.82645  1.0000
  H   H64       1.0  0.8751099999999997  0.37161  0.6527  1.0000
  H   H65       1.0  0.86326  0.23036999999999996  0.22987999999999995  1.0000
  H   H66       1.0  0.28718999999999995  0.7092999999999998  0.01705  1.0000
  H   H67       1.0  0.4155  0.601  0.85085  1.0000
  H   H68       1.0  0.35949  0.51538  0.6893  1.0000
  H   H69       1.0  0.20789000000000002  0.47745999999999994  0.58403  1.0000
  H   H70       1.0  0.13504999999999995  0.65754  0.9051399999999997  1.0000
  H   H71       1.0  0.38841  0.67185  0.97091  1.0000
  H   H72       1.0  0.08317000000000001  0.57273  0.74614  1.0000
  H   H73       1.0  0.5037  0.28125  0.62851  1.0000
  H   H74       1.0  0.6327299999999999  0.9994200000000001  0.7692999999999999  1.0000
  H   H75       1.0  0.57782  0.30765  0.29072  1.0000
  H   H76       1.0  0.8143  0.24966999999999986  0.3989199999999999  1.0000
  H   H77       1.0  0.84416  0.17384999999999995  0.4846399999999999  1.0000
  H   H78       1.0  0.73055  0.10665  0.52268  1.0000
  H   H79       1.0  0.4774499999999999  0.24759999999999996  0.34244999999999987  1.0000
  H   H80       1.0  0.7165  0.29886  0.32821  1.0000
  H   H81       1.0  0.51041  0.17350999999999991  0.4273699999999999  1.0000
  H   H82       1.0  0.9969  0.37166  0.71901  1.0000
  H   H83       1.0  0.86726  0.23074  0.0006299999999999998  1.0000
  H   H84       1.0  0.9220999999999999  0.7092299999999999  0.6922899999999997  1.0000
  H   H85       1.0  0.6857599999999999  0.6008999999999998  0.7504799999999998  1.0000
  H   H86       1.0  0.6562699999999999  0.5153599999999997  0.8264099999999998  1.0000
  H   H87       1.0  0.76984  0.47730000000000006  0.89357  1.0000
  H   H88       1.0  0.022509999999999978  0.65751  0.75235  1.0000
  H   H89       1.0  0.78348  0.6717199999999998  0.70117  1.0000
  H   H90       1.0  0.9896799999999999  0.57265  0.82639  1.0000
  H   H91       1.0  0.27814999999999984  0.2811099999999999  0.6526799999999998  1.0000
  H   H92       1.0  0.86673  0.9992699999999999  0.23012999999999995  1.0000
  H   H93       1.0  0.22988999999999998  0.30779  0.01706  1.0000
  H   H94       1.0  0.93513  0.24946000000000002  0.85025  1.0000
  H   H95       1.0  0.82986  0.17341  0.68871  1.0000
  H   H96       1.0  0.8764800000000001  0.10637999999999996  0.5837  1.0000
  H   H97       1.0  0.27034  0.24781999999999998  0.9054  1.0000
  H   H98       1.0  0.08245999999999998  0.29893  0.97067  1.0000
  H   H99       1.0  0.16344999999999996  0.17364  0.74642  1.0000
  H   H100      1.0  0.6253999999999997  0.3474399999999999  0.6283699999999998  1.0000
  H   H101      1.0  0.63667  0.77008  0.76944  1.0000
  H   H102      1.0  0.21271999999999996  0.98292  0.2907299999999999  1.0000
  H   H103      1.0  0.08473999999999993  0.1495199999999999  0.39911999999999986  1.0000
  H   H104      1.0  0.14102  0.31109  0.48466  1.0000
  H   H105      1.0  0.2927  0.41619  0.52254  1.0000
  H   H106      1.0  0.36491000000000007  0.09464999999999997  0.34243  1.0000
  H   H107      1.0  0.11167  0.029289999999999993  0.32826  1.0000
  H   H108      1.0  0.41697  0.25364  0.42723  1.0000
  H   H109      1.0  0.76884  0.51924  0.03802  1.0000
  H   H110      1.0  0.9318300000000002  0.68181  0.3636299999999999  1.0000
  H   H111      1.0  0.24943999999999997  0.51873  0.4808  1.0000
  H   H112      1.0  0.24987999999999996  0.68179  0.31834  1.0000
  H   H113      1.0  0.7308099999999998  0.9619199999999999  0.48105  1.0000
  H   H114      1.0  0.5678699999999999  0.6364499999999998  0.31821999999999995  1.0000
  H   H115      1.0  0.23114999999999983  0.48075999999999985  0.9619799999999997  1.0000
  H   H116      1.0  0.06815999999999989  0.3181799999999999  0.6363699999999998  1.0000
  H   H117      1.0  0.75055  0.4812699999999999  0.51919  1.0000
  H   H118      1.0  0.75011  0.31821  0.68165  1.0000
  H   H119      1.0  0.26918  0.038079999999999996  0.51895  1.0000
  H   H120      1.0  0.43211999999999984  0.36353999999999986  0.6817799999999998  1.0000
  H   H121      1.0  0.48629  0.47273  0.23626999999999995  1.0000
  H   H122      1.0  0.32375  0.14749999999999996  0.07367999999999997  1.0000
  H   H123      1.0  0.013609999999999959  0.7636399999999998  0.5272  1.0000
  H   H124      1.0  0.17619999999999994  0.92648  0.8524699999999997  1.0000
  H   H125      1.0  0.24993  0.76352  0.23643999999999996  1.0000
  H   H126      1.0  0.24997  0.92617  0.07373  1.0000
  H   H127      1.0  0.5137  0.52726  0.76373  1.0000
  H   H128      1.0  0.67624  0.8525  0.9263099999999997  1.0000
  H   H129      1.0  0.98639  0.23636000000000001  0.4728  1.0000
  H   H130      1.0  0.8237999999999996  0.07350999999999998  0.14752999999999994  1.0000
  H   H131      1.0  0.75006  0.23647000000000007  0.76356  1.0000
  H   H132      1.0  0.7500199999999999  0.07382999999999992  0.92627  1.0000
  C   C1        1.0  0.66733  0.55643  0.10489999999999997  1.0000
  C   C2        1.0  0.76246  0.58127  0.15471999999999994  1.0000
  C   C3        1.0  0.8098199999999999  0.6295999999999999  0.24666999999999994  1.0000
  C   C4        1.0  0.44884  0.40889  0.0698  1.0000
  C   C5        1.0  0.42575  0.3563699999999999  0.11234999999999998  1.0000
  C   C6        1.0  0.38237  0.26444  0.06718  1.0000
  C   C7        1.0  0.6816899999999999  0.9477899999999999  0.27511  1.0000
  C   C8        1.0  0.4531299999999999  0.8026  0.22125999999999996  1.0000
  C   C9        1.0  0.39512  0.71391  0.17977  1.0000
  C   C10       1.0  0.42098  0.65449  0.14287999999999998  1.0000
  C   C11       1.0  0.70418  0.8838399999999998  0.23981999999999995  1.0000
  C   C12       1.0  0.53732  0.8320999999999997  0.22736999999999996  1.0000
  C   C13       1.0  0.5999  0.92256  0.26964  1.0000
  C   C14       1.0  0.55983  0.7675300000000002  0.19  1.0000
  C   C15       1.0  0.64492  0.79537  0.19816999999999996  1.0000
  C   C16       1.0  0.11096999999999997  0.54838  0.44371  1.0000
  C   C17       1.0  0.18113999999999994  0.57331  0.41877  1.0000
  C   C18       1.0  0.18010999999999996  0.61695  0.3704899999999999  1.0000
  C   C19       1.0  0.03999  0.66108  0.59117  1.0000
  C   C20       1.0  0.06943  0.75615  0.64366  1.0000
  C   C21       1.0  0.1179499999999998  0.8029499999999997  0.7355999999999998  1.0000
  C   C22       1.0  0.7337999999999999  0.32727  0.05217  1.0000
  C   C23       1.0  0.6504199999999999  0.41857999999999995  0.19728  1.0000
  C   C24       1.0  0.68111  0.46579  0.2859799999999999  1.0000
  C   C25       1.0  0.7664  0.48824999999999996  0.34545  1.0000
  C   C26       1.0  0.8202700000000002  0.35593  0.11616999999999997  1.0000
  C   C27       1.0  0.70512  0.39516999999999985  0.16785  1.0000
  C   C28       1.0  0.67723  0.3470199999999999  0.07738999999999997  1.0000
  C   C29       1.0  0.7922099999999999  0.4223499999999999  0.23245999999999994  1.0000
  C   C30       1.0  0.8494799999999999  0.4027099999999999  0.20464999999999994  1.0000
  C   C31       1.0  0.5625999999999999  0.89531  0.45168999999999987  1.0000
  C   C32       1.0  0.60772  0.84536  0.4266999999999999  1.0000
  C   C33       1.0  0.5629899999999999  0.75341  0.3829799999999999  1.0000
  C   C34       1.0  0.37903999999999993  0.9301900000000001  0.33898  1.0000
  C   C35       1.0  0.31334999999999996  0.88752  0.24393  1.0000
  C   C36       1.0  0.3151  0.9327199999999999  0.19722999999999993  1.0000
  C   C37       1.0  0.40659000000000006  0.725  0.67272  1.0000
  C   C38       1.0  0.23190000000000005  0.7788200000000001  0.58135  1.0000
  C   C39       1.0  0.2152799999999999  0.8202299999999998  0.5341099999999998  1.0000
  C   C40       1.0  0.27808  0.85715  0.51159  1.0000
  C   C41       1.0  0.46439  0.76027  0.64404  1.0000
  C   C42       1.0  0.31002  0.77278  0.60472  1.0000
  C   C43       1.0  0.3302799999999999  0.7305099999999999  0.6529199999999998  1.0000
  C   C44       1.0  0.3698999999999999  0.81012  0.5774999999999998  1.0000
  C   C45       1.0  0.44681  0.80191  0.5972  1.0000
  C   C46       1.0  0.93731  0.54901  0.10501  1.0000
  C   C47       1.0  0.8917999999999999  0.57385  0.15458999999999998  1.0000
  C   C48       1.0  0.93651  0.61717  0.24652999999999994  1.0000
  C   C49       1.0  0.12089999999999998  0.66101  0.06975999999999997  1.0000
  C   C50       1.0  0.18665999999999994  0.7560299999999999  0.11246999999999997  1.0000
  C   C51       1.0  0.18489000000000003  0.8027  0.06722  1.0000
  C   C52       1.0  0.09343  0.3273  0.27502  1.0000
  C   C53       1.0  0.26789  0.41869  0.22102  1.0000
  C   C54       1.0  0.28431  0.46587999999999996  0.17952  1.0000
  C   C55       1.0  0.22150000000000003  0.4884299999999999  0.14264  1.0000
  C   C56       1.0  0.035619999999999936  0.35596  0.23977999999999994  1.0000
  C   C57       1.0  0.18982999999999992  0.3952699999999999  0.22711999999999993  1.0000
  C   C58       1.0  0.16968999999999995  0.34710999999999986  0.26944  1.0000
  C   C59       1.0  0.12995000000000004  0.42252  0.18984  1.0000
  C   C60       1.0  0.05312999999999994  0.4027999999999999  0.19814  1.0000
  C   C61       1.0  0.8321099999999999  0.8951399999999999  0.4437799999999999  1.0000
  C   C62       1.0  0.737  0.84539  0.41894  1.0000
  C   C63       1.0  0.68978  0.75346  0.3705299999999999  1.0000
  C   C64       1.0  0.05100000000000003  0.92999  0.5909  1.0000
  C   C65       1.0  0.07421  0.88757  0.64349  1.0000
  C   C66       1.0  0.11762999999999996  0.9328999999999998  0.73545  1.0000
  C   C67       1.0  0.81832  0.72488  0.05218  1.0000
  C   C68       1.0  0.04686999999999999  0.77899  0.19772  1.0000
  C   C69       1.0  0.10474000000000003  0.82054  0.28647  1.0000
  C   C70       1.0  0.07872999999999994  0.8573899999999999  0.34579999999999994  1.0000
  C   C71       1.0  0.79569  0.76011  0.11601999999999997  1.0000
  C   C72       1.0  0.9626599999999998  0.7728099999999999  0.1681  1.0000
  C   C73       1.0  0.9001699999999999  0.7304699999999998  0.07758999999999998  1.0000
  C   C74       1.0  0.94  0.8101099999999999  0.23256999999999994  1.0000
  C   C75       1.0  0.8548499999999999  0.8017899999999998  0.20453  1.0000
  C   C76       1.0  0.38828  0.55596  0.45111  1.0000
  C   C77       1.0  0.31798999999999994  0.5807799999999999  0.4263299999999999  1.0000
  C   C78       1.0  0.31926  0.6293  0.38292  1.0000
  C   C79       1.0  0.46  0.40891  0.3389  1.0000
  C   C80       1.0  0.43063  0.35638  0.24387  1.0000
  C   C81       1.0  0.38212000000000007  0.26442  0.1972  1.0000
  C   C82       1.0  0.76622  0.94784  0.67272  1.0000
  C   C83       1.0  0.84929  0.80242  0.58133  1.0000
  C   C84       1.0  0.8184  0.71367  0.53415  1.0000
  C   C85       1.0  0.7330399999999999  0.6543099999999998  0.5117099999999999  1.0000
  C   C86       1.0  0.6797299999999997  0.8839699999999997  0.6440999999999998  1.0000
  C   C87       1.0  0.7946599999999998  0.8319599999999998  0.6047599999999997  1.0000
  C   C88       1.0  0.8226799999999999  0.9224499999999999  0.6529  1.0000
  C   C89       1.0  0.7075099999999999  0.7674599999999997  0.5776  1.0000
  C   C90       1.0  0.65039  0.79547  0.59731  1.0000
  C   C91       1.0  0.3326699999999999  0.44356999999999996  0.8950999999999999  1.0000
  C   C92       1.0  0.2375399999999998  0.4187199999999998  0.8452699999999997  1.0000
  C   C93       1.0  0.1901699999999999  0.3703999999999999  0.7533299999999998  1.0000
  C   C94       1.0  0.5511599999999999  0.5911199999999999  0.9301999999999998  1.0000
  C   C95       1.0  0.5742399999999998  0.6436299999999998  0.8876499999999998  1.0000
  C   C96       1.0  0.6176299999999999  0.7355599999999999  0.93282  1.0000
  C   C97       1.0  0.3183  0.052210000000000006  0.72489  1.0000
  C   C98       1.0  0.54686  0.19738999999999984  0.7787399999999998  1.0000
  C   C99       1.0  0.60488  0.2860899999999999  0.82023  1.0000
  C   C100      1.0  0.5790099999999999  0.3455099999999999  0.8571199999999998  1.0000
  C   C101      1.0  0.29582  0.11616  0.76018  1.0000
  C   C102      1.0  0.46267  0.16788999999999998  0.77262  1.0000
  C   C103      1.0  0.40010000000000007  0.07743  0.73035  1.0000
  C   C104      1.0  0.44016  0.23247  0.80999  1.0000
  C   C105      1.0  0.35508  0.20462999999999995  0.80183  1.0000
  C   C106      1.0  0.88902  0.45161999999999985  0.55628  1.0000
  C   C107      1.0  0.81886  0.42669  0.58123  1.0000
  C   C108      1.0  0.81988  0.38304  0.62951  1.0000
  C   C109      1.0  0.96  0.33891999999999994  0.40882  1.0000
  C   C110      1.0  0.93056  0.24384  0.35634  1.0000
  C   C111      1.0  0.8820399999999999  0.19705  0.26439  1.0000
  C   C112      1.0  0.26619999999999994  0.6727299999999999  0.9478299999999997  1.0000
  C   C113      1.0  0.34957  0.58142  0.80272  1.0000
  C   C114      1.0  0.31889  0.53421  0.71402  1.0000
  C   C115      1.0  0.23359999999999984  0.5117399999999998  0.6545399999999998  1.0000
  C   C116      1.0  0.17972999999999992  0.6440599999999997  0.8838299999999999  1.0000
  C   C117      1.0  0.29488  0.60483  0.8321499999999997  1.0000
  C   C118      1.0  0.32276999999999983  0.6529699999999999  0.9226099999999998  1.0000
  C   C119      1.0  0.20777999999999985  0.5776499999999999  0.7675399999999998  1.0000
  C   C120      1.0  0.15050999999999998  0.59729  0.79535  1.0000
  C   C121      1.0  0.43739  0.10467999999999997  0.54831  1.0000
  C   C122      1.0  0.39226999999999995  0.15463999999999986  0.5732999999999998  1.0000
  C   C123      1.0  0.43701  0.2465799999999999  0.61701  1.0000
  C   C124      1.0  0.6209499999999999  0.06979999999999993  0.6610099999999998  1.0000
  C   C125      1.0  0.68665  0.11248  0.75607  1.0000
  C   C126      1.0  0.68489  0.06726999999999997  0.8027699999999999  1.0000
  C   C127      1.0  0.5934  0.27499  0.32728  1.0000
  C   C128      1.0  0.76809  0.2211799999999999  0.4186399999999999  1.0000
  C   C129      1.0  0.7847199999999998  0.17975999999999992  0.4658899999999999  1.0000
  C   C130      1.0  0.72191  0.14285  0.48841  1.0000
  C   C131      1.0  0.5356  0.23972  0.35596  1.0000
  C   C132      1.0  0.68997  0.22721000000000002  0.39527  1.0000
  C   C133      1.0  0.66972  0.26948  0.34708  1.0000
  C   C134      1.0  0.63009  0.18987999999999994  0.4224999999999999  1.0000
  C   C135      1.0  0.55319  0.19809  0.4028  1.0000
  C   C136      1.0  0.0626899999999999  0.45099  0.89499  1.0000
  C   C137      1.0  0.10818999999999987  0.4261499999999998  0.8453999999999999  1.0000
  C   C138      1.0  0.06347999999999991  0.38283  0.75347  1.0000
  C   C139      1.0  0.8790999999999995  0.33899  0.93024  1.0000
  C   C140      1.0  0.8133299999999998  0.24396999999999994  0.8875299999999999  1.0000
  C   C141      1.0  0.8151  0.19729999999999998  0.93277  1.0000
  C   C142      1.0  0.9065699999999998  0.6726999999999999  0.72497  1.0000
  C   C143      1.0  0.7321  0.58131  0.7789799999999998  1.0000
  C   C144      1.0  0.7156899999999999  0.53411  0.82048  1.0000
  C   C145      1.0  0.77849  0.5115699999999997  0.8573599999999998  1.0000
  C   C146      1.0  0.96437  0.6440399999999998  0.7602199999999999  1.0000
  C   C147      1.0  0.81016  0.60473  0.77288  1.0000
  C   C148      1.0  0.8303  0.65289  0.7305499999999998  1.0000
  C   C149      1.0  0.87004  0.57748  0.81016  1.0000
  C   C150      1.0  0.9468599999999998  0.5971899999999999  0.8018599999999998  1.0000
  C   C151      1.0  0.1678799999999999  0.10484999999999985  0.5562199999999998  1.0000
  C   C152      1.0  0.26299  0.15460000000000004  0.58106  1.0000
  C   C153      1.0  0.31020999999999993  0.24653999999999995  0.6294599999999999  1.0000
  C   C154      1.0  0.94899  0.06999999999999994  0.4090899999999999  1.0000
  C   C155      1.0  0.92579  0.11242  0.35651  1.0000
  C   C156      1.0  0.8823599999999999  0.06709  0.26454  1.0000
  C   C157      1.0  0.18167999999999992  0.2751099999999999  0.94782  1.0000
  C   C158      1.0  0.9531199999999999  0.2210099999999999  0.8022699999999998  1.0000
  C   C159      1.0  0.89526  0.17946  0.71353  1.0000
  C   C160      1.0  0.92127  0.14260999999999982  0.6541999999999998  1.0000
  C   C161      1.0  0.20429999999999998  0.23989  0.88398  1.0000
  C   C162      1.0  0.037329999999999884  0.22718999999999984  0.8318999999999998  1.0000
  C   C163      1.0  0.09981999999999998  0.2695300000000001  0.92241  1.0000
  C   C164      1.0  0.06000000000000003  0.18988000000000005  0.76743  1.0000
  C   C165      1.0  0.14513999999999985  0.19819999999999982  0.7954699999999998  1.0000
  C   C166      1.0  0.61171  0.44403999999999993  0.54888  1.0000
  C   C167      1.0  0.6819999999999999  0.41922  0.57367  1.0000
  C   C168      1.0  0.68073  0.3707  0.61708  1.0000
  C   C169      1.0  0.5399999999999998  0.5910899999999998  0.6610999999999998  1.0000
  C   C170      1.0  0.56937  0.64362  0.7561199999999998  1.0000
  C   C171      1.0  0.6178699999999999  0.73558  0.8027899999999998  1.0000
  C   C172      1.0  0.23377  0.05214999999999999  0.32728  1.0000
  C   C173      1.0  0.15070999999999993  0.19757999999999992  0.4186699999999999  1.0000
  C   C174      1.0  0.18159999999999993  0.2863299999999999  0.4658499999999999  1.0000
  C   C175      1.0  0.26696  0.34568999999999994  0.48829  1.0000
  C   C176      1.0  0.32025999999999993  0.11602999999999994  0.3558999999999999  1.0000
  C   C177      1.0  0.20533000000000004  0.16804  0.39523  1.0000
  C   C178      1.0  0.17731  0.07754  0.3471  1.0000
  C   C179      1.0  0.29248  0.23254  0.4224  1.0000
  C   C180      1.0  0.3496  0.20452999999999993  0.4026899999999999  1.0000
  C   C181      1.0  0.80439  0.55486  0.10922999999999997  1.0000
  C   C182      1.0  0.8960600000000001  0.6461799999999999  0.2923  1.0000
  C   C183      1.0  0.24952999999999997  0.55431  0.4451999999999999  1.0000
  C   C184      1.0  0.24973999999999996  0.64602  0.35391  1.0000
  C   C185      1.0  0.6950599999999999  0.8907299999999999  0.4454999999999999  1.0000
  C   C186      1.0  0.6035299999999999  0.7077799999999999  0.35386  1.0000
  C   C187      1.0  0.19560000000000002  0.4451399999999999  0.89077  1.0000
  C   C188      1.0  0.10393000000000001  0.35381  0.7077  1.0000
  C   C189      1.0  0.7504599999999997  0.44567999999999997  0.5547899999999998  1.0000
  C   C190      1.0  0.75025  0.35397  0.64609  1.0000
  C   C191      1.0  0.30493  0.10925999999999998  0.5545  1.0000
  C   C192      1.0  0.3964599999999998  0.29221999999999987  0.6461299999999998  1.0000
  C   C193      1.0  0.45073  0.40152  0.20068  1.0000
  C   C194      1.0  0.35946  0.21881999999999996  0.10938999999999997  1.0000
  C   C195      1.0  0.04922999999999997  0.79925  0.59842  1.0000
  C   C196      1.0  0.1405899999999999  0.89078  0.78114  1.0000
  C   C197      1.0  0.25  0.7991499999999999  0.20083999999999996  1.0000
  C   C198      1.0  0.24997999999999995  0.89053  0.10938999999999997  1.0000
  C   C199      1.0  0.5492599999999999  0.5984799999999998  0.7993199999999999  1.0000
  C   C200      1.0  0.6405300000000002  0.7811799999999998  0.89061  1.0000
  C   C201      1.0  0.9507599999999999  0.20075  0.40158  1.0000
  C   C202      1.0  0.8594  0.10921999999999997  0.21885999999999994  1.0000
  C   C203      1.0  0.7499999999999999  0.2008499999999999  0.7991599999999998  1.0000
  C   C204      1.0  0.75001  0.10947000000000001  0.89061  1.0000
  N   N1        1.0  0.49970999999999993  0.67934  0.14701  1.0000
  N   N2        1.0  0.82027  0.46752  0.32064  1.0000
  N   N3        1.0  0.35271999999999987  0.8530699999999998  0.53228  1.0000
  N   N4        1.0  0.14695  0.46777  0.14685999999999994  1.0000
  N   N5        1.0  0.9999499999999998  0.8531599999999999  0.3208299999999999  1.0000
  N   N6        1.0  0.67918  0.67921  0.5324  1.0000
  N   N7        1.0  0.5002899999999999  0.3206599999999999  0.8529899999999998  1.0000
  N   N8        1.0  0.17971999999999988  0.53247  0.6793499999999998  1.0000
  N   N9        1.0  0.64728  0.14692  0.46772  1.0000
  N   N10       1.0  0.8530399999999999  0.5322299999999999  0.8531399999999999  1.0000
  N   N11       1.0  3.9999999999884265e-05  0.14682999999999985  0.6791699999999998  1.0000
  N   N12       1.0  0.32081  0.32079  0.4676  1.0000
  O   O1        1.0  0.63995  0.6039  0.14245999999999998  1.0000
  O   O2        1.0  0.46864999999999996  0.4887699999999999  0.11000999999999997  1.0000
  O   O3        1.0  0.62036  0.48864  0.02864999999999999  1.0000
  O   O4        1.0  0.44820999999999994  0.36961  0.99876  1.0000
  O   O5        1.0  0.03611999999999994  0.53853  0.3962599999999999  1.0000
  O   O6        1.0  0.9797799999999999  0.6214099999999999  0.51128  1.0000
  O   O7        1.0  0.13184999999999994  0.5399599999999999  0.51152  1.0000
  O   O8        1.0  0.07866000000000001  0.62926  0.63035  1.0000
  O   O9        1.0  0.4976  0.85778  0.46154999999999996  1.0000
  O   O10       1.0  0.35861  0.88999  0.3786499999999999  1.0000
  O   O11       1.0  0.59196  0.97154  0.4601  1.0000
  O   O12       1.0  0.44949  0.0012599999999999452  0.3707899999999999  1.0000
  O   O13       1.0  0.0016400000000000245  0.53839  0.14283  1.0000
  O   O14       1.0  0.14090999999999995  0.62118  0.10995  1.0000
  O   O15       1.0  0.90921  0.54143  0.029149999999999992  1.0000
  O   O16       1.0  0.050719999999999967  0.62931  0.9984599999999999  1.0000
  O   O17       1.0  0.8587900000000002  0.8573599999999999  0.3955499999999999  1.0000
  O   O18       1.0  0.03066999999999998  0.8897  0.51084  1.0000
  O   O19       1.0  0.87981  0.9710399999999999  0.51205  1.0000
  O   O20       1.0  0.05207  0.001230000000000003  0.63043  1.0000
  O   O21       1.0  0.4633  0.60446  0.46189999999999987  1.0000
  O   O22       1.0  0.5198700000000003  0.48897  0.37874  1.0000
  O   O23       1.0  0.36764  0.4875  0.45839  1.0000
  O   O24       1.0  0.4214999999999999  0.36942999999999987  0.3706099999999999  1.0000
  O   O25       1.0  0.36004999999999987  0.3960999999999999  0.8575399999999997  1.0000
  O   O26       1.0  0.5313399999999999  0.5112199999999998  0.8899799999999998  1.0000
  O   O27       1.0  0.37963  0.5113499999999999  0.97134  1.0000
  O   O28       1.0  0.55178  0.63039  0.00123  1.0000
  O   O29       1.0  0.96387  0.46147000000000005  0.6037399999999998  1.0000
  O   O30       1.0  0.020209999999999936  0.3785899999999999  0.4887199999999999  1.0000
  O   O31       1.0  0.8681500000000001  0.46004000000000006  0.48849  1.0000
  O   O32       1.0  0.92133  0.37073  0.36964999999999987  1.0000
  O   O33       1.0  0.50239  0.14222000000000007  0.53844  1.0000
  O   O34       1.0  0.64138  0.10999999999999995  0.62135  1.0000
  O   O35       1.0  0.40802999999999995  0.02845999999999996  0.53989  1.0000
  O   O36       1.0  0.5504999999999998  0.9987399999999999  0.6292099999999998  1.0000
  O   O37       1.0  0.9983500000000001  0.46161  0.85716  1.0000
  O   O38       1.0  0.85909  0.37882  0.89004  1.0000
  O   O39       1.0  0.09078  0.45857  0.97085  1.0000
  O   O40       1.0  0.94927  0.37069  0.0015299999999999995  1.0000
  O   O41       1.0  0.1412  0.14264  0.60445  1.0000
  O   O42       1.0  0.96932  0.11030000000000005  0.48916  1.0000
  O   O43       1.0  0.12017999999999998  0.028959999999999996  0.48795  1.0000
  O   O44       1.0  0.94793  0.99877  0.36958  1.0000
  O   O45       1.0  0.53669  0.39554  0.5381  1.0000
  O   O46       1.0  0.48012  0.51102  0.62126  1.0000
  O   O47       1.0  0.63235  0.51249  0.54161  1.0000
  O   O48       1.0  0.5784899999999998  0.6305599999999999  0.6293899999999998  1.0000
