data_image0
_chemical_formula_structural       Cu8H224C208N32
_chemical_formula_sum              "Cu8 H224 C208 N32"
_cell_length_a       16.81697
_cell_length_b       16.82005
_cell_length_c       24.18895
_cell_angle_alpha    110.33342
_cell_angle_beta     110.3608
_cell_angle_gamma    89.92459

_symmetry_space_group_name_H-M    'P 1'
_symmetry_Int_Tables_number       1

loop_
  _symmetry_equiv_pos_as_xyz
  'x,y,z'

loop_
  _atom_site_type_symbol
  _atom_site_label
  _atom_site_symmetry_multiplicity
  _atom_site_fract_x
  _atom_site_fract_y
  _atom_site_fract_z
  _atom_site_occupancy
  Cu  Cu1       1.0  0.16232  0.9122  0.3251  1.0000
  Cu  Cu2       1.0  0.41267  0.6625  0.82513  1.0000
  Cu  Cu3       1.0  0.21883000000000005  0.4706  0.44084  1.0000
  Cu  Cu4       1.0  0.9721400000000001  0.7185899999999998  0.9407499999999999  1.0000
  Cu  Cu5       1.0  0.8376900000000003  0.08780000000000004  0.6749  1.0000
  Cu  Cu6       1.0  0.58734  0.33755  0.17489  1.0000
  Cu  Cu7       1.0  0.78099  0.52857  0.5591  1.0000
  Cu  Cu8       1.0  0.027860000000000003  0.28142  0.059239999999999994  1.0000
  H   H1        1.0  0.9638  0.932  0.298  1.0000
  H   H2        1.0  0.8523200000000002  0.9796500000000001  0.22225999999999999  1.0000
  H   H3        1.0  0.029640000000000024  0.9798800000000001  0.12852  1.0000
  H   H4        1.0  0.13172  0.9286  0.20609  1.0000
  H   H5        1.0  0.8282500000000002  0.05562  0.14014  1.0000
  H   H6        1.0  0.89181  0.03476  0.09379  1.0000
  H   H7        1.0  0.76497  0.9007  0.09168999999999998  1.0000
  H   H8        1.0  0.8260400000000002  0.8785  0.04361  1.0000
  H   H9        1.0  0.69813  0.009899999999999997  0.04457  1.0000
  H   H10       1.0  0.75605  0.9816800000000001  0.99417  1.0000
  H   H11       1.0  0.60944  0.69502  0.84671  1.0000
  H   H12       1.0  0.7250300000000001  0.8165399999999999  0.9141499999999999  1.0000
  H   H13       1.0  0.56273  0.92845  0.01739  1.0000
  H   H14       1.0  0.4544199999999999  0.8002599999999999  0.9468099999999998  1.0000
  H   H15       1.0  0.3328999999999999  0.8653499999999998  0.29780999999999996  1.0000
  H   H16       1.0  0.36958  0.74296  0.22201  1.0000
  H   H17       1.0  0.09892  0.64765  0.12773  1.0000
  H   H18       1.0  0.07337999999999999  0.7756  0.20545999999999998  1.0000
  H   H19       1.0  0.31228  0.58501  0.13975  1.0000
  H   H20       1.0  0.20245000000000002  0.55899  0.0934  1.0000
  H   H21       1.0  0.32664  0.69112  0.09089  1.0000
  H   H22       1.0  0.21741  0.66523  0.04304  1.0000
  H   H23       1.0  0.3456400000000001  0.53428  0.04413  1.0000
  H   H24       1.0  0.23739000000000005  0.5128799999999999  0.9936599999999999  1.0000
  H   H25       1.0  0.23816999999999994  0.65144  0.8461899999999999  1.0000
  H   H26       1.0  0.18936999999999996  0.59785  0.9136499999999999  1.0000
  H   H27       1.0  0.45456  0.58834  0.01733  1.0000
  H   H28       1.0  0.49292  0.64533  0.9466  1.0000
  H   H29       1.0  0.36580000000000007  0.46335000000000004  0.7977400000000001  1.0000
  H   H30       1.0  0.24262  0.35194  0.72217  1.0000
  H   H31       1.0  0.14814  0.52925  0.62833  1.0000
  H   H32       1.0  0.27687  0.6312  0.7058  1.0000
  H   H33       1.0  0.08454000000000006  0.32794  0.63992  1.0000
  H   H34       1.0  0.05879000000000003  0.39184  0.59383  1.0000
  H   H35       1.0  0.19071  0.26463  0.59088  1.0000
  H   H36       1.0  0.16424  0.32592  0.54296  1.0000
  H   H37       1.0  0.03388999999999997  0.19870999999999994  0.54429  1.0000
  H   H38       1.0  0.012159999999999964  0.25615  0.49356  1.0000
  H   H39       1.0  0.15134  0.10802000000000003  0.34649  1.0000
  H   H40       1.0  0.09728  0.22412999999999997  0.4137199999999999  1.0000
  H   H41       1.0  0.08826000000000002  0.06273999999999999  0.51755  1.0000
  H   H42       1.0  0.14565999999999998  0.9538599999999999  0.44697999999999993  1.0000
  H   H43       1.0  0.4325000000000001  0.83277  0.79857  1.0000
  H   H44       1.0  0.4791  0.86931  0.72274  1.0000
  H   H45       1.0  0.48000000000000004  0.59859  0.62826  1.0000
  H   H46       1.0  0.42952  0.57325  0.70592  1.0000
  H   H47       1.0  0.55461  0.81175  0.64023  1.0000
  H   H48       1.0  0.53398  0.70194  0.5937999999999999  1.0000
  H   H49       1.0  0.39961000000000013  0.82668  0.59187  1.0000
  H   H50       1.0  0.37742  0.7175  0.54395  1.0000
  H   H51       1.0  0.5089800000000002  0.84581  0.54489  1.0000
  H   H52       1.0  0.48095  0.73744  0.49473  1.0000
  H   H53       1.0  0.19450000000000006  0.73708  0.34651  1.0000
  H   H54       1.0  0.31565  0.68864  0.41443  1.0000
  H   H55       1.0  0.42803  0.9538599999999999  0.51733  1.0000
  H   H56       1.0  0.30022  0.9918299999999999  0.44619999999999993  1.0000
  H   H57       1.0  0.04623  0.50663  0.46214  1.0000
  H   H58       1.0  7.999999999997728e-05  0.62732  0.53219  1.0000
  H   H59       1.0  0.26738  0.73322  0.63657  1.0000
  H   H60       1.0  0.30266  0.60608  0.56439  1.0000
  H   H61       1.0  0.051080000000000014  0.79059  0.61322  1.0000
  H   H62       1.0  0.15947000000000006  0.81689  0.66406  1.0000
  H   H63       1.0  0.027989999999999994  0.68605  0.6605  1.0000
  H   H64       1.0  0.13697  0.70561  0.70875  1.0000
  H   H65       1.0  0.12501000000000004  0.8611  0.75872  1.0000
  H   H66       1.0  0.015199999999999988  0.8429  0.71202  1.0000
  H   H67       1.0  0.1427  0.73933  0.91582  1.0000
  H   H68       1.0  0.18022999999999997  0.78529  0.84022  1.0000
  H   H69       1.0  0.9098400000000002  0.7873  0.74479  1.0000
  H   H70       1.0  0.88329  0.7365799999999999  0.8218999999999999  1.0000
  H   H71       1.0  0.41376000000000007  0.45591999999999994  0.4616199999999999  1.0000
  H   H72       1.0  0.52983  0.40424999999999994  0.53098  1.0000
  H   H73       1.0  0.3677700000000001  0.4025  0.636  1.0000
  H   H74       1.0  0.26059  0.45858000000000004  0.56454  1.0000
  H   H75       1.0  0.56061  0.32168  0.61182  1.0000
  H   H76       1.0  0.50332  0.34562  0.66287  1.0000
  H   H77       1.0  0.63144  0.47297  0.65958  1.0000
  H   H78       1.0  0.57042  0.50192  0.70762  1.0000
  H   H79       1.0  0.63232  0.39731  0.75845  1.0000
  H   H80       1.0  0.69516  0.36762  0.71163  1.0000
  H   H81       1.0  0.7743  0.67486  0.91536  1.0000
  H   H82       1.0  0.66031  0.55383  0.84019  1.0000
  H   H83       1.0  0.8330499999999998  0.45571999999999996  0.7429399999999999  1.0000
  H   H84       1.0  0.93754  0.58303  0.81959  1.0000
  H   H85       1.0  0.9559099999999998  0.5463999999999999  0.9614699999999999  1.0000
  H   H86       1.0  0.90453  0.50062  0.03123  1.0000
  H   H87       1.0  0.9029500000000003  0.76802  0.13547  1.0000
  H   H88       1.0  0.95883  0.80291  0.06366  1.0000
  H   H89       1.0  0.82187  0.5519  0.11206  1.0000
  H   H90       1.0  0.84639  0.66027  0.16292  1.0000
  H   H91       1.0  0.97338  0.52823  0.1595  1.0000
  H   H92       1.0  0.0023599999999999975  0.63718  0.20768  1.0000
  H   H93       1.0  0.8968400000000002  0.62603  0.25784  1.0000
  H   H94       1.0  0.8678599999999999  0.51635  0.21106999999999998  1.0000
  H   H95       1.0  0.17473000000000002  0.64157  0.41522999999999993  1.0000
  H   H96       1.0  0.05385000000000002  0.68014  0.33957  1.0000
  H   H97       1.0  0.9558400000000001  0.41031  0.2431  1.0000
  H   H98       1.0  0.08301  0.38263  0.32027  1.0000
  H   H99       1.0  0.006800000000000119  0.9143400000000002  0.96209  1.0000
  H   H100      1.0  0.12738  0.03062  0.03152  1.0000
  H   H101      1.0  0.23448  0.86896  0.13693  1.0000
  H   H102      1.0  0.10728000000000001  0.7616  0.06547  1.0000
  H   H103      1.0  0.2906200000000001  0.06163  0.11272  1.0000
  H   H104      1.0  0.31779  0.0042  0.16369  1.0000
  H   H105      1.0  0.18639000000000006  0.13197  0.16035  1.0000
  H   H106      1.0  0.20627  0.07111  0.20853  1.0000
  H   H107      1.0  0.36139  0.13341  0.25903  1.0000
  H   H108      1.0  0.3435  0.19625  0.21217  1.0000
  H   H109      1.0  0.23918  0.2735  0.4156099999999999  1.0000
  H   H110      1.0  0.2857  0.16029  0.34036  1.0000
  H   H111      1.0  0.28706  0.33453  0.24435  1.0000
  H   H112      1.0  0.23604  0.43827999999999995  0.3212  1.0000
  H   H113      1.0  0.03621  0.06798999999999998  0.702  1.0000
  H   H114      1.0  0.14768999999999996  0.020320000000000005  0.77773  1.0000
  H   H115      1.0  0.9703699999999998  0.020119999999999996  0.87148  1.0000
  H   H116      1.0  0.8683  0.0714  0.79391  1.0000
  H   H117      1.0  0.17178000000000004  0.9443999999999999  0.85989  1.0000
  H   H118      1.0  0.10821999999999998  0.9652599999999999  0.9062199999999999  1.0000
  H   H119      1.0  0.23504  0.09932999999999995  0.9083099999999998  1.0000
  H   H120      1.0  0.17395  0.1215399999999999  0.95639  1.0000
  H   H121      1.0  0.30189  0.9901499999999999  0.95545  1.0000
  H   H122      1.0  0.24396  0.01837  0.00584  1.0000
  H   H123      1.0  0.39057  0.30502  0.15329999999999996  1.0000
  H   H124      1.0  0.27498000000000006  0.18351  0.08585999999999999  1.0000
  H   H125      1.0  0.4372799999999999  0.07157999999999996  0.98263  1.0000
  H   H126      1.0  0.54559  0.19977  0.0532  1.0000
  H   H127      1.0  0.6671000000000002  0.13464999999999994  0.70219  1.0000
  H   H128      1.0  0.63043  0.25704  0.77799  1.0000
  H   H129      1.0  0.9010900000000001  0.35233  0.87228  1.0000
  H   H130      1.0  0.9266200000000002  0.22437999999999989  0.7945499999999999  1.0000
  H   H131      1.0  0.6877400000000001  0.41498999999999997  0.8602499999999998  1.0000
  H   H132      1.0  0.7975700000000001  0.44098999999999994  0.9066099999999999  1.0000
  H   H133      1.0  0.67335  0.30888  0.9090999999999999  1.0000
  H   H134      1.0  0.7825900000000002  0.33478  0.95696  1.0000
  H   H135      1.0  0.65433  0.4657099999999999  0.95586  1.0000
  H   H136      1.0  0.76258  0.48714  0.006329999999999999  1.0000
  H   H137      1.0  0.76185  0.34858  0.15382  1.0000
  H   H138      1.0  0.81063  0.40217  0.08635  1.0000
  H   H139      1.0  0.5454199999999999  0.41163999999999995  0.9826799999999999  1.0000
  H   H140      1.0  0.50711  0.35467  0.05343  1.0000
  H   H141      1.0  0.63418  0.53666  0.20228  1.0000
  H   H142      1.0  0.7573600000000003  0.64808  0.27785  1.0000
  H   H143      1.0  0.85186  0.47078  0.37168999999999996  1.0000
  H   H144      1.0  0.7231300000000002  0.36881  0.29422  1.0000
  H   H145      1.0  0.9154400000000004  0.67208  0.36007  1.0000
  H   H146      1.0  0.9412200000000001  0.60818  0.40616  1.0000
  H   H147      1.0  0.8093  0.7354  0.40913  1.0000
  H   H148      1.0  0.8357600000000001  0.67408  0.45704  1.0000
  H   H149      1.0  0.9661400000000001  0.8012899999999998  0.45572999999999997  1.0000
  H   H150      1.0  0.9878400000000002  0.74385  0.50646  1.0000
  H   H151      1.0  0.84866  0.8919899999999998  0.65352  1.0000
  H   H152      1.0  0.90273  0.77588  0.58629  1.0000
  H   H153      1.0  0.9117500000000002  0.93725  0.48245999999999994  1.0000
  H   H154      1.0  0.8543500000000002  0.046139999999999994  0.55302  1.0000
  H   H155      1.0  0.56749  0.16726  0.20144999999999996  1.0000
  H   H156      1.0  0.5209  0.13071  0.27728  1.0000
  H   H157      1.0  0.51992  0.40142  0.37174  1.0000
  H   H158      1.0  0.57039  0.42678  0.29409  1.0000
  H   H159      1.0  0.4454  0.18823  0.35978  1.0000
  H   H160      1.0  0.46599000000000007  0.29803  0.40620999999999996  1.0000
  H   H161      1.0  0.6004000000000002  0.17333999999999997  0.40814999999999996  1.0000
  H   H162      1.0  0.62257  0.28251  0.45607  1.0000
  H   H163      1.0  0.49101999999999996  0.1542  0.45512  1.0000
  H   H164      1.0  0.51905  0.26256  0.50528  1.0000
  H   H165      1.0  0.80549  0.26292  0.65351  1.0000
  H   H166      1.0  0.68434  0.31136  0.58559  1.0000
  H   H167      1.0  0.5719700000000002  0.046139999999999994  0.48268  1.0000
  H   H168      1.0  0.6997800000000001  0.008170000000000024  0.5538  1.0000
  H   H169      1.0  0.9536400000000002  0.49327000000000004  0.53779  1.0000
  H   H170      1.0  0.99991  0.37260999999999994  0.46776999999999996  1.0000
  H   H171      1.0  0.73265  0.26657  0.36329  1.0000
  H   H172      1.0  0.69725  0.3937  0.43541  1.0000
  H   H173      1.0  0.94901  0.20934  0.38675  1.0000
  H   H174      1.0  0.84061  0.18299  0.3359  1.0000
  H   H175      1.0  0.97205  0.31392  0.33949  1.0000
  H   H176      1.0  0.86307  0.29436  0.29126  1.0000
  H   H177      1.0  0.87503  0.13887999999999998  0.24125999999999997  1.0000
  H   H178      1.0  0.98484  0.15708  0.28795  1.0000
  H   H179      1.0  0.85729  0.26071  0.08418  1.0000
  H   H180      1.0  0.81978  0.21473  0.15978  1.0000
  H   H181      1.0  0.09017  0.21269999999999997  0.25518  1.0000
  H   H182      1.0  0.11670000000000001  0.26344  0.17808  1.0000
  H   H183      1.0  0.58619  0.54401  0.53841  1.0000
  H   H184      1.0  0.47017  0.59572  0.46905  1.0000
  H   H185      1.0  0.63232  0.5975  0.3641  1.0000
  H   H186      1.0  0.73946  0.54142  0.43556  1.0000
  H   H187      1.0  0.43941  0.6782899999999998  0.38822  1.0000
  H   H188      1.0  0.49670000000000003  0.65436  0.33717  1.0000
  H   H189      1.0  0.36855  0.52702  0.34044  1.0000
  H   H190      1.0  0.42957000000000023  0.49806  0.29239  1.0000
  H   H191      1.0  0.36769  0.60269  0.24158  1.0000
  H   H192      1.0  0.30484  0.6323800000000002  0.2884  1.0000
  H   H193      1.0  0.22571  0.32516  0.08464  1.0000
  H   H194      1.0  0.33969  0.44619  0.15981  1.0000
  H   H195      1.0  0.16696  0.54426  0.25707  1.0000
  H   H196      1.0  0.06246  0.41697  0.18041  1.0000
  H   H197      1.0  0.0441  0.45363  0.03855  1.0000
  H   H198      1.0  0.09548000000000004  0.49938999999999995  0.9687799999999999  1.0000
  H   H199      1.0  0.09701999999999997  0.23197999999999994  0.8645399999999999  1.0000
  H   H200      1.0  0.04112999999999995  0.19710999999999998  0.9363399999999998  1.0000
  H   H201      1.0  0.17813000000000004  0.44809  0.88794  1.0000
  H   H202      1.0  0.15359000000000003  0.33971000000000007  0.83708  1.0000
  H   H203      1.0  0.026609999999999964  0.47175999999999996  0.84051  1.0000
  H   H204      1.0  0.9976399999999999  0.36280999999999997  0.7923199999999999  1.0000
  H   H205      1.0  0.10315999999999996  0.37399  0.74217  1.0000
  H   H206      1.0  0.13209999999999994  0.48367999999999994  0.7889299999999999  1.0000
  H   H207      1.0  0.82524  0.35824  0.58478  1.0000
  H   H208      1.0  0.94619  0.3198  0.66046  1.0000
  H   H209      1.0  0.04406000000000009  0.58967  0.7568  1.0000
  H   H210      1.0  0.9168399999999999  0.61724  0.67961  1.0000
  H   H211      1.0  0.99321  0.08565  0.03791  1.0000
  H   H212      1.0  0.8726200000000001  0.9693800000000001  0.96847  1.0000
  H   H213      1.0  0.7655399999999999  0.13105999999999995  0.8630799999999998  1.0000
  H   H214      1.0  0.89275  0.23841  0.93454  1.0000
  H   H215      1.0  0.7093799999999999  0.9384  0.8872699999999999  1.0000
  H   H216      1.0  0.68222  0.9958399999999998  0.8363  1.0000
  H   H217      1.0  0.81361  0.8680399999999999  0.8396399999999999  1.0000
  H   H218      1.0  0.7937199999999999  0.92891  0.7914599999999999  1.0000
  H   H219      1.0  0.6386100000000002  0.86659  0.74094  1.0000
  H   H220      1.0  0.6564800000000002  0.8038  0.78783  1.0000
  H   H221      1.0  0.76077  0.72629  0.58437  1.0000
  H   H222      1.0  0.71433  0.8396000000000001  0.65961  1.0000
  H   H223      1.0  0.71292  0.66554  0.75573  1.0000
  H   H224      1.0  0.76387  0.56167  0.67887  1.0000
  C   C1        1.0  0.9753699999999998  0.94204  0.25918  1.0000
  C   C2        1.0  0.91352  0.9691  0.21677  1.0000
  C   C3        1.0  0.92965  0.9832  0.16699  1.0000
  C   C4        1.0  0.011230000000000018  0.96948  0.16474  1.0000
  C   C5        1.0  0.06927999999999998  0.94126  0.20828  1.0000
  C   C6        1.0  0.86209  0.006189999999999998  0.11766  1.0000
  C   C7        1.0  0.79492  0.92914  0.0679  1.0000
  C   C8        1.0  0.72528  0.9563200000000001  0.01907  1.0000
  C   C9        1.0  0.60159  0.7474  0.88547  1.0000
  C   C10       1.0  0.6659000000000003  0.81638  0.9231999999999999  1.0000
  C   C11       1.0  0.65529  0.88425  0.97333  1.0000
  C   C12       1.0  0.57617  0.87783  0.9803799999999999  1.0000
  C   C13       1.0  0.51527  0.80665  0.94121  1.0000
  C   C14       1.0  0.28278  0.81647  0.25889  1.0000
  C   C15       1.0  0.30279  0.74756  0.21645999999999999  1.0000
  C   C16       1.0  0.23721000000000003  0.6836  0.16656  1.0000
  C   C17       1.0  0.15320000000000006  0.69441  0.16413  1.0000
  C   C18       1.0  0.13813  0.76566  0.20773999999999998  1.0000
  C   C19       1.0  0.25574  0.61168  0.11723999999999998  1.0000
  C   C20       1.0  0.27289  0.63897  0.06736  1.0000
  C   C21       1.0  0.29336  0.56269  0.01856  1.0000
  C   C22       1.0  0.28453  0.63763  0.88496  1.0000
  C   C23       1.0  0.25755999999999996  0.6066699999999999  0.9226899999999999  1.0000
  C   C24       1.0  0.3180500000000001  0.58869  0.97287  1.0000
  C   C25       1.0  0.40432000000000007  0.6019299999999999  0.9801499999999999  1.0000
  C   C26       1.0  0.42644000000000015  0.63357  0.9409  1.0000
  C   C27       1.0  0.3168700000000001  0.47492  0.75892  1.0000
  C   C28       1.0  0.24750999999999998  0.41308999999999996  0.71659  1.0000
  C   C29       1.0  0.18361  0.4292500000000001  0.66679  1.0000
  C   C30       1.0  0.19487000000000004  0.51081  0.66452  1.0000
  C   C31       1.0  0.26656  0.5688  0.708  1.0000
  C   C32       1.0  0.11131000000000006  0.36187  0.61746  1.0000
  C   C33       1.0  0.13829  0.29476  0.56739  1.0000
  C   C34       1.0  0.062200000000000005  0.22534  0.51868  1.0000
  C   C35       1.0  0.13754  0.10049999999999998  0.38527  1.0000
  C   C36       1.0  0.10638  0.16510999999999998  0.4229299999999999  1.0000
  C   C37       1.0  0.08847000000000002  0.15489  0.47313  1.0000
  C   C38       1.0  0.10187999999999994  0.07588999999999993  0.48042999999999997  1.0000
  C   C39       1.0  0.13376  0.014640000000000005  0.44125  1.0000
  C   C40       1.0  0.4423800000000001  0.78265  0.75956  1.0000
  C   C41       1.0  0.4688899999999999  0.80255  0.7171399999999999  1.0000
  C   C42       1.0  0.48291  0.73692  0.66718  1.0000
  C   C43       1.0  0.46959  0.65293  0.66467  1.0000
  C   C44       1.0  0.44188999999999995  0.63795  0.70824  1.0000
  C   C45       1.0  0.50537  0.75541  0.61782  1.0000
  C   C46       1.0  0.42805000000000004  0.77281  0.5681499999999999  1.0000
  C   C47       1.0  0.45542  0.79324  0.51933  1.0000
  C   C48       1.0  0.24694000000000002  0.78352  0.38526  1.0000
  C   C49       1.0  0.31565  0.75677  0.42323  1.0000
  C   C50       1.0  0.38357  0.81743  0.47334  1.0000
  C   C51       1.0  0.37738000000000005  0.9035799999999999  0.48026  1.0000
  C   C52       1.0  0.30648  0.92541  0.44079  1.0000
  C   C53       1.0  0.09342  0.55761  0.50174  1.0000
  C   C54       1.0  0.06805  0.62606  0.54082  1.0000
  C   C55       1.0  0.12992  0.69236  0.59158  1.0000
  C   C56       1.0  0.21581000000000003  0.6845  0.59872  1.0000
  C   C57       1.0  0.23630000000000004  0.61353  0.55838  1.0000
  C   C58       1.0  0.10617000000000004  0.76413  0.63778  1.0000
  C   C59       1.0  0.08419  0.73572  0.68554  1.0000
  C   C60       1.0  0.06768000000000005  0.81291  0.73566  1.0000
  C   C61       1.0  0.09284999999999996  0.7492  0.8766799999999999  1.0000
  C   C62       1.0  0.11328  0.77557  0.83437  1.0000
  C   C63       1.0  0.04809999999999996  0.78986  0.78438  1.0000
  C   C64       1.0  0.96386  0.77677  0.78138  1.0000
  C   C65       1.0  0.94825  0.74895  0.8247  1.0000
  C   C66       1.0  0.40639000000000003  0.44433999999999996  0.50123  1.0000
  C   C67       1.0  0.47078  0.41434  0.53998  1.0000
  C   C68       1.0  0.46007000000000015  0.39851  0.59078  1.0000
  C   C69       1.0  0.3815  0.41366  0.59823  1.0000
  C   C70       1.0  0.3207200000000001  0.44491  0.55822  1.0000
  C   C71       1.0  0.5302299999999999  0.37251999999999996  0.6367099999999999  1.0000
  C   C72       1.0  0.60006  0.44853  0.68461  1.0000
  C   C73       1.0  0.66658  0.42169  0.73501  1.0000
  C   C74       1.0  0.78434  0.62576  0.87593  1.0000
  C   C75       1.0  0.72107  0.55748  0.8338299999999998  1.0000
  C   C76       1.0  0.73534  0.49326000000000003  0.78343  1.0000
  C   C77       1.0  0.81628  0.50294  0.77984  1.0000
  C   C78       1.0  0.87568  0.5737699999999999  0.8229699999999999  1.0000
  C   C79       1.0  0.9445  0.5937  0.001  1.0000
  C   C80       1.0  0.9146299999999999  0.56855  0.03994  1.0000
  C   C81       1.0  0.89882  0.63048  0.09059  1.0000
  C   C82       1.0  0.91406  0.7163099999999999  0.09777999999999999  1.0000
  C   C83       1.0  0.94521  0.73663  0.05762  1.0000
  C   C84       1.0  0.87292  0.60684  0.13669  1.0000
  C   C85       1.0  0.94892  0.58467  0.18453  1.0000
  C   C86       1.0  0.92171  0.56847  0.23469  1.0000
  C   C87       1.0  0.12568  0.59206  0.37589  1.0000
  C   C88       1.0  0.05747  0.61312  0.33357  1.0000
  C   C89       1.0  0.99324  0.54837  0.28333  1.0000
  C   C90       1.0  0.002959999999999988  0.46396  0.28  1.0000
  C   C91       1.0  0.07372000000000002  0.44775  0.32335  1.0000
  C   C92       1.0  0.058  0.9071  0.00181  1.0000
  C   C93       1.0  0.12644  0.9716  0.04057  1.0000
  C   C94       1.0  0.19299000000000002  0.9609799999999998  0.0915  1.0000
  C   C95       1.0  0.18553  0.88248  0.09902  1.0000
  C   C96       1.0  0.11450000000000002  0.82164  0.05900999999999999  1.0000
  C   C97       1.0  0.2646700000000001  0.031139999999999998  0.13751  1.0000
  C   C98       1.0  0.23624000000000006  0.10082  0.18538  1.0000
  C   C99       1.0  0.31321  0.16754  0.23566  1.0000
  C   C100      1.0  0.24911  0.28405  0.37645  1.0000
  C   C101      1.0  0.27571  0.22123  0.33427  1.0000
  C   C102      1.0  0.28982  0.23606  0.28415  1.0000
  C   C103      1.0  0.27654  0.31721  0.28096  1.0000
  C   C104      1.0  0.24855000000000002  0.37622  0.32421  1.0000
  C   C105      1.0  0.024639999999999964  0.05795  0.74082  1.0000
  C   C106      1.0  0.08649000000000003  0.03089000000000002  0.78323  1.0000
  C   C107      1.0  0.07035999999999996  0.016809999999999943  0.8330099999999999  1.0000
  C   C108      1.0  0.9887800000000001  0.030529999999999995  0.83527  1.0000
  C   C109      1.0  0.93073  0.05873999999999998  0.7917199999999999  1.0000
  C   C110      1.0  0.13793000000000005  0.9938299999999999  0.88235  1.0000
  C   C111      1.0  0.20508  0.07089000000000001  0.9321  1.0000
  C   C112      1.0  0.27472  0.04372000000000011  0.98094  1.0000
  C   C113      1.0  0.3984200000000001  0.25264  0.11454  1.0000
  C   C114      1.0  0.3341  0.18367  0.07681  1.0000
  C   C115      1.0  0.34472  0.11578999999999998  0.02669  1.0000
  C   C116      1.0  0.42383  0.12220999999999999  0.01963  1.0000
  C   C117      1.0  0.48474  0.19338  0.0588  1.0000
  C   C118      1.0  0.7172200000000002  0.18353  0.74111  1.0000
  C   C119      1.0  0.69721  0.25243999999999994  0.7835499999999999  1.0000
  C   C120      1.0  0.7627900000000002  0.31639  0.8334399999999998  1.0000
  C   C121      1.0  0.84681  0.30557999999999996  0.8358799999999998  1.0000
  C   C122      1.0  0.8618700000000001  0.23433  0.79226  1.0000
  C   C123      1.0  0.74427  0.38832  0.88276  1.0000
  C   C124      1.0  0.7271  0.36104  0.93264  1.0000
  C   C125      1.0  0.7066200000000001  0.43731  0.9814299999999999  1.0000
  C   C126      1.0  0.71549  0.36238  0.11505  1.0000
  C   C127      1.0  0.7424500000000002  0.39334  0.07730999999999999  1.0000
  C   C128      1.0  0.68194  0.41132  0.027129999999999998  1.0000
  C   C129      1.0  0.5956800000000002  0.39806  0.019849999999999996  1.0000
  C   C130      1.0  0.5735800000000002  0.36642  0.05912  1.0000
  C   C131      1.0  0.68312  0.52509  0.24109  1.0000
  C   C132      1.0  0.7524700000000002  0.58693  0.28342  1.0000
  C   C133      1.0  0.81638  0.57077  0.33322  1.0000
  C   C134      1.0  0.80513  0.48921  0.33549  1.0000
  C   C135      1.0  0.7334400000000002  0.4312099999999999  0.29202  1.0000
  C   C136      1.0  0.88869  0.63814  0.38254  1.0000
  C   C137      1.0  0.86171  0.70525  0.43261999999999995  1.0000
  C   C138      1.0  0.93781  0.77467  0.4813299999999999  1.0000
  C   C139      1.0  0.86245  0.89951  0.61474  1.0000
  C   C140      1.0  0.89363  0.83489  0.5770799999999999  1.0000
  C   C141      1.0  0.9115399999999999  0.84512  0.52689  1.0000
  C   C142      1.0  0.8981199999999999  0.92411  0.51957  1.0000
  C   C143      1.0  0.8662399999999999  0.9853699999999999  0.55876  1.0000
  C   C144      1.0  0.55761  0.21737999999999993  0.24045999999999998  1.0000
  C   C145      1.0  0.5311000000000002  0.19748  0.28288  1.0000
  C   C146      1.0  0.51706  0.2631  0.33284  1.0000
  C   C147      1.0  0.53034  0.34707999999999994  0.33532999999999996  1.0000
  C   C148      1.0  0.55805  0.36208  0.29177  1.0000
  C   C149      1.0  0.49462000000000006  0.24459  0.38219  1.0000
  C   C150      1.0  0.5719500000000001  0.22719999999999999  0.4318699999999999  1.0000
  C   C151      1.0  0.54458  0.20676  0.48068  1.0000
  C   C152      1.0  0.7530500000000002  0.21648  0.61476  1.0000
  C   C153      1.0  0.68434  0.24322999999999997  0.57679  1.0000
  C   C154      1.0  0.61644  0.18257  0.52667  1.0000
  C   C155      1.0  0.62261  0.09642000000000005  0.51975  1.0000
  C   C156      1.0  0.69352  0.07458000000000004  0.55921  1.0000
  C   C157      1.0  0.9065  0.4422499999999999  0.49817  1.0000
  C   C158      1.0  0.9319300000000001  0.37383  0.45913  1.0000
  C   C159      1.0  0.8701  0.3075  0.40837  1.0000
  C   C160      1.0  0.7841800000000002  0.31529999999999997  0.40116999999999997  1.0000
  C   C161      1.0  0.76362  0.38625999999999994  0.44145999999999996  1.0000
  C   C162      1.0  0.8939000000000002  0.23578  0.36218  1.0000
  C   C163      1.0  0.91586  0.26424  0.31444  1.0000
  C   C164      1.0  0.93236  0.18707  0.26431  1.0000
  C   C165      1.0  0.90715  0.25082  0.12330999999999999  1.0000
  C   C166      1.0  0.88673  0.22445  0.16561  1.0000
  C   C167      1.0  0.95191  0.21014  0.2156  1.0000
  C   C168      1.0  0.036149999999999995  0.22323  0.2186  1.0000
  C   C169      1.0  0.05175  0.25107  0.17528  1.0000
  C   C170      1.0  0.59359  0.5556  0.4988  1.0000
  C   C171      1.0  0.52922  0.58561  0.46004999999999996  1.0000
  C   C172      1.0  0.5399600000000002  0.60144  0.40925  1.0000
  C   C173      1.0  0.6185500000000003  0.58631  0.40185  1.0000
  C   C174      1.0  0.67932  0.5550599999999999  0.44186999999999993  1.0000
  C   C175      1.0  0.46979000000000004  0.62746  0.36333  1.0000
  C   C176      1.0  0.39995  0.55145  0.31542  1.0000
  C   C177      1.0  0.33343  0.57831  0.26501  1.0000
  C   C178      1.0  0.21567000000000008  0.37425  0.12408  1.0000
  C   C179      1.0  0.27894  0.44253  0.16618  1.0000
  C   C180      1.0  0.2646700000000001  0.50674  0.21658  1.0000
  C   C181      1.0  0.18373000000000003  0.49706  0.22016999999999998  1.0000
  C   C182      1.0  0.12433  0.42622  0.17704  1.0000
  C   C183      1.0  0.05549999999999998  0.40632  0.99901  1.0000
  C   C184      1.0  0.08537999999999993  0.43146  0.9600699999999999  1.0000
  C   C185      1.0  0.10117000000000002  0.36953  0.90942  1.0000
  C   C186      1.0  0.08591000000000001  0.2837  0.90223  1.0000
  C   C187      1.0  0.05477000000000001  0.26339  0.94239  1.0000
  C   C188      1.0  0.12706999999999996  0.3931499999999999  0.8633099999999999  1.0000
  C   C189      1.0  0.051069999999999977  0.41533  0.81547  1.0000
  C   C190      1.0  0.07828000000000002  0.43154  0.76531  1.0000
  C   C191      1.0  0.8742700000000002  0.40779  0.62411  1.0000
  C   C192      1.0  0.94252  0.3868  0.66644  1.0000
  C   C193      1.0  0.006729999999999995  0.4516  0.71666  1.0000
  C   C194      1.0  0.9969500000000001  0.53599  0.71993  1.0000
  C   C195      1.0  0.92616  0.55214  0.67657  1.0000
  C   C196      1.0  0.9420000000000001  0.09290999999999991  0.99819  1.0000
  C   C197      1.0  0.87357  0.028399999999999995  0.95943  1.0000
  C   C198      1.0  0.8070199999999998  0.039019999999999895  0.9084999999999999  1.0000
  C   C199      1.0  0.81449  0.11754  0.90098  1.0000
  C   C200      1.0  0.8855100000000001  0.17836999999999995  0.9409999999999998  1.0000
  C   C201      1.0  0.73533  0.96888  0.86248  1.0000
  C   C202      1.0  0.76376  0.8991999999999999  0.8146099999999998  1.0000
  C   C203      1.0  0.6867799999999998  0.83247  0.7643299999999998  1.0000
  C   C204      1.0  0.7508400000000002  0.71578  0.62353  1.0000
  C   C205      1.0  0.72429  0.77868  0.66572  1.0000
  C   C206      1.0  0.7101800000000003  0.7639099999999999  0.7158599999999999  1.0000
  C   C207      1.0  0.7234299999999999  0.6827899999999999  0.7190899999999999  1.0000
  C   C208      1.0  0.75138  0.62371  0.67583  1.0000
  N   N1        1.0  0.053000000000000005  0.92569  0.25542  1.0000
  N   N2        1.0  0.5265999999999998  0.7396899999999998  0.8940399999999998  1.0000
  N   N3        1.0  0.20124000000000003  0.8283900000000001  0.25507  1.0000
  N   N4        1.0  0.36818000000000006  0.6533999999999999  0.8935499999999998  1.0000
  N   N5        1.0  0.32933  0.55248  0.75511  1.0000
  N   N6        1.0  0.15357999999999997  0.02550999999999998  0.39393999999999996  1.0000
  N   N7        1.0  0.4264500000000001  0.70112  0.75561  1.0000
  N   N8        1.0  0.23952999999999997  0.86707  0.39356  1.0000
  N   N9        1.0  0.17663  0.54873  0.50995  1.0000
  N   N10       1.0  0.01101999999999993  0.7333999999999999  0.8721799999999998  1.0000
  N   N11       1.0  0.33169999999999994  0.4617  0.50986  1.0000
  N   N12       1.0  0.86128  0.63661  0.87086  1.0000
  N   N13       1.0  0.96192  0.67689  0.009319999999999998  1.0000
  N   N14       1.0  0.13651999999999997  0.51012  0.3711999999999999  1.0000
  N   N15       1.0  0.04945  0.83249  0.010509999999999999  1.0000
  N   N16       1.0  0.23306000000000004  0.3612  0.37173  1.0000
  N   N17       1.0  0.94701  0.07432000000000004  0.74459  1.0000
  N   N18       1.0  0.47342  0.26035  0.10598  1.0000
  N   N19       1.0  0.79876  0.17159  0.74494  1.0000
  N   N20       1.0  0.63184  0.3466  0.10646  1.0000
  N   N21       1.0  0.67067  0.44753  0.24490999999999996  1.0000
  N   N22       1.0  0.84643  0.9745  0.60607  1.0000
  N   N23       1.0  0.57351  0.29892  0.24441  1.0000
  N   N24       1.0  0.7604599999999999  0.13291999999999995  0.6064499999999999  1.0000
  N   N25       1.0  0.82326  0.45106000000000007  0.48991  1.0000
  N   N26       1.0  0.9889699999999999  0.26663  0.12781  1.0000
  N   N27       1.0  0.6683  0.53822  0.49019999999999997  1.0000
  N   N28       1.0  0.13873  0.36339  0.12914  1.0000
  N   N29       1.0  0.03807000000000002  0.32313  0.99069  1.0000
  N   N30       1.0  0.8633500000000002  0.48969999999999997  0.62876  1.0000
  N   N31       1.0  0.9505699999999999  0.16750999999999994  0.9894899999999998  1.0000
  N   N32       1.0  0.76682  0.63863  0.62827  1.0000
