data_image0
_chemical_formula_structural       Cu18H120C252N12O72
_chemical_formula_sum              "Cu18 H120 C252 N12 O72"
_cell_length_a       28.0834
_cell_length_b       28.0834
_cell_length_c       28.0834
_cell_angle_alpha    90.0
_cell_angle_beta     90.0
_cell_angle_gamma    90.0

_space_group_name_H-M_alt    "P 1"
_space_group_IT_number       1

loop_
  _space_group_symop_operation_xyz
  'x, y, z'

loop_
  _atom_site_type_symbol
  _atom_site_label
  _atom_site_symmetry_multiplicity
  _atom_site_fract_x
  _atom_site_fract_y
  _atom_site_fract_z
  _atom_site_occupancy
  Cu  Cu1       1.0  0.0  0.45657  0.0  1.0000
  Cu  Cu2       1.0  0.5  0.5  0.84048  1.0000
  Cu  Cu3       1.0  0.84048  0.5  0.5  1.0000
  Cu  Cu4       1.0  0.75379  0.5  0.5  1.0000
  Cu  Cu5       1.0  0.15952  0.5  0.5  1.0000
  Cu  Cu6       1.0  0.45657  0.0  0.0  1.0000
  Cu  Cu7       1.0  0.5  0.75379  0.5  1.0000
  Cu  Cu8       1.0  0.24619999999999995  0.5  0.5  1.0000
  Cu  Cu9       1.0  0.5  0.24619999999999995  0.5  1.0000
  Cu  Cu10      1.0  0.0  0.0  0.54343  1.0000
  Cu  Cu11      1.0  0.5  0.15952  0.5  1.0000
  Cu  Cu12      1.0  0.5  0.5  0.75379  1.0000
  Cu  Cu13      1.0  0.5  0.84048  0.5  1.0000
  Cu  Cu14      1.0  0.5  0.5  0.15952  1.0000
  Cu  Cu15      1.0  0.0  0.0  0.45657  1.0000
  Cu  Cu16      1.0  0.54343  0.0  0.0  1.0000
  Cu  Cu17      1.0  0.0  0.54343  0.0  1.0000
  Cu  Cu18      1.0  0.5  0.5  0.24619999999999995  1.0000
  H   H1        1.0  0.5  0.73694  0.12308  1.0000
  H   H2        1.0  0.10572  0.42350999999999994  0.8942699999999998  1.0000
  H   H3        1.0  0.5  0.26306  0.12308  1.0000
  H   H4        1.0  0.7207299999999999  0.64942  0.5  1.0000
  H   H5        1.0  0.73694  0.5  0.12308  1.0000
  H   H6        1.0  0.16911  0.83089  0.42356  1.0000
  H   H7        1.0  0.10572  0.8942699999999998  0.57648  1.0000
  H   H8        1.0  0.16911  0.83089  0.57644  1.0000
  H   H9        1.0  0.35244  0.5  0.8738099999999999  1.0000
  H   H10       1.0  0.42350999999999994  0.10572  0.10572  1.0000
  H   H11       1.0  0.5  0.87692  0.73694  1.0000
  H   H12       1.0  0.5  0.6475499999999998  0.12619  1.0000
  H   H13       1.0  0.26306  0.5  0.87692  1.0000
  H   H14       1.0  0.8942699999999998  0.8942699999999998  0.42350999999999994  1.0000
  H   H15       1.0  0.73694  0.87692  0.5  1.0000
  H   H16       1.0  0.12619  0.5  0.35244  1.0000
  H   H17       1.0  0.27926  0.5  0.64942  1.0000
  H   H18       1.0  0.83089  0.16911  0.57644  1.0000
  H   H19       1.0  0.8738099999999999  0.35244  0.5  1.0000
  H   H20       1.0  0.5  0.12308  0.26306  1.0000
  H   H21       1.0  0.83089  0.57644  0.16911  1.0000
  H   H22       1.0  0.35058  0.5  0.7207299999999999  1.0000
  H   H23       1.0  0.27926  0.5  0.35058  1.0000
  H   H24       1.0  0.35058  0.27926  0.5  1.0000
  H   H25       1.0  0.64942  0.27926  0.5  1.0000
  H   H26       1.0  0.12619  0.6475499999999998  0.5  1.0000
  H   H27       1.0  0.6475499999999998  0.8738099999999999  0.5  1.0000
  H   H28       1.0  0.5  0.26306  0.87692  1.0000
  H   H29       1.0  0.42350999999999994  0.8942699999999998  0.10572  1.0000
  H   H30       1.0  0.35058  0.5  0.27926  1.0000
  H   H31       1.0  0.42350999999999994  0.8942699999999998  0.8942699999999998  1.0000
  H   H32       1.0  0.5  0.7207299999999999  0.35058  1.0000
  H   H33       1.0  0.5  0.27926  0.35058  1.0000
  H   H34       1.0  0.83089  0.16911  0.42356  1.0000
  H   H35       1.0  0.12308  0.73694  0.5  1.0000
  H   H36       1.0  0.35244  0.8738099999999999  0.5  1.0000
  H   H37       1.0  0.57644  0.83089  0.16911  1.0000
  H   H38       1.0  0.83089  0.83089  0.57644  1.0000
  H   H39       1.0  0.87692  0.26306  0.5  1.0000
  H   H40       1.0  0.57644  0.83089  0.83089  1.0000
  H   H41       1.0  0.5  0.87692  0.26306  1.0000
  H   H42       1.0  0.35058  0.7207299999999999  0.5  1.0000
  H   H43       1.0  0.5  0.7207299999999999  0.64942  1.0000
  H   H44       1.0  0.16911  0.42356  0.83089  1.0000
  H   H45       1.0  0.8942699999999998  0.10572  0.57648  1.0000
  H   H46       1.0  0.42356  0.16911  0.16911  1.0000
  H   H47       1.0  0.83089  0.83089  0.42356  1.0000
  H   H48       1.0  0.5  0.64942  0.7207299999999999  1.0000
  H   H49       1.0  0.57648  0.8942699999999998  0.10572  1.0000
  H   H50       1.0  0.12619  0.35244  0.5  1.0000
  H   H51       1.0  0.10572  0.10572  0.57648  1.0000
  H   H52       1.0  0.16911  0.42356  0.16911  1.0000
  H   H53       1.0  0.8942699999999998  0.10572  0.42350999999999994  1.0000
  H   H54       1.0  0.27926  0.35058  0.5  1.0000
  H   H55       1.0  0.87692  0.5  0.73694  1.0000
  H   H56       1.0  0.7207299999999999  0.5  0.64942  1.0000
  H   H57       1.0  0.10572  0.10572  0.42350999999999994  1.0000
  H   H58       1.0  0.64942  0.5  0.7207299999999999  1.0000
  H   H59       1.0  0.5  0.6475499999999998  0.8738099999999999  1.0000
  H   H60       1.0  0.6475499999999998  0.5  0.8738099999999999  1.0000
  H   H61       1.0  0.64942  0.7207299999999999  0.5  1.0000
  H   H62       1.0  0.57648  0.10572  0.8942699999999998  1.0000
  H   H63       1.0  0.5  0.8738099999999999  0.6475499999999998  1.0000
  H   H64       1.0  0.83089  0.42356  0.83089  1.0000
  H   H65       1.0  0.8942699999999998  0.42350999999999994  0.8942699999999998  1.0000
  H   H66       1.0  0.8942699999999998  0.57648  0.10572  1.0000
  H   H67       1.0  0.8942699999999998  0.57648  0.8942699999999998  1.0000
  H   H68       1.0  0.8738099999999999  0.5  0.35244  1.0000
  H   H69       1.0  0.87692  0.73694  0.5  1.0000
  H   H70       1.0  0.6475499999999998  0.12619  0.5  1.0000
  H   H71       1.0  0.35244  0.12619  0.5  1.0000
  H   H72       1.0  0.42356  0.83089  0.16911  1.0000
  H   H73       1.0  0.8942699999999998  0.42350999999999994  0.10572  1.0000
  H   H74       1.0  0.6475499999999998  0.5  0.12619  1.0000
  H   H75       1.0  0.12308  0.5  0.73694  1.0000
  H   H76       1.0  0.5  0.27926  0.64942  1.0000
  H   H77       1.0  0.5  0.64942  0.27926  1.0000
  H   H78       1.0  0.26306  0.87692  0.5  1.0000
  H   H79       1.0  0.83089  0.57644  0.83089  1.0000
  H   H80       1.0  0.73694  0.5  0.87692  1.0000
  H   H81       1.0  0.27926  0.64942  0.5  1.0000
  H   H82       1.0  0.10572  0.57648  0.8942699999999998  1.0000
  H   H83       1.0  0.8738099999999999  0.6475499999999998  0.5  1.0000
  H   H84       1.0  0.83089  0.42356  0.16911  1.0000
  H   H85       1.0  0.5  0.12619  0.35244  1.0000
  H   H86       1.0  0.5  0.35244  0.12619  1.0000
  H   H87       1.0  0.10572  0.57648  0.10572  1.0000
  H   H88       1.0  0.57644  0.16911  0.16911  1.0000
  H   H89       1.0  0.7207299999999999  0.5  0.35058  1.0000
  H   H90       1.0  0.64942  0.5  0.27926  1.0000
  H   H91       1.0  0.5  0.12308  0.73694  1.0000
  H   H92       1.0  0.26306  0.12308  0.5  1.0000
  H   H93       1.0  0.12308  0.26306  0.5  1.0000
  H   H94       1.0  0.10572  0.8942699999999998  0.42350999999999994  1.0000
  H   H95       1.0  0.12619  0.5  0.6475499999999998  1.0000
  H   H96       1.0  0.5  0.73694  0.87692  1.0000
  H   H97       1.0  0.42356  0.83089  0.83089  1.0000
  H   H98       1.0  0.16911  0.16911  0.42356  1.0000
  H   H99       1.0  0.12308  0.5  0.26306  1.0000
  H   H100      1.0  0.5  0.35058  0.7207299999999999  1.0000
  H   H101      1.0  0.87692  0.5  0.26306  1.0000
  H   H102      1.0  0.16911  0.16911  0.57644  1.0000
  H   H103      1.0  0.5  0.8738099999999999  0.35244  1.0000
  H   H104      1.0  0.42356  0.16911  0.83089  1.0000
  H   H105      1.0  0.57648  0.8942699999999998  0.8942699999999998  1.0000
  H   H106      1.0  0.7207299999999999  0.35058  0.5  1.0000
  H   H107      1.0  0.5  0.35244  0.8738099999999999  1.0000
  H   H108      1.0  0.8738099999999999  0.5  0.6475499999999998  1.0000
  H   H109      1.0  0.5  0.12619  0.6475499999999998  1.0000
  H   H110      1.0  0.5  0.35058  0.27926  1.0000
  H   H111      1.0  0.42350999999999994  0.10572  0.8942699999999998  1.0000
  H   H112      1.0  0.35244  0.5  0.12619  1.0000
  H   H113      1.0  0.57648  0.10572  0.10572  1.0000
  H   H114      1.0  0.73694  0.12308  0.5  1.0000
  H   H115      1.0  0.8942699999999998  0.8942699999999998  0.57648  1.0000
  H   H116      1.0  0.16911  0.57644  0.83089  1.0000
  H   H117      1.0  0.10572  0.42350999999999994  0.10572  1.0000
  H   H118      1.0  0.16911  0.57644  0.16911  1.0000
  H   H119      1.0  0.26306  0.5  0.12308  1.0000
  H   H120      1.0  0.57644  0.16911  0.83089  1.0000
  C   C1        1.0  0.75515  0.5  0.28134  1.0000
  C   C2        1.0  0.5  0.25738  0.7998899999999998  1.0000
  C   C3        1.0  0.5  0.71806  0.84319  1.0000
  C   C4        1.0  0.10214  0.8978599999999998  0.5  1.0000
  C   C5        1.0  0.15493  0.5433  0.15493  1.0000
  C   C6        1.0  0.5  0.40896  0.79727  1.0000
  C   C7        1.0  0.28134  0.24483999999999997  0.5  1.0000
  C   C8        1.0  0.7998899999999998  0.25738  0.5  1.0000
  C   C9        1.0  0.10214  0.10214  0.5  1.0000
  C   C10       1.0  0.5  0.8978599999999998  0.8978599999999998  1.0000
  C   C11       1.0  0.5  0.66852  0.15871  1.0000
  C   C12       1.0  0.84319  0.5  0.28193  1.0000
  C   C13       1.0  0.88017  0.45670999999999995  0.11983  1.0000
  C   C14       1.0  0.5  0.7998899999999998  0.25738  1.0000
  C   C15       1.0  0.5  0.33147  0.84129  1.0000
  C   C16       1.0  0.5  0.74262  0.7998899999999998  1.0000
  C   C17       1.0  0.40896  0.5  0.20272999999999994  1.0000
  C   C18       1.0  0.28193  0.5  0.84319  1.0000
  C   C19       1.0  0.20264999999999997  0.5  0.35602  1.0000
  C   C20       1.0  0.5433  0.15493  0.15493  1.0000
  C   C21       1.0  0.5  0.84319  0.28193  1.0000
  C   C22       1.0  0.5  0.71866  0.75515  1.0000
  C   C23       1.0  0.71866  0.24483999999999997  0.5  1.0000
  C   C24       1.0  0.45669  0.15493  0.15493  1.0000
  C   C25       1.0  0.45670999999999995  0.11983  0.11983  1.0000
  C   C26       1.0  0.15493  0.5433  0.84507  1.0000
  C   C27       1.0  0.35602  0.79735  0.5  1.0000
  C   C28       1.0  0.5  0.71806  0.15681  1.0000
  C   C29       1.0  0.88017  0.88017  0.54328  1.0000
  C   C30       1.0  0.28134  0.5  0.75515  1.0000
  C   C31       1.0  0.11983  0.11983  0.54328  1.0000
  C   C32       1.0  0.84129  0.66852  0.5  1.0000
  C   C33       1.0  0.84129  0.5  0.33147  1.0000
  C   C34       1.0  0.20272999999999994  0.5  0.40896  1.0000
  C   C35       1.0  0.15681  0.71806  0.5  1.0000
  C   C36       1.0  0.71806  0.84319  0.5  1.0000
  C   C37       1.0  0.84129  0.5  0.66852  1.0000
  C   C38       1.0  0.7998899999999998  0.74262  0.5  1.0000
  C   C39       1.0  0.20264999999999997  0.6439699999999999  0.5  1.0000
  C   C40       1.0  0.84507  0.45669  0.15493  1.0000
  C   C41       1.0  0.84319  0.28193  0.5  1.0000
  C   C42       1.0  0.5  0.331  0.24584  1.0000
  C   C43       1.0  0.75515  0.71866  0.5  1.0000
  C   C44       1.0  0.24584  0.66899  0.5  1.0000
  C   C45       1.0  0.25738  0.5  0.7998899999999998  1.0000
  C   C46       1.0  0.74262  0.5  0.7998899999999998  1.0000
  C   C47       1.0  0.79735  0.5  0.6439699999999999  1.0000
  C   C48       1.0  0.35602  0.5  0.20264999999999997  1.0000
  C   C49       1.0  0.5  0.24584  0.66899  1.0000
  C   C50       1.0  0.5  0.35602  0.79735  1.0000
  C   C51       1.0  0.45669  0.15493  0.84507  1.0000
  C   C52       1.0  0.5  0.1724  0.82759  1.0000
  C   C53       1.0  0.20011  0.74262  0.5  1.0000
  C   C54       1.0  0.11983  0.88017  0.54328  1.0000
  C   C55       1.0  0.11983  0.11983  0.45670999999999995  1.0000
  C   C56       1.0  0.84507  0.5433  0.15493  1.0000
  C   C57       1.0  0.28193  0.84319  0.5  1.0000
  C   C58       1.0  0.84507  0.15493  0.45669  1.0000
  C   C59       1.0  0.84319  0.5  0.71806  1.0000
  C   C60       1.0  0.40896  0.5  0.79727  1.0000
  C   C61       1.0  0.88017  0.11983  0.45670999999999995  1.0000
  C   C62       1.0  0.66852  0.15871  0.5  1.0000
  C   C63       1.0  0.5  0.06454  0.93545  1.0000
  C   C64       1.0  0.5  0.93545  0.93545  1.0000
  C   C65       1.0  0.24483999999999997  0.5  0.71866  1.0000
  C   C66       1.0  0.5  0.84129  0.33147  1.0000
  C   C67       1.0  0.84507  0.84507  0.5433  1.0000
  C   C68       1.0  0.84507  0.45669  0.84507  1.0000
  C   C69       1.0  0.15493  0.45669  0.15493  1.0000
  C   C70       1.0  0.25738  0.7998899999999998  0.5  1.0000
  C   C71       1.0  0.5  0.20272999999999994  0.40896  1.0000
  C   C72       1.0  0.5  0.79735  0.6439699999999999  1.0000
  C   C73       1.0  0.88017  0.54328  0.88017  1.0000
  C   C74       1.0  0.331  0.75416  0.5  1.0000
  C   C75       1.0  0.71806  0.5  0.84319  1.0000
  C   C76       1.0  0.59103  0.20272999999999994  0.5  1.0000
  C   C77       1.0  0.5  0.15871  0.33147  1.0000
  C   C78       1.0  0.5  0.33147  0.15871  1.0000
  C   C79       1.0  0.1724  0.5  0.1724  1.0000
  C   C80       1.0  0.88017  0.11983  0.54328  1.0000
  C   C81       1.0  0.71806  0.5  0.15681  1.0000
  C   C82       1.0  0.33147  0.15871  0.5  1.0000
  C   C83       1.0  0.71866  0.5  0.24483999999999997  1.0000
  C   C84       1.0  0.84507  0.5433  0.84507  1.0000
  C   C85       1.0  0.8978599999999998  0.10214  0.5  1.0000
  C   C86       1.0  0.15681  0.5  0.71806  1.0000
  C   C87       1.0  0.7998899999999998  0.5  0.74262  1.0000
  C   C88       1.0  0.5  0.15871  0.66852  1.0000
  C   C89       1.0  0.5  0.6439699999999999  0.20264999999999997  1.0000
  C   C90       1.0  0.59103  0.5  0.79727  1.0000
  C   C91       1.0  0.20272999999999994  0.40896  0.5  1.0000
  C   C92       1.0  0.1724  0.5  0.82759  1.0000
  C   C93       1.0  0.33147  0.84129  0.5  1.0000
  C   C94       1.0  0.5  0.24483999999999997  0.28134  1.0000
  C   C95       1.0  0.54328  0.11983  0.11983  1.0000
  C   C96       1.0  0.28193  0.15681  0.5  1.0000
  C   C97       1.0  0.15871  0.66852  0.5  1.0000
  C   C98       1.0  0.75515  0.5  0.71866  1.0000
  C   C99       1.0  0.35602  0.5  0.79735  1.0000
  C   C100      1.0  0.15493  0.84507  0.5433  1.0000
  C   C101      1.0  0.84507  0.84507  0.45669  1.0000
  C   C102      1.0  0.20264999999999997  0.5  0.6439699999999999  1.0000
  C   C103      1.0  0.84319  0.71806  0.5  1.0000
  C   C104      1.0  0.20011  0.5  0.74262  1.0000
  C   C105      1.0  0.93545  0.93545  0.5  1.0000
  C   C106      1.0  0.45670999999999995  0.88017  0.88017  1.0000
  C   C107      1.0  0.5  0.24483999999999997  0.71866  1.0000
  C   C108      1.0  0.66899  0.24584  0.5  1.0000
  C   C109      1.0  0.5  0.75515  0.28134  1.0000
  C   C110      1.0  0.66899  0.5  0.24584  1.0000
  C   C111      1.0  0.74262  0.5  0.20011  1.0000
  C   C112      1.0  0.40896  0.20272999999999994  0.5  1.0000
  C   C113      1.0  0.20011  0.5  0.25738  1.0000
  C   C114      1.0  0.5  0.66852  0.84129  1.0000
  C   C115      1.0  0.1724  0.82759  0.5  1.0000
  C   C116      1.0  0.59103  0.5  0.20272999999999994  1.0000
  C   C117      1.0  0.5  0.79727  0.40896  1.0000
  C   C118      1.0  0.5  0.82759  0.1724  1.0000
  C   C119      1.0  0.33147  0.5  0.15871  1.0000
  C   C120      1.0  0.71806  0.15681  0.5  1.0000
  C   C121      1.0  0.5  0.28134  0.24483999999999997  1.0000
  C   C122      1.0  0.45670999999999995  0.11983  0.88017  1.0000
  C   C123      1.0  0.15681  0.5  0.28193  1.0000
  C   C124      1.0  0.54328  0.88017  0.11983  1.0000
  C   C125      1.0  0.06454  0.93545  0.5  1.0000
  C   C126      1.0  0.11983  0.45670999999999995  0.88017  1.0000
  C   C127      1.0  0.54328  0.11983  0.88017  1.0000
  C   C128      1.0  0.5  0.66899  0.75416  1.0000
  C   C129      1.0  0.5  0.331  0.75416  1.0000
  C   C130      1.0  0.5  0.28193  0.84319  1.0000
  C   C131      1.0  0.11983  0.88017  0.45670999999999995  1.0000
  C   C132      1.0  0.331  0.24584  0.5  1.0000
  C   C133      1.0  0.5  0.66899  0.24584  1.0000
  C   C134      1.0  0.45669  0.84507  0.84507  1.0000
  C   C135      1.0  0.45670999999999995  0.88017  0.11983  1.0000
  C   C136      1.0  0.5  0.75416  0.331  1.0000
  C   C137      1.0  0.74262  0.7998899999999998  0.5  1.0000
  C   C138      1.0  0.331  0.5  0.24584  1.0000
  C   C139      1.0  0.20272999999999994  0.5  0.59103  1.0000
  C   C140      1.0  0.5  0.15681  0.71806  1.0000
  C   C141      1.0  0.79727  0.40896  0.5  1.0000
  C   C142      1.0  0.75515  0.28134  0.5  1.0000
  C   C143      1.0  0.82759  0.5  0.1724  1.0000
  C   C144      1.0  0.6439699999999999  0.5  0.20264999999999997  1.0000
  C   C145      1.0  0.11983  0.54328  0.88017  1.0000
  C   C146      1.0  0.15871  0.33147  0.5  1.0000
  C   C147      1.0  0.24584  0.331  0.5  1.0000
  C   C148      1.0  0.5  0.20272999999999994  0.59103  1.0000
  C   C149      1.0  0.28134  0.5  0.24483999999999997  1.0000
  C   C150      1.0  0.20264999999999997  0.35602  0.5  1.0000
  C   C151      1.0  0.5  0.20011  0.25738  1.0000
  C   C152      1.0  0.88017  0.88017  0.45670999999999995  1.0000
  C   C153      1.0  0.79735  0.35602  0.5  1.0000
  C   C154      1.0  0.10214  0.5  0.8978599999999998  1.0000
  C   C155      1.0  0.5  0.75515  0.71866  1.0000
  C   C156      1.0  0.66852  0.5  0.84129  1.0000
  C   C157      1.0  0.5  0.1724  0.1724  1.0000
  C   C158      1.0  0.15493  0.45669  0.84507  1.0000
  C   C159      1.0  0.5  0.06454  0.06454  1.0000
  C   C160      1.0  0.8978599999999998  0.5  0.8978599999999998  1.0000
  C   C161      1.0  0.24483999999999997  0.5  0.28134  1.0000
  C   C162      1.0  0.93545  0.5  0.06454  1.0000
  C   C163      1.0  0.75416  0.66899  0.5  1.0000
  C   C164      1.0  0.24483999999999997  0.28134  0.5  1.0000
  C   C165      1.0  0.59103  0.79727  0.5  1.0000
  C   C166      1.0  0.15871  0.5  0.33147  1.0000
  C   C167      1.0  0.15493  0.15493  0.45669  1.0000
  C   C168      1.0  0.66899  0.75416  0.5  1.0000
  C   C169      1.0  0.93545  0.06454  0.5  1.0000
  C   C170      1.0  0.79735  0.5  0.35602  1.0000
  C   C171      1.0  0.54328  0.88017  0.88017  1.0000
  C   C172      1.0  0.5  0.15681  0.28193  1.0000
  C   C173      1.0  0.10214  0.5  0.10214  1.0000
  C   C174      1.0  0.5  0.6439699999999999  0.79735  1.0000
  C   C175      1.0  0.66899  0.5  0.75416  1.0000
  C   C176      1.0  0.5433  0.84507  0.15493  1.0000
  C   C177      1.0  0.5  0.59103  0.20272999999999994  1.0000
  C   C178      1.0  0.20272999999999994  0.59103  0.5  1.0000
  C   C179      1.0  0.5  0.20264999999999997  0.35602  1.0000
  C   C180      1.0  0.06454  0.5  0.06454  1.0000
  C   C181      1.0  0.5  0.10214  0.10214  1.0000
  C   C182      1.0  0.5  0.93545  0.06454  1.0000
  C   C183      1.0  0.82759  0.5  0.82759  1.0000
  C   C184      1.0  0.5  0.25738  0.20011  1.0000
  C   C185      1.0  0.5  0.20264999999999997  0.6439699999999999  1.0000
  C   C186      1.0  0.6439699999999999  0.79735  0.5  1.0000
  C   C187      1.0  0.06454  0.06454  0.5  1.0000
  C   C188      1.0  0.11983  0.54328  0.11983  1.0000
  C   C189      1.0  0.66852  0.5  0.15871  1.0000
  C   C190      1.0  0.331  0.5  0.75416  1.0000
  C   C191      1.0  0.24584  0.5  0.331  1.0000
  C   C192      1.0  0.5  0.7998899999999998  0.74262  1.0000
  C   C193      1.0  0.75416  0.5  0.66899  1.0000
  C   C194      1.0  0.79735  0.6439699999999999  0.5  1.0000
  C   C195      1.0  0.5  0.24584  0.331  1.0000
  C   C196      1.0  0.88017  0.45670999999999995  0.88017  1.0000
  C   C197      1.0  0.5  0.84319  0.71806  1.0000
  C   C198      1.0  0.75416  0.5  0.331  1.0000
  C   C199      1.0  0.25738  0.20011  0.5  1.0000
  C   C200      1.0  0.82759  0.82759  0.5  1.0000
  C   C201      1.0  0.5  0.20011  0.74262  1.0000
  C   C202      1.0  0.79727  0.5  0.59103  1.0000
  C   C203      1.0  0.66852  0.84129  0.5  1.0000
  C   C204      1.0  0.06454  0.5  0.93545  1.0000
  C   C205      1.0  0.93545  0.5  0.93545  1.0000
  C   C206      1.0  0.5433  0.15493  0.84507  1.0000
  C   C207      1.0  0.5  0.75416  0.66899  1.0000
  C   C208      1.0  0.5  0.40896  0.20272999999999994  1.0000
  C   C209      1.0  0.5  0.74262  0.20011  1.0000
  C   C210      1.0  0.11983  0.45670999999999995  0.11983  1.0000
  C   C211      1.0  0.79727  0.5  0.40896  1.0000
  C   C212      1.0  0.5  0.84129  0.66852  1.0000
  C   C213      1.0  0.35602  0.20264999999999997  0.5  1.0000
  C   C214      1.0  0.7998899999999998  0.5  0.25738  1.0000
  C   C215      1.0  0.5  0.79735  0.35602  1.0000
  C   C216      1.0  0.5  0.28134  0.75515  1.0000
  C   C217      1.0  0.82759  0.1724  0.5  1.0000
  C   C218      1.0  0.79727  0.59103  0.5  1.0000
  C   C219      1.0  0.15681  0.28193  0.5  1.0000
  C   C220      1.0  0.88017  0.54328  0.11983  1.0000
  C   C221      1.0  0.15493  0.84507  0.45669  1.0000
  C   C222      1.0  0.5  0.71866  0.24483999999999997  1.0000
  C   C223      1.0  0.5433  0.84507  0.84507  1.0000
  C   C224      1.0  0.8978599999999998  0.8978599999999998  0.5  1.0000
  C   C225      1.0  0.74262  0.20011  0.5  1.0000
  C   C226      1.0  0.33147  0.5  0.84129  1.0000
  C   C227      1.0  0.5  0.82759  0.82759  1.0000
  C   C228      1.0  0.84507  0.15493  0.5433  1.0000
  C   C229      1.0  0.45669  0.84507  0.15493  1.0000
  C   C230      1.0  0.75416  0.331  0.5  1.0000
  C   C231      1.0  0.8978599999999998  0.5  0.10214  1.0000
  C   C232      1.0  0.15871  0.5  0.66852  1.0000
  C   C233      1.0  0.5  0.79727  0.59103  1.0000
  C   C234      1.0  0.24483999999999997  0.71866  0.5  1.0000
  C   C235      1.0  0.6439699999999999  0.20264999999999997  0.5  1.0000
  C   C236      1.0  0.5  0.10214  0.8978599999999998  1.0000
  C   C237      1.0  0.5  0.28193  0.15681  1.0000
  C   C238      1.0  0.40896  0.79727  0.5  1.0000
  C   C239      1.0  0.71866  0.75515  0.5  1.0000
  C   C240      1.0  0.84129  0.33147  0.5  1.0000
  C   C241      1.0  0.28134  0.75515  0.5  1.0000
  C   C242      1.0  0.28193  0.5  0.15681  1.0000
  C   C243      1.0  0.20011  0.25738  0.5  1.0000
  C   C244      1.0  0.5  0.8978599999999998  0.10214  1.0000
  C   C245      1.0  0.15493  0.15493  0.5433  1.0000
  C   C246      1.0  0.5  0.59103  0.79727  1.0000
  C   C247      1.0  0.6439699999999999  0.5  0.79735  1.0000
  C   C248      1.0  0.1724  0.1724  0.5  1.0000
  C   C249      1.0  0.24584  0.5  0.66899  1.0000
  C   C250      1.0  0.71866  0.5  0.75515  1.0000
  C   C251      1.0  0.25738  0.5  0.20011  1.0000
  C   C252      1.0  0.5  0.35602  0.20264999999999997  1.0000
  N   N1        1.0  0.5  0.20832999999999993  0.20832999999999993  1.0000
  N   N2        1.0  0.20832999999999993  0.79167  0.5  1.0000
  N   N3        1.0  0.20832999999999993  0.5  0.20832999999999993  1.0000
  N   N4        1.0  0.79167  0.5  0.79167  1.0000
  N   N5        1.0  0.5  0.79167  0.20832999999999993  1.0000
  N   N6        1.0  0.79167  0.20832999999999993  0.5  1.0000
  N   N7        1.0  0.20832999999999993  0.5  0.79167  1.0000
  N   N8        1.0  0.5  0.79167  0.79167  1.0000
  N   N9        1.0  0.20832999999999993  0.20832999999999993  0.5  1.0000
  N   N10       1.0  0.79167  0.79167  0.5  1.0000
  N   N11       1.0  0.5  0.20832999999999993  0.79167  1.0000
  N   N12       1.0  0.79167  0.5  0.20832999999999993  1.0000
  O   O1        1.0  0.5  0.24337  0.4298  1.0000
  O   O2        1.0  0.24337  0.5  0.4298  1.0000
  O   O3        1.0  0.83793  0.42985999999999996  0.5  1.0000
  O   O4        1.0  0.5  0.57019  0.7566299999999999  1.0000
  O   O5        1.0  0.57019  0.5  0.7566299999999999  1.0000
  O   O6        1.0  0.9501699999999997  0.95016  0.45938  1.0000
  O   O7        1.0  0.04983  0.45938  0.04983  1.0000
  O   O8        1.0  0.5  0.24337  0.57019  1.0000
  O   O9        1.0  0.24337  0.5  0.57019  1.0000
  O   O10       1.0  0.57019  0.5  0.24337  1.0000
  O   O11       1.0  0.7566299999999999  0.57019  0.5  1.0000
  O   O12       1.0  0.5  0.16206999999999996  0.57014  1.0000
  O   O13       1.0  0.57014  0.83793  0.5  1.0000
  O   O14       1.0  0.24337  0.57019  0.5  1.0000
  O   O15       1.0  0.5  0.4298  0.24337  1.0000
  O   O16       1.0  0.83793  0.57014  0.5  1.0000
  O   O17       1.0  0.95016  0.04983  0.45938  1.0000
  O   O18       1.0  0.04983  0.54062  0.04983  1.0000
  O   O19       1.0  0.5  0.42985999999999996  0.83793  1.0000
  O   O20       1.0  0.4298  0.5  0.7566299999999999  1.0000
  O   O21       1.0  0.95016  0.04983  0.54062  1.0000
  O   O22       1.0  0.16206999999999996  0.5  0.42985999999999996  1.0000
  O   O23       1.0  0.57019  0.24337  0.5  1.0000
  O   O24       1.0  0.95016  0.45938  0.95016  1.0000
  O   O25       1.0  0.04983  0.45938  0.95016  1.0000
  O   O26       1.0  0.42985999999999996  0.16206999999999996  0.5  1.0000
  O   O27       1.0  0.54062  0.95016  0.04983  1.0000
  O   O28       1.0  0.5  0.57014  0.16206999999999996  1.0000
  O   O29       1.0  0.95016  0.45938  0.04983  1.0000
  O   O30       1.0  0.54062  0.95016  0.95016  1.0000
  O   O31       1.0  0.04983  0.04983  0.45938  1.0000
  O   O32       1.0  0.5  0.7566299999999999  0.4298  1.0000
  O   O33       1.0  0.45938  0.04983  0.95016  1.0000
  O   O34       1.0  0.04983  0.95016  0.45938  1.0000
  O   O35       1.0  0.5  0.57019  0.24337  1.0000
  O   O36       1.0  0.5  0.4298  0.7566299999999999  1.0000
  O   O37       1.0  0.16206999999999996  0.57014  0.5  1.0000
  O   O38       1.0  0.5  0.7566299999999999  0.57019  1.0000
  O   O39       1.0  0.42985999999999996  0.5  0.16206999999999996  1.0000
  O   O40       1.0  0.9501699999999997  0.95016  0.54062  1.0000
  O   O41       1.0  0.04983  0.95016  0.54062  1.0000
  O   O42       1.0  0.83793  0.5  0.57014  1.0000
  O   O43       1.0  0.7566299999999999  0.5  0.4298  1.0000
  O   O44       1.0  0.4298  0.5  0.24337  1.0000
  O   O45       1.0  0.57014  0.5  0.83793  1.0000
  O   O46       1.0  0.42985999999999996  0.83793  0.5  1.0000
  O   O47       1.0  0.5  0.83793  0.42985999999999996  1.0000
  O   O48       1.0  0.16206999999999996  0.42985999999999996  0.5  1.0000
  O   O49       1.0  0.7566299999999999  0.5  0.57019  1.0000
  O   O50       1.0  0.45938  0.04983  0.04983  1.0000
  O   O51       1.0  0.57014  0.5  0.16206999999999996  1.0000
  O   O52       1.0  0.5  0.16206999999999996  0.42985999999999996  1.0000
  O   O53       1.0  0.5  0.57014  0.83793  1.0000
  O   O54       1.0  0.24337  0.4298  0.5  1.0000
  O   O55       1.0  0.04983  0.04983  0.54062  1.0000
  O   O56       1.0  0.4298  0.24337  0.5  1.0000
  O   O57       1.0  0.4298  0.7566299999999999  0.5  1.0000
  O   O58       1.0  0.5  0.83793  0.57014  1.0000
  O   O59       1.0  0.83793  0.5  0.42985999999999996  1.0000
  O   O60       1.0  0.54062  0.04983  0.04983  1.0000
  O   O61       1.0  0.5  0.42985999999999996  0.16206999999999996  1.0000
  O   O62       1.0  0.45938  0.95016  0.95016  1.0000
  O   O63       1.0  0.95016  0.54062  0.04983  1.0000
  O   O64       1.0  0.45938  0.95016  0.04983  1.0000
  O   O65       1.0  0.42985999999999996  0.5  0.83793  1.0000
  O   O66       1.0  0.57019  0.7566299999999999  0.5  1.0000
  O   O67       1.0  0.57014  0.16206999999999996  0.5  1.0000
  O   O68       1.0  0.95016  0.54062  0.95016  1.0000
  O   O69       1.0  0.54062  0.04983  0.95016  1.0000
  O   O70       1.0  0.04983  0.54062  0.95016  1.0000
  O   O71       1.0  0.7566299999999999  0.4298  0.5  1.0000
  O   O72       1.0  0.16206999999999996  0.5  0.57014  1.0000
