data_image0
_chemical_formula_structural       Zn16H160C144N32O64
_chemical_formula_sum              "Zn16 H160 C144 N32 O64"
_cell_length_a       9.87119
_cell_length_b       19.922979999999995
_cell_length_c       28.49447
_cell_angle_alpha    70.03066
_cell_angle_beta     79.80699999999999
_cell_angle_gamma    75.56966

_symmetry_space_group_name_H-M    'P 1'
_symmetry_Int_Tables_number       1

loop_
  _symmetry_equiv_pos_as_xyz
  'x,y,z'

loop_
  _atom_site_type_symbol
  _atom_site_label
  _atom_site_symmetry_multiplicity
  _atom_site_fract_x
  _atom_site_fract_y
  _atom_site_fract_z
  _atom_site_occupancy
  Zn  Zn1       1.0  0.10371999999999997  0.5210399999999998  0.86758  1.0000
  Zn  Zn2       1.0  0.07017999999999999  0.5124400000000001  0.74561  1.0000
  Zn  Zn3       1.0  0.03261000000000016  0.5128599999999998  0.62265  1.0000
  Zn  Zn4       1.0  0.89628  0.4789699999999999  0.13243  1.0000
  Zn  Zn5       1.0  0.9298199999999998  0.48757  0.25439  1.0000
  Zn  Zn6       1.0  0.9674  0.48714999999999997  0.3773599999999999  1.0000
  Zn  Zn7       1.0  1.0000000000066725e-05  0.4999999999999999  0.0  1.0000
  Zn  Zn8       1.0  0.9999899999999999  0.5000000000000001  0.50002  1.0000
  Zn  Zn9       1.0  0.9988  0.9783899999999999  0.63225  1.0000
  Zn  Zn10      1.0  0.8311699999999999  0.9862299999999999  0.75428  1.0000
  Zn  Zn11      1.0  0.6669099999999999  0.98643  0.87737  1.0000
  Zn  Zn12      1.0  0.0012300000000000052  0.021670000000000002  0.36775  1.0000
  Zn  Zn13      1.0  0.16882  0.013789999999999983  0.24571  1.0000
  Zn  Zn14      1.0  0.33311  0.01357000000000001  0.12263  1.0000
  Zn  Zn15      1.0  0.0019900000000000516  0.9999199999999998  0.49983  1.0000
  Zn  Zn16      1.0  0.49998999999999993  1.0000000000061594e-05  0.99998  1.0000
  H   H1        1.0  0.14593000000000006  0.36658999999999986  0.98972  1.0000
  H   H2        1.0  0.35418000000000005  0.04786999999999996  0.91887  1.0000
  H   H3        1.0  0.24844999999999995  0.036270000000000045  0.97384  1.0000
  H   H4        1.0  0.7722  0.73005  0.9201699999999999  1.0000
  H   H5        1.0  0.8707499999999999  0.7499799999999996  0.8599  1.0000
  H   H6        1.0  0.9392899999999993  0.75195  0.91334  1.0000
  H   H7        1.0  0.27325  0.5926500000000001  0.73623  1.0000
  H   H8        1.0  0.9408799999999999  0.6379099999999999  0.74258  1.0000
  H   H9        1.0  0.9090399999999998  0.62665  0.68916  1.0000
  H   H10       1.0  0.87484  0.42673999999999995  0.75609  1.0000
  H   H11       1.0  0.22469000000000003  0.39742000000000005  0.80361  1.0000
  H   H12       1.0  0.19555000000000003  0.38609999999999994  0.74994  1.0000
  H   H13       1.0  0.8175200000000001  0.6233399999999997  0.51482  1.0000
  H   H14       1.0  0.10696999999999998  0.26624  0.99633  1.0000
  H   H15       1.0  0.3012500000000001  0.8905099999999999  0.59849  1.0000
  H   H16       1.0  0.26815000000000005  0.87915  0.54429  1.0000
  H   H17       1.0  0.4237799999999999  0.16012000000000007  0.8720599999999998  1.0000
  H   H18       1.0  0.37751  0.29380999999999985  0.85737  1.0000
  H   H19       1.0  0.46612000000000003  0.5836999999999999  0.71154  1.0000
  H   H20       1.0  0.70728  0.5968499999999999  0.6793800000000001  1.0000
  H   H21       1.0  0.78462  0.5989799999999997  0.82273  1.0000
  H   H22       1.0  0.5424299999999999  0.5802300000000001  0.85677  1.0000
  H   H23       1.0  0.8155400000000007  0.34462  0.85768  1.0000
  H   H24       1.0  0.7131500000000001  0.40517  0.89112  1.0000
  H   H25       1.0  0.8685200000000001  0.34468999999999994  0.91457  1.0000
  H   H26       1.0  0.4648399999999999  0.59063  0.62432  1.0000
  H   H27       1.0  0.3561500000000001  0.6711699999999999  0.63432  1.0000
  H   H28       1.0  0.36046  0.65231  0.57681  1.0000
  H   H29       1.0  0.6817200000000001  0.4242699999999999  0.78497  1.0000
  H   H30       1.0  0.43964000000000003  0.41162  0.8171199999999998  1.0000
  H   H31       1.0  0.35645999999999983  0.42121999999999993  0.6713  1.0000
  H   H32       1.0  0.6029400000000003  0.43353999999999987  0.63845  1.0000
  H   H33       1.0  0.71462  0.71745  0.64743  1.0000
  H   H34       1.0  0.49854000000000015  0.8106899999999997  0.64477  1.0000
  H   H35       1.0  0.44258999999999993  0.8026399999999999  0.50013  1.0000
  H   H36       1.0  0.6528700000000001  0.7065  0.50431  1.0000
  H   H37       1.0  0.41934  0.32949  0.55951  1.0000
  H   H38       1.0  0.28447000000000017  0.27877  0.5855  1.0000
  H   H39       1.0  0.36272000000000004  0.3074999999999999  0.62543  1.0000
  H   H40       1.0  0.15831  0.13349  0.01182  1.0000
  H   H41       1.0  0.85406  0.63341  0.010280000000000001  1.0000
  H   H42       1.0  0.6457999999999999  0.9521499999999999  0.08112  1.0000
  H   H43       1.0  0.75153  0.9637399999999999  0.02616  1.0000
  H   H44       1.0  0.22779  0.26995  0.07983  1.0000
  H   H45       1.0  0.12924  0.25002  0.1401  1.0000
  H   H46       1.0  0.06071000000000001  0.24805999999999995  0.08666000000000001  1.0000
  H   H47       1.0  0.7267500000000001  0.40736  0.26377  1.0000
  H   H48       1.0  0.059109999999999975  0.3621  0.25743  1.0000
  H   H49       1.0  0.09095999999999997  0.3733699999999999  0.31084000000000006  1.0000
  H   H50       1.0  0.12516  0.57326  0.24391  1.0000
  H   H51       1.0  0.77531  0.6025799999999999  0.19639  1.0000
  H   H52       1.0  0.80444  0.61391  0.25006  1.0000
  H   H53       1.0  0.18251  0.3766599999999999  0.48519000000000007  1.0000
  H   H54       1.0  0.89302  0.73377  0.00367  1.0000
  H   H55       1.0  0.6989999999999998  0.10945  0.40152  1.0000
  H   H56       1.0  0.73155  0.12049999999999997  0.45595  1.0000
  H   H57       1.0  0.57621  0.83988  0.12794  1.0000
  H   H58       1.0  0.62248  0.7061999999999998  0.14263  1.0000
  H   H59       1.0  0.5338800000000001  0.41630999999999996  0.28846  1.0000
  H   H60       1.0  0.2927100000000001  0.40314999999999995  0.32062  1.0000
  H   H61       1.0  0.21536999999999998  0.40103000000000005  0.17727  1.0000
  H   H62       1.0  0.4575699999999999  0.41978  0.14324  1.0000
  H   H63       1.0  0.18446000000000015  0.6553799999999997  0.14233  1.0000
  H   H64       1.0  0.28685  0.5948399999999998  0.10889  1.0000
  H   H65       1.0  0.13147000000000003  0.65532  0.08544000000000002  1.0000
  H   H66       1.0  0.5351599999999996  0.40938  0.37568  1.0000
  H   H67       1.0  0.64384  0.3288399999999999  0.36569  1.0000
  H   H68       1.0  0.63953  0.34769999999999984  0.42319  1.0000
  H   H69       1.0  0.3182700000000001  0.57574  0.21503  1.0000
  H   H70       1.0  0.5603500000000002  0.5883799999999999  0.18288  1.0000
  H   H71       1.0  0.64353  0.57879  0.3287  1.0000
  H   H72       1.0  0.39706  0.5664699999999999  0.36155  1.0000
  H   H73       1.0  0.28547  0.28254  0.35258  1.0000
  H   H74       1.0  0.5016  0.18935  0.35522  1.0000
  H   H75       1.0  0.55746  0.19736  0.49989  1.0000
  H   H76       1.0  0.34712000000000004  0.2934399999999999  0.49572000000000005  1.0000
  H   H77       1.0  0.58066  0.67051  0.44049  1.0000
  H   H78       1.0  0.71552  0.72124  0.4145  1.0000
  H   H79       1.0  0.63729  0.6924999999999998  0.37457000000000007  1.0000
  H   H80       1.0  0.8416800000000001  0.8665099999999998  0.98818  1.0000
  H   H81       1.0  0.004719999999999991  0.13331  0.51018  1.0000
  H   H82       1.0  0.81904  0.45198999999999995  0.58111  1.0000
  H   H83       1.0  0.75687  0.4635799999999998  0.52623  1.0000
  H   H84       1.0  0.9219399999999999  0.77175  0.57902  1.0000
  H   H85       1.0  0.9815399999999999  0.7501399999999999  0.6391  1.0000
  H   H86       1.0  0.10467000000000028  0.7478399999999996  0.58526  1.0000
  H   H87       1.0  0.10575999999999999  0.9059199999999997  0.7637600000000001  1.0000
  H   H88       1.0  0.8251200000000003  0.8603999999999998  0.75755  1.0000
  H   H89       1.0  0.7276799999999999  0.8717899999999997  0.81096  1.0000
  H   H90       1.0  0.5594900000000002  0.07234000000000002  0.74384  1.0000
  H   H91       1.0  0.92824  0.10148000000000001  0.69632  1.0000
  H   H92       1.0  0.8328799999999998  0.11268000000000004  0.75003  1.0000
  H   H93       1.0  0.45178000000000007  0.87674  0.98507  1.0000
  H   H94       1.0  0.87076  0.23339000000000001  0.50381  1.0000
  H   H95       1.0  0.28834000000000004  0.60938  0.90158  1.0000
  H   H96       1.0  0.18855000000000008  0.62098  0.95562  1.0000
  H   H97       1.0  0.9548700000000001  0.34015000000000006  0.62752  1.0000
  H   H98       1.0  0.029260000000000078  0.20648999999999995  0.64222  1.0000
  H   H99       1.0  0.2637599999999999  0.9162700000000003  0.78819  1.0000
  H   H100      1.0  0.4854000000000001  0.90235  0.82059  1.0000
  H   H101      1.0  0.7118499999999998  0.8994299999999998  0.67751  1.0000
  H   H102      1.0  0.48577999999999993  0.91883  0.64315  1.0000
  H   H103      1.0  0.52243  0.15353999999999995  0.64236  1.0000
  H   H104      1.0  0.514  0.09231000000000002  0.60969  1.0000
  H   H105      1.0  0.63208  0.15294  0.58526  1.0000
  H   H106      1.0  0.17868999999999993  0.90958  0.87559  1.0000
  H   H107      1.0  0.16287999999999997  0.82863  0.86584  1.0000
  H   H108      1.0  0.08957000000000002  0.8473099999999999  0.92338  1.0000
  H   H109      1.0  0.3931  0.07539999999999994  0.7147700000000001  1.0000
  H   H110      1.0  0.17095999999999997  0.08793000000000001  0.68267  1.0000
  H   H111      1.0  0.9489299999999999  0.07749999999999999  0.82862  1.0000
  H   H112      1.0  0.17440999999999998  0.06533000000000001  0.86144  1.0000
  H   H113      1.0  0.5791300000000001  0.7818499999999999  0.85298  1.0000
  H   H114      1.0  0.45430000000000015  0.6885699999999998  0.8555699999999999  1.0000
  H   H115      1.0  0.2428199999999999  0.6963299999999999  0.00029  1.0000
  H   H116      1.0  0.36079  0.7923899999999999  0.99622  1.0000
  H   H117      1.0  0.8096700000000001  0.16905999999999985  0.93991  1.0000
  H   H118      1.0  0.6507499999999999  0.22061999999999998  0.9139900000000001  1.0000
  H   H119      1.0  0.7976199999999998  0.19124999999999998  0.87398  1.0000
  H   H120      1.0  0.8029399999999997  0.36606  0.48835  1.0000
  H   H121      1.0  0.9957900000000001  0.86672  0.48983  1.0000
  H   H122      1.0  0.18091000000000013  0.5480799999999998  0.41889  1.0000
  H   H123      1.0  0.24308000000000002  0.5364900000000001  0.47377  1.0000
  H   H124      1.0  0.07797000000000005  0.22876999999999986  0.42073  1.0000
  H   H125      1.0  0.018149999999999996  0.25013  0.36069  1.0000
  H   H126      1.0  0.8952499999999999  0.25212  0.41461  1.0000
  H   H127      1.0  0.8942100000000002  0.09408999999999998  0.23625  1.0000
  H   H128      1.0  0.1748499999999998  0.13961000000000004  0.24245  1.0000
  H   H129      1.0  0.27229999999999993  0.12822999999999998  0.18904  1.0000
  H   H130      1.0  0.4405000000000001  0.9276599999999998  0.25617  1.0000
  H   H131      1.0  0.0717800000000001  0.8985299999999998  0.30368  1.0000
  H   H132      1.0  0.16712000000000002  0.8873199999999999  0.24997  1.0000
  H   H133      1.0  0.54822  0.12326999999999999  0.01493  1.0000
  H   H134      1.0  0.12920999999999994  0.76666  0.49622  1.0000
  H   H135      1.0  0.71165  0.39063  0.09843  1.0000
  H   H136      1.0  0.81144  0.37903  0.04438  1.0000
  H   H137      1.0  0.04505000000000003  0.65993  0.37249  1.0000
  H   H138      1.0  0.9706600000000002  0.7935899999999997  0.35781  1.0000
  H   H139      1.0  0.73622  0.08372999999999998  0.21181  1.0000
  H   H140      1.0  0.51457  0.09764999999999997  0.17941  1.0000
  H   H141      1.0  0.28812  0.10058000000000002  0.32248  1.0000
  H   H142      1.0  0.5141799999999999  0.08120000000000001  0.35683999999999994  1.0000
  H   H143      1.0  0.47756  0.8464599999999998  0.35764  1.0000
  H   H144      1.0  0.4860000000000002  0.9076899999999999  0.39032  1.0000
  H   H145      1.0  0.3679200000000001  0.8470699999999999  0.41475  1.0000
  H   H146      1.0  0.8212999999999999  0.09042999999999998  0.12441  1.0000
  H   H147      1.0  0.8371199999999999  0.17138000000000003  0.13416  1.0000
  H   H148      1.0  0.91042  0.15269999999999997  0.07662  1.0000
  H   H149      1.0  0.60691  0.92461  0.28523  1.0000
  H   H150      1.0  0.82904  0.9120799999999996  0.31733  1.0000
  H   H151      1.0  0.05106000000000004  0.92251  0.17138  1.0000
  H   H152      1.0  0.8255699999999999  0.93467  0.13856  1.0000
  H   H153      1.0  0.42086  0.21816000000000002  0.14702  1.0000
  H   H154      1.0  0.5457  0.31143  0.14443  1.0000
  H   H155      1.0  0.75717  0.30368000000000006  0.99972  1.0000
  H   H156      1.0  0.6392  0.20762  0.00379  1.0000
  H   H157      1.0  0.19032000000000004  0.8309499999999999  0.060090000000000005  1.0000
  H   H158      1.0  0.34923999999999994  0.77939  0.08601  1.0000
  H   H159      1.0  0.2023800000000001  0.8087599999999999  0.12602  1.0000
  H   H160      1.0  0.1970100000000001  0.6339899999999999  0.51166  1.0000
  C   C1        1.0  0.9463899999999998  0.6441899999999996  0.9113000000000001  1.0000
  C   C2        1.0  0.8782099999999999  0.7239499999999998  0.90018  1.0000
  C   C3        1.0  0.21235000000000012  0.36998000000000003  0.9145799999999998  1.0000
  C   C4        1.0  0.24040999999999993  0.28997000000000006  0.92584  1.0000
  C   C5        1.0  0.17817000000000002  0.24376999999999996  0.96907  1.0000
  C   C6        1.0  0.2918  0.13847999999999996  0.94227  1.0000
  C   C7        1.0  0.3542799999999999  0.18407999999999988  0.8989100000000001  1.0000
  C   C8        1.0  0.3284500000000001  0.25881999999999994  0.89092  1.0000
  C   C9        1.0  0.3391900000000001  0.5749799999999999  0.80715  1.0000
  C   C10       1.0  0.48275000000000007  0.5853199999999997  0.78628  1.0000
  C   C11       1.0  0.5318599999999998  0.5893199999999998  0.73622  1.0000
  C   C12       1.0  0.66844  0.5965599999999999  0.7175300000000001  1.0000
  C   C13       1.0  0.75922  0.6022599999999999  0.74798  1.0000
  C   C14       1.0  0.7130700000000002  0.5973  0.79829  1.0000
  C   C15       1.0  0.57668  0.58749  0.81726  1.0000
  C   C16       1.0  0.9047399999999998  0.4373399999999999  0.85165  1.0000
  C   C17       1.0  0.8202  0.37893999999999994  0.88002  1.0000
  C   C18       1.0  0.24688999999999997  0.5857199999999999  0.64013  1.0000
  C   C19       1.0  0.36267999999999967  0.6283800000000002  0.6175  1.0000
  C   C20       1.0  0.8014200000000001  0.4452999999999999  0.68655  1.0000
  C   C21       1.0  0.6618499999999999  0.42902  0.7089500000000001  1.0000
  C   C22       1.0  0.6142999999999997  0.4213799999999999  0.75968  1.0000
  C   C23       1.0  0.4770400000000002  0.41439999999999977  0.7783500000000001  1.0000
  C   C24       1.0  0.38290999999999975  0.4149399999999999  0.74658  1.0000
  C   C25       1.0  0.4295500000000001  0.4204799999999997  0.69614  1.0000
  C   C26       1.0  0.5674900000000002  0.42761  0.67777  1.0000
  C   C27       1.0  0.8267499999999999  0.6437299999999998  0.58238  1.0000
  C   C28       1.0  0.70176  0.7033099999999999  0.57675  1.0000
  C   C29       1.0  0.6549899999999994  0.73557  0.61522  1.0000
  C   C30       1.0  0.5337099999999999  0.78898  0.61351  1.0000
  C   C31       1.0  0.4539  0.8149299999999999  0.57197  1.0000
  C   C32       1.0  0.5014000000000001  0.78337  0.53277  1.0000
  C   C33       1.0  0.62164  0.7289899999999998  0.53536  1.0000
  C   C34       1.0  0.21683000000000005  0.39278  0.57797  1.0000
  C   C35       1.0  0.32859000000000005  0.32288999999999995  0.58798  1.0000
  C   C36       1.0  0.20364999999999997  0.16892  0.97747  1.0000
  C   C37       1.0  0.053610000000000074  0.3558199999999999  0.0887  1.0000
  C   C38       1.0  0.12177999999999994  0.2760600000000001  0.09983  1.0000
  C   C39       1.0  0.78765  0.63002  0.08542  1.0000
  C   C40       1.0  0.7595799999999997  0.71004  0.07416  1.0000
  C   C41       1.0  0.8218200000000002  0.7562399999999998  0.03093  1.0000
  C   C42       1.0  0.70818  0.86153  0.05772999999999999  1.0000
  C   C43       1.0  0.6457100000000001  0.81593  0.10109  1.0000
  C   C44       1.0  0.67155  0.74118  0.10909  1.0000
  C   C45       1.0  0.6608100000000001  0.42501999999999995  0.19285  1.0000
  C   C46       1.0  0.5172399999999999  0.41468999999999995  0.21372  1.0000
  C   C47       1.0  0.46813000000000005  0.41069  0.26378  1.0000
  C   C48       1.0  0.3315600000000001  0.40344999999999986  0.28248  1.0000
  C   C49       1.0  0.24077000000000004  0.39775  0.25202  1.0000
  C   C50       1.0  0.28693  0.4027099999999999  0.20172  1.0000
  C   C51       1.0  0.4233100000000001  0.41251999999999994  0.18274  1.0000
  C   C52       1.0  0.09526000000000007  0.5626599999999998  0.14835  1.0000
  C   C53       1.0  0.17979000000000006  0.6210599999999998  0.11998  1.0000
  C   C54       1.0  0.75311  0.41428999999999994  0.35987  1.0000
  C   C55       1.0  0.63731  0.37162999999999996  0.3825  1.0000
  C   C56       1.0  0.19857999999999998  0.55471  0.31346  1.0000
  C   C57       1.0  0.3381399999999999  0.5709900000000001  0.29106  1.0000
  C   C58       1.0  0.38569000000000003  0.5786299999999999  0.24033  1.0000
  C   C59       1.0  0.52296  0.58561  0.22165  1.0000
  C   C60       1.0  0.61708  0.58506  0.25343  1.0000
  C   C61       1.0  0.5704400000000001  0.5795299999999999  0.3038699999999999  1.0000
  C   C62       1.0  0.43249999999999994  0.5724  0.32224  1.0000
  C   C63       1.0  0.17329000000000008  0.35626999999999986  0.41762999999999995  1.0000
  C   C64       1.0  0.29829000000000006  0.29668  0.42326  1.0000
  C   C65       1.0  0.34511  0.26443  0.3847900000000001  1.0000
  C   C66       1.0  0.46642999999999996  0.21104999999999996  0.38648000000000005  1.0000
  C   C67       1.0  0.5462800000000001  0.18511  0.42801  1.0000
  C   C68       1.0  0.49865999999999966  0.21662  0.46724  1.0000
  C   C69       1.0  0.3783799999999999  0.27098000000000005  0.46465  1.0000
  C   C70       1.0  0.7831699999999994  0.60722  0.42203  1.0000
  C   C71       1.0  0.67141  0.67712  0.41202  1.0000
  C   C72       1.0  0.7963399999999998  0.83108  0.02254  1.0000
  C   C73       1.0  0.006570000000000379  0.8557699999999994  0.58805  1.0000
  C   C74       1.0  0.0033200000000000634  0.7765199999999999  0.59882  1.0000
  C   C75       1.0  0.9996999999999999  0.13002  0.58516  1.0000
  C   C76       1.0  0.9574899999999998  0.20999999999999994  0.57397  1.0000
  C   C77       1.0  0.8917599999999999  0.25599999999999995  0.53095  1.0000
  C   C78       1.0  0.87167  0.36149  0.5576  1.0000
  C   C79       1.0  0.9367999999999999  0.31605999999999995  0.60077  1.0000
  C   C80       1.0  0.97867  0.24134  0.6087599999999999  1.0000
  C   C81       1.0  0.22568999999999997  0.92465  0.69274  1.0000
  C   C82       1.0  0.3585600000000001  0.9141599999999999  0.71354  1.0000
  C   C83       1.0  0.36050000000000004  0.9101899999999998  0.76362  1.0000
  C   C84       1.0  0.48527999999999993  0.90251  0.78247  1.0000
  C   C85       1.0  0.6130700000000001  0.8963099999999999  0.75214  1.0000
  C   C86       1.0  0.6134100000000001  0.9013399999999999  0.7018199999999999  1.0000
  C   C87       1.0  0.4865799999999997  0.91159  0.68268  1.0000
  C   C88       1.0  0.6988900000000001  0.061  0.64844  1.0000
  C   C89       1.0  0.58391  0.11891999999999998  0.62014  1.0000
  C   C90       1.0  0.9725  0.91332  0.85998  1.0000
  C   C91       1.0  0.10838999999999999  0.87133  0.88265  1.0000
  C   C92       1.0  0.43353  0.05331  0.81338  1.0000
  C   C93       1.0  0.3004200000000001  0.07023999999999997  0.79086  1.0000
  C   C94       1.0  0.29690000000000005  0.07822  0.74008  1.0000
  C   C95       1.0  0.17167  0.08509000000000001  0.72145  1.0000
  C   C96       1.0  0.045799999999999966  0.08417000000000001  0.7533  1.0000
  C   C97       1.0  0.046549999999999994  0.0785699999999999  0.8037500000000001  1.0000
  C   C98       1.0  0.17286999999999997  0.07156999999999997  0.82209  1.0000
  C   C99       1.0  0.5511700000000002  0.8553699999999999  0.91793  1.0000
  C   C100      1.0  0.48003999999999986  0.7958400000000001  0.92367  1.0000
  C   C101      1.0  0.50491  0.7636299999999999  0.88519  1.0000
  C   C102      1.0  0.43565  0.71022  0.88686  1.0000
  C   C103      1.0  0.3394300000000002  0.6842799999999998  0.92837  1.0000
  C   C104      1.0  0.31545999999999974  0.7157  0.96763  1.0000
  C   C105      1.0  0.38368999999999964  0.77005  0.9651  1.0000
  C   C106      1.0  0.687  0.10684999999999995  0.92176  1.0000
  C   C107      1.0  0.74093  0.17610999999999996  0.9115  1.0000
  C   C108      1.0  0.8496800000000002  0.33082999999999996  0.52258  1.0000
  C   C109      1.0  0.9949299999999999  0.14429000000000003  0.41177  1.0000
  C   C110      1.0  0.99683  0.22371  0.40098  1.0000
  C   C111      1.0  0.00026000000000011523  0.8700499999999999  0.41491  1.0000
  C   C112      1.0  0.04242000000000002  0.7900699999999998  0.42606000000000005  1.0000
  C   C113      1.0  0.10819000000000015  0.7440599999999997  0.46908  1.0000
  C   C114      1.0  0.12827000000000002  0.6385699999999999  0.44241  1.0000
  C   C115      1.0  0.06313000000000023  0.6840199999999997  0.39924  1.0000
  C   C116      1.0  0.02125000000000021  0.7587499999999997  0.39125999999999994  1.0000
  C   C117      1.0  0.7742900000000003  0.07536  0.30726  1.0000
  C   C118      1.0  0.6414100000000001  0.08586000000000002  0.28646  1.0000
  C   C119      1.0  0.63947  0.08981999999999996  0.23638  1.0000
  C   C120      1.0  0.5146999999999999  0.0975  0.21754000000000004  1.0000
  C   C121      1.0  0.38689999999999997  0.10369999999999999  0.24785  1.0000
  C   C122      1.0  0.38657  0.09867999999999999  0.29817  1.0000
  C   C123      1.0  0.51339  0.08842999999999998  0.31732  1.0000
  C   C124      1.0  0.30112  0.93901  0.35157  1.0000
  C   C125      1.0  0.41609  0.88108  0.37987  1.0000
  C   C126      1.0  0.027500000000000014  0.08668  0.14002  1.0000
  C   C127      1.0  0.8915999999999997  0.12868  0.11735000000000001  1.0000
  C   C128      1.0  0.56647  0.9467  0.18662000000000004  1.0000
  C   C129      1.0  0.6995799999999998  0.92977  0.20915  1.0000
  C   C130      1.0  0.7031  0.92179  0.25992  1.0000
  C   C131      1.0  0.82833  0.91492  0.27856  1.0000
  C   C132      1.0  0.95419  0.9158299999999999  0.2467  1.0000
  C   C133      1.0  0.95345  0.9214399999999999  0.19625  1.0000
  C   C134      1.0  0.8271300000000003  0.9284399999999998  0.17791  1.0000
  C   C135      1.0  0.44883  0.14462999999999998  0.08207  1.0000
  C   C136      1.0  0.51995  0.20416  0.07633  1.0000
  C   C137      1.0  0.49507999999999996  0.23638  0.11481  1.0000
  C   C138      1.0  0.56434  0.28978  0.11313999999999999  1.0000
  C   C139      1.0  0.66056  0.31572999999999996  0.07163  1.0000
  C   C140      1.0  0.6845399999999999  0.2842999999999999  0.03237  1.0000
  C   C141      1.0  0.6163  0.22995  0.03491  1.0000
  C   C142      1.0  0.31298  0.89316  0.07824000000000002  1.0000
  C   C143      1.0  0.25906  0.82389  0.0885  1.0000
  C   C144      1.0  0.15026999999999996  0.6692199999999999  0.47743  1.0000
  N   N1        1.0  0.17218  0.3963699999999999  0.95334  1.0000
  N   N2        1.0  0.32466000000000006  0.062290000000000026  0.95139  1.0000
  N   N3        1.0  0.25047  0.58255  0.77443  1.0000
  N   N4        1.0  0.8995099999999998  0.6081499999999999  0.7278100000000001  1.0000
  N   N5        1.0  0.8945500000000001  0.43776999999999966  0.71777  1.0000
  N   N6        1.0  0.23991  0.41437999999999997  0.76498  1.0000
  N   N7        1.0  0.8694999999999998  0.61367  0.54547  1.0000
  N   N8        1.0  0.33723000000000003  0.86943  0.56941  1.0000
  N   N9        1.0  0.8278199999999999  0.60364  0.04666  1.0000
  N   N10       1.0  0.67533  0.9377199999999999  0.0486  1.0000
  N   N11       1.0  0.7495300000000003  0.4174599999999999  0.22558  1.0000
  N   N12       1.0  0.10048000000000001  0.39186  0.2722  1.0000
  N   N13       1.0  0.10544999999999995  0.5622300000000001  0.28223  1.0000
  N   N14       1.0  0.7600799999999999  0.58563  0.23502  1.0000
  N   N15       1.0  0.13054000000000002  0.38633  0.45454  1.0000
  N   N16       1.0  0.6631699999999999  0.13074999999999995  0.4305  1.0000
  N   N17       1.0  0.024949999999999976  0.10357999999999992  0.54646  1.0000
  N   N18       1.0  0.83664  0.43769  0.54855  1.0000
  N   N19       1.0  0.11159999999999999  0.91593  0.72559  1.0000
  N   N20       1.0  0.73876  0.89017  0.77233  1.0000
  N   N21       1.0  0.55116  0.060539999999999976  0.78222  1.0000
  N   N22       1.0  0.9211200000000002  0.08446999999999996  0.73496  1.0000
  N   N23       1.0  0.5261500000000002  0.8857599999999999  0.9546699999999999  1.0000
  N   N24       1.0  0.2746699999999998  0.6298399999999998  0.93092  1.0000
  N   N25       1.0  0.9750000000000006  0.8964999999999997  0.45363  1.0000
  N   N26       1.0  0.16332  0.56238  0.45145  1.0000
  N   N27       1.0  0.88838  0.08407000000000002  0.27442  1.0000
  N   N28       1.0  0.26121999999999995  0.10984  0.22767  1.0000
  N   N29       1.0  0.4488300000000002  0.93946  0.21779  1.0000
  N   N30       1.0  0.07889000000000011  0.9155399999999999  0.26504  1.0000
  N   N31       1.0  0.47384  0.11424999999999998  0.04533  1.0000
  N   N32       1.0  0.7253299999999998  0.37017  0.06908  1.0000
  O   O1        1.0  0.9682799999999999  0.6090899999999999  0.958  1.0000
  O   O2        1.0  0.9775799999999993  0.61707  0.87608  1.0000
  O   O3        1.0  0.12693  0.47076000000000007  0.9451399999999999  1.0000
  O   O4        1.0  0.22607000000000016  0.4127099999999999  0.8697299999999999  1.0000
  O   O5        1.0  0.11964000000000002  0.5658799999999999  0.79055  1.0000
  O   O6        1.0  0.2993199999999999  0.5582199999999998  0.8542200000000001  1.0000
  O   O7        1.0  0.92737  0.4752099999999999  0.8761400000000001  1.0000
  O   O8        1.0  0.9463999999999999  0.4441699999999997  0.8052600000000001  1.0000
  O   O9        1.0  0.19996000000000008  0.57895  0.6861799999999999  1.0000
  O   O10       1.0  0.20598000000000008  0.55896  0.6119499999999999  1.0000
  O   O11       1.0  0.019309999999999997  0.46114  0.6999  1.0000
  O   O12       1.0  0.8333799999999999  0.4682699999999999  0.63918  1.0000
  O   O13       1.0  0.9833599999999998  0.5563799999999999  0.54973  1.0000
  O   O14       1.0  0.8942299999999997  0.6195  0.62141  1.0000
  O   O15       1.0  0.16789999999999997  0.4174999999999999  0.61423  1.0000
  O   O16       1.0  0.17992999999999998  0.42086999999999997  0.53311  1.0000
  O   O17       1.0  0.03173000000000004  0.39091999999999993  0.042  1.0000
  O   O18       1.0  0.02242000000000001  0.38293  0.12393000000000001  1.0000
  O   O19       1.0  0.87307  0.5292399999999999  0.05487  1.0000
  O   O20       1.0  0.77393  0.58729  0.13028  1.0000
  O   O21       1.0  0.88035  0.43412  0.20945  1.0000
  O   O22       1.0  0.7006700000000001  0.44179  0.14579  1.0000
  O   O23       1.0  0.07263000000000006  0.5247999999999999  0.12385999999999998  1.0000
  O   O24       1.0  0.053590000000000006  0.5558299999999999  0.19474  1.0000
  O   O25       1.0  0.8000399999999999  0.42105999999999993  0.31382  1.0000
  O   O26       1.0  0.7940199999999998  0.44105  0.38805  1.0000
  O   O27       1.0  0.9806899999999998  0.53887  0.3001  1.0000
  O   O28       1.0  0.16661000000000012  0.5317399999999998  0.36083  1.0000
  O   O29       1.0  0.01671000000000006  0.44363  0.45027  1.0000
  O   O30       1.0  0.10580999999999996  0.3805  0.37859  1.0000
  O   O31       1.0  0.8320999999999998  0.5825  0.38577  1.0000
  O   O32       1.0  0.8200700000000001  0.5791399999999998  0.46689  1.0000
  O   O33       1.0  0.04002000000000016  0.8913299999999998  0.54127  1.0000
  O   O34       1.0  0.9789599999999997  0.8818699999999999  0.62373  1.0000
  O   O35       1.0  0.04693999999999999  0.029190000000000032  0.55461  1.0000
  O   O36       1.0  0.01249000000000002  0.08737999999999999  0.62996  1.0000
  O   O37       1.0  0.9804300000000001  0.93262  0.70949  1.0000
  O   O38       1.0  0.21609000000000006  0.9424999999999999  0.64563  1.0000
  O   O39       1.0  0.7859099999999998  0.02359999999999999  0.62392  1.0000
  O   O40       1.0  0.6995299999999999  0.05408  0.69487  1.0000
  O   O41       1.0  0.9665200000000003  0.9196799999999998  0.8139700000000001  1.0000
  O   O42       1.0  0.8751500000000002  0.9400999999999998  0.88802  1.0000
  O   O43       1.0  0.68099  0.03723999999999999  0.80013  1.0000
  O   O44       1.0  0.43993  0.030060000000000003  0.86075  1.0000
  O   O45       1.0  0.5873400000000001  0.94286  0.9503  1.0000
  O   O46       1.0  0.63453  0.87916  0.87891  1.0000
  O   O47       1.0  0.6930599999999999  0.08379999999999994  0.88512  1.0000
  O   O48       1.0  0.6376999999999999  0.07748000000000005  0.96714  1.0000
  O   O49       1.0  0.96467  0.10833  0.45867  1.0000
  O   O50       1.0  0.02098000000000002  0.11829999999999997  0.37606  1.0000
  O   O51       1.0  0.9532899999999993  0.97091  0.44548  1.0000
  O   O52       1.0  0.9874400000000002  0.9126999999999995  0.37012  1.0000
  O   O53       1.0  0.01956000000000002  0.06736999999999999  0.29051  1.0000
  O   O54       1.0  0.78388  0.05751000000000002  0.35438  1.0000
  O   O55       1.0  0.2141000000000001  0.97641  0.3761  1.0000
  O   O56       1.0  0.3004499999999998  0.9459299999999999  0.3051400000000001  1.0000
  O   O57       1.0  0.033469999999999965  0.08032  0.18604  1.0000
  O   O58       1.0  0.12485000000000003  0.059900000000000016  0.11198  1.0000
  O   O59       1.0  0.319  0.9627599999999998  0.19987  1.0000
  O   O60       1.0  0.5600699999999998  0.96995  0.13926  1.0000
  O   O61       1.0  0.41265999999999997  0.05714999999999999  0.0497  1.0000
  O   O62       1.0  0.3654599999999999  0.12085  0.12109  1.0000
  O   O63       1.0  0.3069300000000001  0.9161999999999999  0.11489000000000002  1.0000
  O   O64       1.0  0.36226  0.9225399999999999  0.03286  1.0000
