data_image0
_chemical_formula_structural       Zn8H168C216N56Cl8
_chemical_formula_sum              "Zn8 H168 C216 N56 Cl8"
_cell_length_a       8.96959
_cell_length_b       28.28921
_cell_length_c       29.128800000000002
_cell_angle_alpha    90.01888
_cell_angle_beta     90.0
_cell_angle_gamma    90.0

_space_group_name_H-M_alt    "P 1"
_space_group_IT_number       1

loop_
  _space_group_symop_operation_xyz
  'x, y, z'

loop_
  _atom_site_type_symbol
  _atom_site_label
  _atom_site_symmetry_multiplicity
  _atom_site_fract_x
  _atom_site_fract_y
  _atom_site_fract_z
  _atom_site_occupancy
  Zn  Zn1       1.0  0.9225200000000001  0.51066  0.63322  1.0000
  Zn  Zn2       1.0  0.5752400000000002  0.01059  0.86689  1.0000
  Zn  Zn3       1.0  0.07748000000000001  0.51066  0.13322  1.0000
  Zn  Zn4       1.0  0.4247600000000001  0.01059  0.36688  1.0000
  Zn  Zn5       1.0  0.9225200000000001  0.48934  0.8667799999999999  1.0000
  Zn  Zn6       1.0  0.5752400000000002  0.98941  0.63312  1.0000
  Zn  Zn7       1.0  0.07748000000000001  0.48934  0.36678  1.0000
  Zn  Zn8       1.0  0.4247600000000001  0.98941  0.13312  1.0000
  H   H1        1.0  0.7475  0.47524  0.53889  1.0000
  H   H2        1.0  0.16938  0.4409500000000001  0.59341  1.0000
  H   H3        1.0  0.12065  0.38791  0.51324  1.0000
  H   H4        1.0  0.74755  0.47199  0.45150999999999997  1.0000
  H   H5        1.0  0.6067  0.4349800000000001  0.38797  1.0000
  H   H6        1.0  0.776  0.29799  0.42771  1.0000
  H   H7        1.0  0.9124900000000001  0.33483  0.49171  1.0000
  H   H8        1.0  0.16925000000000007  0.45466  0.2258  1.0000
  H   H9        1.0  0.43706  0.50559  0.11739  1.0000
  H   H10       1.0  0.6181  0.45762000000000014  0.17852  1.0000
  H   H11       1.0  0.24278  0.38486  0.26188  1.0000
  H   H12       1.0  0.32692  0.33905000000000013  0.32937  1.0000
  H   H13       1.0  0.7606500000000003  0.40343  0.31898  1.0000
  H   H14       1.0  0.67977  0.44926  0.25265  1.0000
  H   H15       1.0  0.52653  0.11657  0.3438  1.0000
  H   H16       1.0  0.21385  0.06586  0.44039999999999996  1.0000
  H   H17       1.0  0.22846000000000002  0.16345  0.44717  1.0000
  H   H18       1.0  0.39419  0.2233  0.45629999999999993  1.0000
  H   H19       1.0  0.49051  0.3042000000000001  0.4456899999999999  1.0000
  H   H20       1.0  0.5900000000000002  0.27329  0.30413  1.0000
  H   H21       1.0  0.49769  0.19173000000000007  0.31448  1.0000
  H   H22       1.0  0.75184  0.97528  0.96097  1.0000
  H   H23       1.0  0.3296  0.9407  0.90676  1.0000
  H   H24       1.0  0.3793800000000001  0.88774  0.98685  1.0000
  H   H25       1.0  0.75253  0.972  0.04846  1.0000
  H   H26       1.0  0.89341  0.93507  0.11199  1.0000
  H   H27       1.0  0.7242200000000002  0.79804  0.07227999999999998  1.0000
  H   H28       1.0  0.58759  0.83479  0.00832  1.0000
  H   H29       1.0  0.33145000000000013  0.95471  0.27414  1.0000
  H   H30       1.0  0.06463  0.005720000000000002  0.3827  1.0000
  H   H31       1.0  0.88287  0.95777  0.32171  1.0000
  H   H32       1.0  0.25754  0.88486  0.23820999999999998  1.0000
  H   H33       1.0  0.17347000000000004  0.83907  0.17067  1.0000
  H   H34       1.0  0.73972  0.9034400000000002  0.18112  1.0000
  H   H35       1.0  0.82057  0.94927  0.24748999999999996  1.0000
  H   H36       1.0  0.9742000000000001  0.61653  0.15609  1.0000
  H   H37       1.0  0.28693  0.56604  0.05934  1.0000
  H   H38       1.0  0.27177  0.66365  0.05273  1.0000
  H   H39       1.0  0.10594000000000003  0.72328  0.04366  1.0000
  H   H40       1.0  0.00968  0.80419  0.05427  1.0000
  H   H41       1.0  0.9101  0.7733900000000002  0.19582  1.0000
  H   H42       1.0  0.0023700000000000006  0.6918200000000002  0.18547999999999995  1.0000
  H   H43       1.0  0.25250000000000006  0.47524  0.038889999999999994  1.0000
  H   H44       1.0  0.83062  0.4409500000000001  0.09341  1.0000
  H   H45       1.0  0.87935  0.38791  0.01324  1.0000
  H   H46       1.0  0.25245  0.4719800000000001  0.95151  1.0000
  H   H47       1.0  0.3933000000000001  0.4349800000000001  0.8879699999999998  1.0000
  H   H48       1.0  0.224  0.29799  0.9277099999999999  1.0000
  H   H49       1.0  0.08751  0.33483  0.99171  1.0000
  H   H50       1.0  0.8307500000000001  0.45466  0.7258  1.0000
  H   H51       1.0  0.56294  0.50559  0.6173899999999999  1.0000
  H   H52       1.0  0.38189  0.45762000000000014  0.67852  1.0000
  H   H53       1.0  0.75722  0.38486  0.7618799999999999  1.0000
  H   H54       1.0  0.67308  0.33905000000000013  0.82937  1.0000
  H   H55       1.0  0.23935  0.40343  0.81898  1.0000
  H   H56       1.0  0.32022  0.44926  0.7526499999999998  1.0000
  H   H57       1.0  0.47347  0.11657  0.8438  1.0000
  H   H58       1.0  0.7861500000000001  0.06586  0.9404  1.0000
  H   H59       1.0  0.77153  0.16345  0.94717  1.0000
  H   H60       1.0  0.60581  0.2233  0.9563  1.0000
  H   H61       1.0  0.50949  0.3042000000000001  0.94569  1.0000
  H   H62       1.0  0.4100000000000001  0.27329  0.80413  1.0000
  H   H63       1.0  0.5023100000000003  0.19173000000000007  0.81448  1.0000
  H   H64       1.0  0.24816  0.97528  0.46097  1.0000
  H   H65       1.0  0.67039  0.9407  0.4067599999999999  1.0000
  H   H66       1.0  0.6206200000000002  0.88774  0.48685  1.0000
  H   H67       1.0  0.24747  0.972  0.54847  1.0000
  H   H68       1.0  0.10659000000000003  0.93507  0.61199  1.0000
  H   H69       1.0  0.27578  0.79804  0.57228  1.0000
  H   H70       1.0  0.41241  0.83479  0.50833  1.0000
  H   H71       1.0  0.6685400000000002  0.95471  0.77414  1.0000
  H   H72       1.0  0.9353700000000003  0.005720000000000002  0.8827  1.0000
  H   H73       1.0  0.11713  0.95777  0.82171  1.0000
  H   H74       1.0  0.74246  0.88486  0.73821  1.0000
  H   H75       1.0  0.82653  0.83907  0.67067  1.0000
  H   H76       1.0  0.26028  0.9034400000000002  0.68112  1.0000
  H   H77       1.0  0.17943000000000006  0.94927  0.74749  1.0000
  H   H78       1.0  0.025800000000000003  0.61653  0.65609  1.0000
  H   H79       1.0  0.71307  0.56604  0.5593399999999998  1.0000
  H   H80       1.0  0.7282200000000001  0.66365  0.5527299999999999  1.0000
  H   H81       1.0  0.89406  0.72328  0.54367  1.0000
  H   H82       1.0  0.99031  0.80419  0.55427  1.0000
  H   H83       1.0  0.0899  0.7733900000000002  0.69582  1.0000
  H   H84       1.0  0.99763  0.6918200000000002  0.68548  1.0000
  H   H85       1.0  0.7475  0.52476  0.96112  1.0000
  H   H86       1.0  0.16938  0.55905  0.90659  1.0000
  H   H87       1.0  0.12065  0.61209  0.98676  1.0000
  H   H88       1.0  0.74755  0.52802  0.04848999999999999  1.0000
  H   H89       1.0  0.6067  0.56502  0.11203  1.0000
  H   H90       1.0  0.776  0.70201  0.0723  1.0000
  H   H91       1.0  0.9124900000000001  0.66517  0.00829  1.0000
  H   H92       1.0  0.16925000000000007  0.54534  0.2742  1.0000
  H   H93       1.0  0.43706  0.49441000000000007  0.38262  1.0000
  H   H94       1.0  0.6181  0.54238  0.32147999999999993  1.0000
  H   H95       1.0  0.24278  0.61514  0.23813  1.0000
  H   H96       1.0  0.32692  0.66095  0.17062999999999995  1.0000
  H   H97       1.0  0.7606500000000003  0.59657  0.18101999999999996  1.0000
  H   H98       1.0  0.67977  0.55074  0.24734999999999993  1.0000
  H   H99       1.0  0.52653  0.8834300000000003  0.1562  1.0000
  H   H100      1.0  0.21385  0.93414  0.05961  1.0000
  H   H101      1.0  0.22846000000000002  0.8365500000000002  0.05283  1.0000
  H   H102      1.0  0.39419  0.7767000000000001  0.0437  1.0000
  H   H103      1.0  0.49051  0.6958000000000002  0.05431  1.0000
  H   H104      1.0  0.5900000000000002  0.72671  0.19588  1.0000
  H   H105      1.0  0.49769  0.80827  0.18552  1.0000
  H   H106      1.0  0.75184  0.02472  0.53903  1.0000
  H   H107      1.0  0.3296  0.059300000000000005  0.59324  1.0000
  H   H108      1.0  0.3793800000000001  0.11226000000000001  0.51315  1.0000
  H   H109      1.0  0.75253  0.028  0.45153999999999994  1.0000
  H   H110      1.0  0.89341  0.06493  0.38800999999999997  1.0000
  H   H111      1.0  0.7242200000000002  0.20196  0.4277299999999999  1.0000
  H   H112      1.0  0.58759  0.16521  0.49168  1.0000
  H   H113      1.0  0.33145000000000013  0.04529  0.22586  1.0000
  H   H114      1.0  0.06463  0.99428  0.1173  1.0000
  H   H115      1.0  0.88287  0.04223  0.1783  1.0000
  H   H116      1.0  0.25754  0.11514  0.2618  1.0000
  H   H117      1.0  0.17347000000000004  0.16093  0.32933  1.0000
  H   H118      1.0  0.73972  0.09656  0.31888  1.0000
  H   H119      1.0  0.82057  0.05073  0.25252  1.0000
  H   H120      1.0  0.9742000000000001  0.38347  0.3439199999999999  1.0000
  H   H121      1.0  0.28693  0.43396  0.44066  1.0000
  H   H122      1.0  0.27177  0.3363500000000001  0.44727  1.0000
  H   H123      1.0  0.10594000000000003  0.27672  0.45634  1.0000
  H   H124      1.0  0.00968  0.19581  0.44573  1.0000
  H   H125      1.0  0.9101  0.22661  0.30419  1.0000
  H   H126      1.0  0.0023700000000000006  0.3081800000000001  0.31452  1.0000
  H   H127      1.0  0.25250000000000006  0.52476  0.4611199999999999  1.0000
  H   H128      1.0  0.83062  0.55905  0.40659  1.0000
  H   H129      1.0  0.87935  0.61209  0.48676  1.0000
  H   H130      1.0  0.25245  0.52801  0.54849  1.0000
  H   H131      1.0  0.3933000000000001  0.56502  0.61203  1.0000
  H   H132      1.0  0.224  0.70201  0.5723  1.0000
  H   H133      1.0  0.08751  0.66517  0.50829  1.0000
  H   H134      1.0  0.8307500000000001  0.54534  0.7742  1.0000
  H   H135      1.0  0.56294  0.49441000000000007  0.8826199999999998  1.0000
  H   H136      1.0  0.38189  0.54238  0.82148  1.0000
  H   H137      1.0  0.75722  0.61514  0.7381299999999998  1.0000
  H   H138      1.0  0.67308  0.66095  0.67063  1.0000
  H   H139      1.0  0.23935  0.59657  0.6810199999999997  1.0000
  H   H140      1.0  0.32022  0.55074  0.74735  1.0000
  H   H141      1.0  0.47347  0.8834300000000003  0.6562  1.0000
  H   H142      1.0  0.7861500000000001  0.93414  0.55961  1.0000
  H   H143      1.0  0.77153  0.8365500000000002  0.55283  1.0000
  H   H144      1.0  0.60581  0.7767000000000001  0.5437  1.0000
  H   H145      1.0  0.50949  0.6958000000000002  0.55431  1.0000
  H   H146      1.0  0.4100000000000001  0.72671  0.69588  1.0000
  H   H147      1.0  0.5023100000000003  0.80827  0.6855199999999999  1.0000
  H   H148      1.0  0.24816  0.02472  0.03903  1.0000
  H   H149      1.0  0.67039  0.059300000000000005  0.09323999999999999  1.0000
  H   H150      1.0  0.6206200000000002  0.11226000000000001  0.01315  1.0000
  H   H151      1.0  0.24747  0.028  0.95154  1.0000
  H   H152      1.0  0.10659000000000003  0.06493  0.88802  1.0000
  H   H153      1.0  0.27578  0.20196  0.92773  1.0000
  H   H154      1.0  0.41241  0.16521  0.99168  1.0000
  H   H155      1.0  0.6685400000000002  0.04529  0.72586  1.0000
  H   H156      1.0  0.9353700000000003  0.99428  0.6172999999999998  1.0000
  H   H157      1.0  0.11713  0.04223  0.6783  1.0000
  H   H158      1.0  0.74246  0.11514  0.7618  1.0000
  H   H159      1.0  0.82653  0.16093  0.82933  1.0000
  H   H160      1.0  0.26028  0.09656  0.81889  1.0000
  H   H161      1.0  0.17943000000000006  0.05073  0.75252  1.0000
  H   H162      1.0  0.025800000000000003  0.38347  0.84392  1.0000
  H   H163      1.0  0.71307  0.43396  0.94066  1.0000
  H   H164      1.0  0.7282200000000001  0.3363500000000001  0.94727  1.0000
  H   H165      1.0  0.89406  0.27672  0.95634  1.0000
  H   H166      1.0  0.99031  0.19581  0.94574  1.0000
  H   H167      1.0  0.0899  0.22661  0.80419  1.0000
  H   H168      1.0  0.99763  0.3081800000000001  0.8145199999999998  1.0000
  C   C1        1.0  0.8576600000000002  0.4603400000000001  0.54274  1.0000
  C   C2        1.0  0.07606000000000003  0.44035  0.56986  1.0000
  C   C3        1.0  0.05269  0.41343  0.53118  1.0000
  C   C4        1.0  0.83781  0.4056400000000001  0.47624  1.0000
  C   C5        1.0  0.7499700000000001  0.43383  0.44692  1.0000
  C   C6        1.0  0.67126  0.41297  0.41118  1.0000
  C   C7        1.0  0.6791200000000002  0.36372000000000004  0.40321  1.0000
  C   C8        1.0  0.76844  0.3359  0.43303  1.0000
  C   C9        1.0  0.8458000000000002  0.35669  0.4688799999999999  1.0000
  C   C10       1.0  0.26481  0.46131  0.20412  1.0000
  C   C11       1.0  0.40788000000000013  0.48726  0.14872  1.0000
  C   C12       1.0  0.49927000000000005  0.46374  0.17874  1.0000
  C   C13       1.0  0.4547900000000001  0.4204  0.25245  1.0000
  C   C14       1.0  0.35603  0.38916  0.27446  1.0000
  C   C15       1.0  0.4029100000000001  0.3633  0.31235  1.0000
  C   C16       1.0  0.54982  0.36773  0.32889  1.0000
  C   C17       1.0  0.6479300000000002  0.39864000000000005  0.3062399999999999  1.0000
  C   C18       1.0  0.60142  0.4250100000000001  0.26867  1.0000
  C   C19       1.0  0.44056000000000006  0.11566  0.36968  1.0000
  C   C20       1.0  0.28131  0.09068  0.4212499999999999  1.0000
  C   C21       1.0  0.28994  0.13895  0.4260699999999999  1.0000
  C   C22       1.0  0.43886000000000003  0.20171000000000003  0.38625999999999994  1.0000
  C   C23       1.0  0.43432  0.23435  0.42279  1.0000
  C   C24       1.0  0.48762  0.27987  0.4168399999999999  1.0000
  C   C25       1.0  0.54365  0.29493  0.37384  1.0000
  C   C26       1.0  0.54675  0.26217  0.3373  1.0000
  C   C27       1.0  0.49502000000000007  0.21635  0.34314  1.0000
  C   C28       1.0  0.64173  0.9603100000000002  0.9572  1.0000
  C   C29       1.0  0.4231900000000001  0.94017  0.93023  1.0000
  C   C30       1.0  0.44702000000000003  0.9133200000000002  0.96889  1.0000
  C   C31       1.0  0.66223  0.90564  0.02371  1.0000
  C   C32       1.0  0.7501000000000002  0.93385  0.05303999999999998  1.0000
  C   C33       1.0  0.8288700000000001  0.91302  0.08879  1.0000
  C   C34       1.0  0.82116  0.86379  0.09678  1.0000
  C   C35       1.0  0.73181  0.83594  0.06695  1.0000
  C   C36       1.0  0.65436  0.8567000000000002  0.03111  1.0000
  C   C37       1.0  0.23603000000000002  0.96136  0.2958799999999999  1.0000
  C   C38       1.0  0.09347000000000001  0.98735  0.35136  1.0000
  C   C39       1.0  0.00174  0.96384  0.32139  1.0000
  C   C40       1.0  0.04565  0.92045  0.24762  1.0000
  C   C41       1.0  0.14433  0.8891900000000001  0.22559999999999994  1.0000
  C   C42       1.0  0.09748  0.86333  0.18768  1.0000
  C   C43       1.0  0.9505900000000002  0.8678  0.17112  1.0000
  C   C44       1.0  0.85249  0.89869  0.19383  1.0000
  C   C45       1.0  0.8989900000000001  0.9250500000000003  0.23143  1.0000
  C   C46       1.0  0.0603  0.61567  0.13024  1.0000
  C   C47       1.0  0.21949  0.5908100000000002  0.07858  1.0000
  C   C48       1.0  0.2106  0.6390800000000001  0.07384  1.0000
  C   C49       1.0  0.06145000000000001  0.70175  0.11371  1.0000
  C   C50       1.0  0.06590000000000001  0.73436  0.07718  1.0000
  C   C51       1.0  0.0126  0.77989  0.08312  1.0000
  C   C52       1.0  0.9566400000000002  0.7950000000000003  0.12612  1.0000
  C   C53       1.0  0.95343  0.76224  0.16266  1.0000
  C   C54       1.0  0.00517  0.71641  0.15683  1.0000
  C   C55       1.0  0.14234  0.4603400000000001  0.04274  1.0000
  C   C56       1.0  0.92394  0.44035  0.06985  1.0000
  C   C57       1.0  0.9473000000000001  0.41343  0.03118  1.0000
  C   C58       1.0  0.16219  0.4056400000000001  0.97624  1.0000
  C   C59       1.0  0.25003  0.43383  0.94692  1.0000
  C   C60       1.0  0.32874  0.41297  0.91118  1.0000
  C   C61       1.0  0.3208800000000001  0.36372000000000004  0.90321  1.0000
  C   C62       1.0  0.23155  0.3359  0.9330299999999999  1.0000
  C   C63       1.0  0.1542  0.35669  0.96888  1.0000
  C   C64       1.0  0.73519  0.46131  0.70412  1.0000
  C   C65       1.0  0.5921200000000001  0.48726  0.6487199999999999  1.0000
  C   C66       1.0  0.50072  0.46374  0.67874  1.0000
  C   C67       1.0  0.54521  0.4204  0.75245  1.0000
  C   C68       1.0  0.6439700000000003  0.38916  0.7744599999999999  1.0000
  C   C69       1.0  0.59709  0.3633  0.81236  1.0000
  C   C70       1.0  0.4501800000000001  0.36773  0.8288899999999998  1.0000
  C   C71       1.0  0.35207000000000005  0.39864000000000005  0.80624  1.0000
  C   C72       1.0  0.39858  0.4250100000000001  0.7686699999999999  1.0000
  C   C73       1.0  0.55944  0.11566  0.86968  1.0000
  C   C74       1.0  0.71869  0.09068  0.92125  1.0000
  C   C75       1.0  0.71006  0.13895  0.92607  1.0000
  C   C76       1.0  0.56113  0.20171000000000003  0.88627  1.0000
  C   C77       1.0  0.56568  0.23435  0.92279  1.0000
  C   C78       1.0  0.51237  0.27987  0.91684  1.0000
  C   C79       1.0  0.45635  0.29493  0.87384  1.0000
  C   C80       1.0  0.45325  0.26217  0.8372999999999999  1.0000
  C   C81       1.0  0.50498  0.21634  0.84314  1.0000
  C   C82       1.0  0.35826  0.9603100000000002  0.4572  1.0000
  C   C83       1.0  0.57681  0.94018  0.43022999999999995  1.0000
  C   C84       1.0  0.55298  0.9133200000000002  0.46889  1.0000
  C   C85       1.0  0.33776000000000006  0.90564  0.52371  1.0000
  C   C86       1.0  0.24990000000000004  0.93385  0.55304  1.0000
  C   C87       1.0  0.17112000000000005  0.91302  0.5887899999999998  1.0000
  C   C88       1.0  0.17884  0.86379  0.59678  1.0000
  C   C89       1.0  0.2681800000000001  0.83594  0.5669499999999997  1.0000
  C   C90       1.0  0.34564  0.8567000000000002  0.53111  1.0000
  C   C91       1.0  0.76397  0.96136  0.79588  1.0000
  C   C92       1.0  0.90653  0.98735  0.85136  1.0000
  C   C93       1.0  0.9982600000000001  0.96384  0.82139  1.0000
  C   C94       1.0  0.9543500000000001  0.92045  0.74762  1.0000
  C   C95       1.0  0.85567  0.8891900000000001  0.7256099999999999  1.0000
  C   C96       1.0  0.90252  0.86333  0.68768  1.0000
  C   C97       1.0  0.049400000000000006  0.8678  0.6711199999999999  1.0000
  C   C98       1.0  0.14751000000000006  0.89869  0.69384  1.0000
  C   C99       1.0  0.10101  0.9250500000000003  0.7314299999999999  1.0000
  C   C100      1.0  0.9396900000000001  0.61567  0.63025  1.0000
  C   C101      1.0  0.7805  0.5908100000000002  0.57858  1.0000
  C   C102      1.0  0.7894  0.6390800000000001  0.57384  1.0000
  C   C103      1.0  0.93855  0.70175  0.61371  1.0000
  C   C104      1.0  0.9341  0.73436  0.5771799999999998  1.0000
  C   C105      1.0  0.9874  0.77988  0.58312  1.0000
  C   C106      1.0  0.04336000000000002  0.7950000000000003  0.62613  1.0000
  C   C107      1.0  0.04657  0.76224  0.66266  1.0000
  C   C108      1.0  0.99482  0.71641  0.65683  1.0000
  C   C109      1.0  0.8576600000000002  0.53966  0.95726  1.0000
  C   C110      1.0  0.07606000000000003  0.55965  0.9301499999999999  1.0000
  C   C111      1.0  0.05269  0.58657  0.96882  1.0000
  C   C112      1.0  0.83781  0.5943600000000002  0.023759999999999993  1.0000
  C   C113      1.0  0.7499700000000001  0.56617  0.05308  1.0000
  C   C114      1.0  0.67126  0.58703  0.08881999999999997  1.0000
  C   C115      1.0  0.6791200000000002  0.63628  0.09679  1.0000
  C   C116      1.0  0.76844  0.6641000000000001  0.06697  1.0000
  C   C117      1.0  0.8458000000000002  0.64331  0.03112  1.0000
  C   C118      1.0  0.26481  0.53869  0.29589  1.0000
  C   C119      1.0  0.40788000000000013  0.51274  0.35128  1.0000
  C   C120      1.0  0.49927000000000005  0.53626  0.32125999999999993  1.0000
  C   C121      1.0  0.4547900000000001  0.5796  0.24755  1.0000
  C   C122      1.0  0.35603  0.61084  0.22555  1.0000
  C   C123      1.0  0.4029100000000001  0.6367  0.18765  1.0000
  C   C124      1.0  0.54982  0.63227  0.17111  1.0000
  C   C125      1.0  0.6479300000000002  0.60136  0.19377  1.0000
  C   C126      1.0  0.60142  0.5749900000000002  0.23133  1.0000
  C   C127      1.0  0.44056000000000006  0.88434  0.13032  1.0000
  C   C128      1.0  0.28131  0.90932  0.07874999999999999  1.0000
  C   C129      1.0  0.28994  0.86105  0.07394  1.0000
  C   C130      1.0  0.43886000000000003  0.79829  0.11374  1.0000
  C   C131      1.0  0.43432  0.76565  0.07721  1.0000
  C   C132      1.0  0.48762  0.72013  0.08316  1.0000
  C   C133      1.0  0.54365  0.70507  0.12616  1.0000
  C   C134      1.0  0.54675  0.73783  0.1627  1.0000
  C   C135      1.0  0.49502000000000007  0.7836600000000002  0.15687  1.0000
  C   C136      1.0  0.64173  0.03969  0.54281  1.0000
  C   C137      1.0  0.4231900000000001  0.05982  0.56977  1.0000
  C   C138      1.0  0.44702000000000003  0.08668  0.53111  1.0000
  C   C139      1.0  0.66223  0.09436  0.47629  1.0000
  C   C140      1.0  0.7501000000000002  0.06615  0.44696  1.0000
  C   C141      1.0  0.8288700000000001  0.08698000000000002  0.41122  1.0000
  C   C142      1.0  0.82116  0.13621  0.40323  1.0000
  C   C143      1.0  0.73181  0.16406000000000007  0.4330499999999999  1.0000
  C   C144      1.0  0.65436  0.1433  0.46889  1.0000
  C   C145      1.0  0.23603000000000002  0.03864  0.20412  1.0000
  C   C146      1.0  0.09347000000000001  0.01265  0.14865  1.0000
  C   C147      1.0  0.00174  0.03616  0.17860999999999996  1.0000
  C   C148      1.0  0.04565  0.07955  0.25238  1.0000
  C   C149      1.0  0.14433  0.11081  0.2744  1.0000
  C   C150      1.0  0.09748  0.13667  0.31232  1.0000
  C   C151      1.0  0.9505900000000002  0.1322  0.32888  1.0000
  C   C152      1.0  0.85249  0.10131  0.30617  1.0000
  C   C153      1.0  0.8989900000000001  0.07495  0.26857  1.0000
  C   C154      1.0  0.0603  0.38433  0.36976  1.0000
  C   C155      1.0  0.21949  0.40919  0.42142  1.0000
  C   C156      1.0  0.2106  0.36092  0.42617  1.0000
  C   C157      1.0  0.06145000000000001  0.29825  0.38628999999999997  1.0000
  C   C158      1.0  0.06590000000000001  0.26564  0.42282  1.0000
  C   C159      1.0  0.0126  0.22012000000000007  0.41688  1.0000
  C   C160      1.0  0.9566400000000002  0.205  0.37388  1.0000
  C   C161      1.0  0.95343  0.23776  0.33734999999999987  1.0000
  C   C162      1.0  0.00517  0.28359  0.34316999999999986  1.0000
  C   C163      1.0  0.14234  0.53966  0.45726  1.0000
  C   C164      1.0  0.92394  0.55965  0.43015  1.0000
  C   C165      1.0  0.9473000000000001  0.58657  0.4688199999999999  1.0000
  C   C166      1.0  0.16219  0.5943600000000002  0.52376  1.0000
  C   C167      1.0  0.25003  0.56617  0.5530799999999999  1.0000
  C   C168      1.0  0.32874  0.58703  0.58883  1.0000
  C   C169      1.0  0.3208800000000001  0.63628  0.59679  1.0000
  C   C170      1.0  0.23155  0.6641000000000001  0.56697  1.0000
  C   C171      1.0  0.1542  0.64331  0.53112  1.0000
  C   C172      1.0  0.73519  0.53869  0.79589  1.0000
  C   C173      1.0  0.5921200000000001  0.51274  0.8512899999999999  1.0000
  C   C174      1.0  0.50072  0.53626  0.82126  1.0000
  C   C175      1.0  0.54521  0.5796  0.74755  1.0000
  C   C176      1.0  0.6439700000000003  0.61084  0.7255499999999998  1.0000
  C   C177      1.0  0.59709  0.6367  0.68765  1.0000
  C   C178      1.0  0.4501800000000001  0.63227  0.67111  1.0000
  C   C179      1.0  0.35207000000000005  0.60136  0.69377  1.0000
  C   C180      1.0  0.39858  0.5749900000000002  0.73133  1.0000
  C   C181      1.0  0.55944  0.88434  0.63033  1.0000
  C   C182      1.0  0.71869  0.90932  0.57876  1.0000
  C   C183      1.0  0.71006  0.86105  0.57394  1.0000
  C   C184      1.0  0.56113  0.79829  0.61374  1.0000
  C   C185      1.0  0.56568  0.76565  0.5772099999999999  1.0000
  C   C186      1.0  0.51237  0.72013  0.58316  1.0000
  C   C187      1.0  0.45635  0.70507  0.62616  1.0000
  C   C188      1.0  0.45325  0.73783  0.6627  1.0000
  C   C189      1.0  0.50498  0.78365  0.65687  1.0000
  C   C190      1.0  0.35826  0.03969  0.04280999999999999  1.0000
  C   C191      1.0  0.57681  0.05983  0.06977  1.0000
  C   C192      1.0  0.55298  0.08668  0.03111  1.0000
  C   C193      1.0  0.33776000000000006  0.09436  0.9762899999999998  1.0000
  C   C194      1.0  0.24990000000000004  0.06615  0.9469599999999998  1.0000
  C   C195      1.0  0.17112000000000005  0.08698000000000002  0.9112199999999999  1.0000
  C   C196      1.0  0.17884  0.13621  0.90323  1.0000
  C   C197      1.0  0.2681800000000001  0.16406000000000007  0.9330599999999999  1.0000
  C   C198      1.0  0.34564  0.1433  0.9689  1.0000
  C   C199      1.0  0.76397  0.03864  0.70413  1.0000
  C   C200      1.0  0.90653  0.01265  0.64865  1.0000
  C   C201      1.0  0.9982600000000001  0.03616  0.67861  1.0000
  C   C202      1.0  0.9543500000000001  0.07955  0.75238  1.0000
  C   C203      1.0  0.85567  0.11081  0.7743999999999999  1.0000
  C   C204      1.0  0.90252  0.13667  0.81233  1.0000
  C   C205      1.0  0.049400000000000006  0.1322  0.82888  1.0000
  C   C206      1.0  0.14751000000000006  0.10131  0.80617  1.0000
  C   C207      1.0  0.10101  0.07495  0.76857  1.0000
  C   C208      1.0  0.9396900000000001  0.38433  0.86976  1.0000
  C   C209      1.0  0.7805  0.40919  0.9214199999999999  1.0000
  C   C210      1.0  0.7894  0.36092  0.92617  1.0000
  C   C211      1.0  0.93855  0.29825  0.88629  1.0000
  C   C212      1.0  0.9341  0.26564  0.92282  1.0000
  C   C213      1.0  0.9874  0.22011  0.91688  1.0000
  C   C214      1.0  0.04336000000000002  0.205  0.87388  1.0000
  C   C215      1.0  0.04657  0.23776  0.83735  1.0000
  C   C216      1.0  0.99482  0.28359  0.8431799999999999  1.0000
  N   N1        1.0  0.9545100000000001  0.46952  0.57669  1.0000
  N   N2        1.0  0.9129800000000001  0.42612  0.51425  1.0000
  N   N3        1.0  0.37542  0.07642  0.38657  1.0000
  N   N4        1.0  0.39148000000000005  0.15476  0.3931  1.0000
  N   N5        1.0  0.40755000000000013  0.44715  0.21385  1.0000
  N   N6        1.0  0.26274000000000003  0.48549000000000003  0.16451  1.0000
  N   N7        1.0  0.59698  0.34172  0.36787  1.0000
  N   N8        1.0  0.5445400000000002  0.9694  0.92332  1.0000
  N   N9        1.0  0.58676  0.9260800000000002  0.98574  1.0000
  N   N10       1.0  0.12565  0.5764900000000001  0.11329  1.0000
  N   N11       1.0  0.10918000000000003  0.65483  0.10687  1.0000
  N   N12       1.0  0.09316000000000003  0.94722  0.28622  1.0000
  N   N13       1.0  0.23851  0.98554  0.33548  1.0000
  N   N14       1.0  0.9034800000000001  0.8418100000000002  0.13209  1.0000
  N   N15       1.0  0.04549  0.46952  0.07668  1.0000
  N   N16       1.0  0.08702  0.42612  0.01425  1.0000
  N   N17       1.0  0.62458  0.07642  0.88657  1.0000
  N   N18       1.0  0.6085200000000002  0.15476  0.8931  1.0000
  N   N19       1.0  0.59244  0.44715  0.7138499999999998  1.0000
  N   N20       1.0  0.7372600000000002  0.48549000000000003  0.66451  1.0000
  N   N21       1.0  0.40302  0.34172  0.86787  1.0000
  N   N22       1.0  0.45546  0.9694  0.42332  1.0000
  N   N23       1.0  0.4132300000000001  0.92609  0.48574  1.0000
  N   N24       1.0  0.87435  0.5764900000000001  0.6133  1.0000
  N   N25       1.0  0.89082  0.65483  0.60687  1.0000
  N   N26       1.0  0.9068400000000001  0.94722  0.78622  1.0000
  N   N27       1.0  0.76149  0.98554  0.83549  1.0000
  N   N28       1.0  0.09652  0.8418100000000002  0.63209  1.0000
  N   N29       1.0  0.9545100000000001  0.53048  0.92332  1.0000
  N   N30       1.0  0.9129800000000001  0.57388  0.98575  1.0000
  N   N31       1.0  0.37542  0.92358  0.11343  1.0000
  N   N32       1.0  0.39148000000000005  0.84524  0.1069  1.0000
  N   N33       1.0  0.40755000000000013  0.55285  0.28615  1.0000
  N   N34       1.0  0.26274000000000003  0.51451  0.33549  1.0000
  N   N35       1.0  0.59698  0.65828  0.13213  1.0000
  N   N36       1.0  0.5445400000000002  0.0306  0.57669  1.0000
  N   N37       1.0  0.58676  0.07391  0.51426  1.0000
  N   N38       1.0  0.12565  0.42351  0.38671  1.0000
  N   N39       1.0  0.10918000000000003  0.34517  0.39313  1.0000
  N   N40       1.0  0.09316000000000003  0.05278000000000001  0.21379  1.0000
  N   N41       1.0  0.23851  0.014460000000000004  0.16452  1.0000
  N   N42       1.0  0.9034800000000001  0.15819  0.36791  1.0000
  N   N43       1.0  0.04549  0.53048  0.42332  1.0000
  N   N44       1.0  0.08702  0.57388  0.4857499999999999  1.0000
  N   N45       1.0  0.62458  0.92358  0.61343  1.0000
  N   N46       1.0  0.6085200000000002  0.84524  0.6069  1.0000
  N   N47       1.0  0.59244  0.55285  0.78615  1.0000
  N   N48       1.0  0.7372600000000002  0.51451  0.83549  1.0000
  N   N49       1.0  0.40302  0.65828  0.63213  1.0000
  N   N50       1.0  0.45546  0.0306  0.07668  1.0000
  N   N51       1.0  0.4132300000000001  0.07392  0.01426  1.0000
  N   N52       1.0  0.87435  0.42351  0.88671  1.0000
  N   N53       1.0  0.89082  0.34517  0.89313  1.0000
  N   N54       1.0  0.9068400000000001  0.05278000000000001  0.71379  1.0000
  N   N55       1.0  0.76149  0.014460000000000004  0.66452  1.0000
  N   N56       1.0  0.09652  0.15819  0.86791  1.0000
  Cl  Cl1       1.0  0.11715  0.50345  0.67986  1.0000
  Cl  Cl2       1.0  0.38173000000000007  0.0032500000000000007  0.81994  1.0000
  Cl  Cl3       1.0  0.8828500000000002  0.50345  0.17986  1.0000
  Cl  Cl4       1.0  0.61827  0.0032500000000000007  0.31994  1.0000
  Cl  Cl5       1.0  0.11715  0.49655  0.82015  1.0000
  Cl  Cl6       1.0  0.38173000000000007  0.99675  0.68007  1.0000
  Cl  Cl7       1.0  0.8828500000000002  0.49655  0.32014  1.0000
  Cl  Cl8       1.0  0.61827  0.99675  0.18006  1.0000
