data_image0
_chemical_formula_structural       Cd8H208C144N32O32
_chemical_formula_sum              "Cd8 H208 C144 N32 O32"
_cell_length_a       14.57629
_cell_length_b       16.69255
_cell_length_c       18.25879
_cell_angle_alpha    90.00314
_cell_angle_beta     90.0
_cell_angle_gamma    90.0

_space_group_name_H-M_alt    "P 1"
_space_group_IT_number       1

loop_
  _space_group_symop_operation_xyz
  'x, y, z'

loop_
  _atom_site_type_symbol
  _atom_site_label
  _atom_site_symmetry_multiplicity
  _atom_site_fract_x
  _atom_site_fract_y
  _atom_site_fract_z
  _atom_site_occupancy
  Cd  Cd1       1.0  0.84398  0.74647  0.73131  1.0000
  Cd  Cd2       1.0  0.84398  0.25354  0.7686900000000001  1.0000
  Cd  Cd3       1.0  0.15602  0.25353  0.26869  1.0000
  Cd  Cd4       1.0  0.15602  0.74647  0.23131  1.0000
  Cd  Cd5       1.0  0.65601  0.7553200000000001  0.23093  1.0000
  Cd  Cd6       1.0  0.65601  0.24468  0.26907  1.0000
  Cd  Cd7       1.0  0.34399  0.24468  0.76907  1.0000
  Cd  Cd8       1.0  0.34399  0.7553200000000001  0.73093  1.0000
  H   H1        1.0  0.69625  0.81947  0.9546700000000001  1.0000
  H   H2        1.0  0.60975  0.8105300000000002  0.88897  1.0000
  H   H3        1.0  0.68268  0.6757  0.98688  1.0000
  H   H4        1.0  0.60933  0.65906  0.9121600000000001  1.0000
  H   H5        1.0  0.52917  0.67254  0.037020000000000004  1.0000
  H   H6        1.0  0.56782  0.77139  0.042010000000000006  1.0000
  H   H7        1.0  0.43749  0.70548  0.92309  1.0000
  H   H8        1.0  0.48025  0.80288  0.9245900000000001  1.0000
  H   H9        1.0  0.40562  0.82509  0.04893000000000001  1.0000
  H   H10       1.0  0.32818  0.8063800000000002  0.9768000000000001  1.0000
  H   H11       1.0  0.31215  0.66409  0.018170000000000002  1.0000
  H   H12       1.0  0.39748  0.67885  0.08453  1.0000
  H   H13       1.0  0.07571  0.83622  0.74227  1.0000
  H   H14       1.0  0.10673  0.98001  0.67042  1.0000
  H   H15       1.0  0.83011  0.9094100000000002  0.63883  1.0000
  H   H16       1.0  0.00018  0.08049  0.60839  1.0000
  H   H17       1.0  0.88132  0.061889999999999994  0.60873  1.0000
  H   H18       1.0  0.9013000000000001  0.96723  0.50096  1.0000
  H   H19       1.0  0.93126  0.06712  0.48178  1.0000
  H   H20       1.0  0.08349  0.67724  0.71846  1.0000
  H   H21       1.0  0.14048000000000002  0.55519  0.80952  1.0000
  H   H22       1.0  0.85289  0.58541  0.83167  1.0000
  H   H23       1.0  0.05008  0.4474900000000001  0.88411  1.0000
  H   H24       1.0  0.92941  0.45516  0.8884500000000001  1.0000
  H   H25       1.0  0.94379  0.57277  0.9744899999999999  1.0000
  H   H26       1.0  0.06406  0.56607  0.9706299999999999  1.0000
  H   H27       1.0  0.69625  0.18053  0.54533  1.0000
  H   H28       1.0  0.60975  0.18947  0.61102  1.0000
  H   H29       1.0  0.68268  0.3243  0.51312  1.0000
  H   H30       1.0  0.60933  0.34095  0.58783  1.0000
  H   H31       1.0  0.52917  0.32746  0.46297  1.0000
  H   H32       1.0  0.56782  0.22861  0.45799  1.0000
  H   H33       1.0  0.43749  0.29452  0.5769  1.0000
  H   H34       1.0  0.48025  0.19712  0.57541  1.0000
  H   H35       1.0  0.40562  0.17491  0.45107  1.0000
  H   H36       1.0  0.32818  0.19363  0.5231900000000002  1.0000
  H   H37       1.0  0.31215  0.33592  0.48183000000000004  1.0000
  H   H38       1.0  0.39748  0.32115  0.41547  1.0000
  H   H39       1.0  0.07571  0.16379  0.7577300000000002  1.0000
  H   H40       1.0  0.10674  0.01999  0.82957  1.0000
  H   H41       1.0  0.83011  0.0906  0.8611700000000001  1.0000
  H   H42       1.0  0.00017  0.91951  0.89161  1.0000
  H   H43       1.0  0.88132  0.93812  0.89126  1.0000
  H   H44       1.0  0.9013000000000001  0.03277  0.99904  1.0000
  H   H45       1.0  0.93126  0.93288  0.01822  1.0000
  H   H46       1.0  0.08349  0.32276  0.78154  1.0000
  H   H47       1.0  0.14048000000000002  0.44481  0.69047  1.0000
  H   H48       1.0  0.85289  0.4146  0.66832  1.0000
  H   H49       1.0  0.05008  0.55252  0.61589  1.0000
  H   H50       1.0  0.92942  0.54484  0.61154  1.0000
  H   H51       1.0  0.94379  0.4272300000000001  0.52551  1.0000
  H   H52       1.0  0.06406  0.43394  0.52937  1.0000
  H   H53       1.0  0.30375  0.18053  0.04533  1.0000
  H   H54       1.0  0.39025  0.18947  0.11101999999999998  1.0000
  H   H55       1.0  0.31732  0.3243  0.01312  1.0000
  H   H56       1.0  0.39067  0.34095  0.08783  1.0000
  H   H57       1.0  0.47083  0.32747  0.96297  1.0000
  H   H58       1.0  0.43218  0.22861  0.9579900000000001  1.0000
  H   H59       1.0  0.56251  0.29452  0.07690000000000001  1.0000
  H   H60       1.0  0.51975  0.19712  0.07541  1.0000
  H   H61       1.0  0.59438  0.17491  0.9510700000000001  1.0000
  H   H62       1.0  0.67182  0.19363  0.0232  1.0000
  H   H63       1.0  0.68785  0.33592  0.98183  1.0000
  H   H64       1.0  0.60252  0.32115  0.9154700000000001  1.0000
  H   H65       1.0  0.92429  0.16379  0.25773  1.0000
  H   H66       1.0  0.89327  0.01999  0.32957000000000003  1.0000
  H   H67       1.0  0.16989  0.0906  0.36117  1.0000
  H   H68       1.0  0.9998300000000001  0.91951  0.3916100000000001  1.0000
  H   H69       1.0  0.11868  0.93812  0.39126  1.0000
  H   H70       1.0  0.0987  0.03277  0.49904000000000004  1.0000
  H   H71       1.0  0.06875  0.93288  0.51822  1.0000
  H   H72       1.0  0.91651  0.32276  0.28154  1.0000
  H   H73       1.0  0.85952  0.44481  0.19048  1.0000
  H   H74       1.0  0.14711  0.4145900000000001  0.16832  1.0000
  H   H75       1.0  0.94993  0.55251  0.11589  1.0000
  H   H76       1.0  0.07059  0.54484  0.11154  1.0000
  H   H77       1.0  0.05621  0.4272300000000001  0.025510000000000005  1.0000
  H   H78       1.0  0.93594  0.43394  0.029369999999999997  1.0000
  H   H79       1.0  0.30375  0.81947  0.4546700000000001  1.0000
  H   H80       1.0  0.39025  0.8105300000000002  0.38897  1.0000
  H   H81       1.0  0.31732  0.6757  0.48687  1.0000
  H   H82       1.0  0.39067  0.65906  0.41216  1.0000
  H   H83       1.0  0.47083  0.67254  0.53702  1.0000
  H   H84       1.0  0.43218  0.77139  0.54201  1.0000
  H   H85       1.0  0.56251  0.70548  0.4230900000000001  1.0000
  H   H86       1.0  0.51975  0.80288  0.42459  1.0000
  H   H87       1.0  0.59438  0.82509  0.54893  1.0000
  H   H88       1.0  0.67182  0.8063800000000002  0.4768  1.0000
  H   H89       1.0  0.68785  0.66409  0.51817  1.0000
  H   H90       1.0  0.60252  0.67885  0.58453  1.0000
  H   H91       1.0  0.92429  0.83622  0.24227000000000004  1.0000
  H   H92       1.0  0.8932600000000002  0.98001  0.17043  1.0000
  H   H93       1.0  0.16989  0.9094100000000002  0.13883  1.0000
  H   H94       1.0  0.9998300000000001  0.08049  0.10839  1.0000
  H   H95       1.0  0.11868  0.061889999999999994  0.10874  1.0000
  H   H96       1.0  0.0987  0.96723  0.00096  1.0000
  H   H97       1.0  0.06875  0.06712  0.98178  1.0000
  H   H98       1.0  0.91651  0.67724  0.21846  1.0000
  H   H99       1.0  0.85952  0.55519  0.3095200000000001  1.0000
  H   H100      1.0  0.14711  0.58541  0.3316700000000001  1.0000
  H   H101      1.0  0.94992  0.4474900000000001  0.38411  1.0000
  H   H102      1.0  0.07059  0.45516  0.3884500000000001  1.0000
  H   H103      1.0  0.05621  0.57277  0.47448999999999997  1.0000
  H   H104      1.0  0.93594  0.56607  0.47063  1.0000
  H   H105      1.0  0.8008500000000002  0.68233  0.4524000000000001  1.0000
  H   H106      1.0  0.89017  0.69127  0.38879  1.0000
  H   H107      1.0  0.81773  0.8244600000000001  0.48871  1.0000
  H   H108      1.0  0.89145  0.84246  0.4144  1.0000
  H   H109      1.0  0.97094  0.82648  0.53881  1.0000
  H   H110      1.0  0.9319700000000002  0.72762  0.54276  1.0000
  H   H111      1.0  0.06235  0.79532  0.42472  1.0000
  H   H112      1.0  0.02084  0.6975  0.4252100000000001  1.0000
  H   H113      1.0  0.0957  0.67598  0.5504800000000001  1.0000
  H   H114      1.0  0.17237  0.69433  0.4778800000000001  1.0000
  H   H115      1.0  0.18832  0.83687  0.5170800000000001  1.0000
  H   H116      1.0  0.10311  0.82327  0.58415  1.0000
  H   H117      1.0  0.4252  0.66459  0.24201000000000003  1.0000
  H   H118      1.0  0.39381  0.52075  0.17033  1.0000
  H   H119      1.0  0.67064  0.59087  0.13883  1.0000
  H   H120      1.0  0.49976  0.42009  0.10859  1.0000
  H   H121      1.0  0.61867  0.43811  0.10873  1.0000
  H   H122      1.0  0.59858  0.53304  0.00084  1.0000
  H   H123      1.0  0.56903  0.4329900000000001  0.9819099999999998  1.0000
  H   H124      1.0  0.41915  0.82367  0.21804  1.0000
  H   H125      1.0  0.3603  0.94464  0.30949  1.0000
  H   H126      1.0  0.64845  0.91763  0.33143  1.0000
  H   H127      1.0  0.44873  0.05269  0.38445  1.0000
  H   H128      1.0  0.5696200000000001  0.0468  0.38885  1.0000
  H   H129      1.0  0.55708  0.92804  0.47391000000000005  1.0000
  H   H130      1.0  0.43669  0.93363  0.47026999999999997  1.0000
  H   H131      1.0  0.8008500000000002  0.31767  0.0476  1.0000
  H   H132      1.0  0.89018  0.30874  0.1112  1.0000
  H   H133      1.0  0.81773  0.17554000000000003  0.01129  1.0000
  H   H134      1.0  0.89145  0.15754  0.08560000000000001  1.0000
  H   H135      1.0  0.97094  0.17352  0.9611900000000001  1.0000
  H   H136      1.0  0.9319700000000002  0.27238  0.95723  1.0000
  H   H137      1.0  0.06235  0.20469  0.07527000000000002  1.0000
  H   H138      1.0  0.02084  0.3025  0.07479000000000001  1.0000
  H   H139      1.0  0.0957  0.32402  0.9495200000000001  1.0000
  H   H140      1.0  0.17238  0.30567  0.02212  1.0000
  H   H141      1.0  0.18832  0.16314  0.9829200000000001  1.0000
  H   H142      1.0  0.10311  0.17674  0.9158500000000002  1.0000
  H   H143      1.0  0.4252  0.33541  0.25799  1.0000
  H   H144      1.0  0.39381  0.47925  0.32966  1.0000
  H   H145      1.0  0.67064  0.40913  0.36117  1.0000
  H   H146      1.0  0.49976  0.57992  0.39141  1.0000
  H   H147      1.0  0.61867  0.56189  0.39126  1.0000
  H   H148      1.0  0.59858  0.46697  0.49915  1.0000
  H   H149      1.0  0.56904  0.56701  0.51808  1.0000
  H   H150      1.0  0.41915  0.17633  0.28196  1.0000
  H   H151      1.0  0.3603  0.05536  0.19051  1.0000
  H   H152      1.0  0.64845  0.08237  0.16857  1.0000
  H   H153      1.0  0.44873  0.94731  0.11555  1.0000
  H   H154      1.0  0.5696200000000001  0.9532  0.11114999999999998  1.0000
  H   H155      1.0  0.55708  0.07196  0.02609  1.0000
  H   H156      1.0  0.43669  0.06637  0.029730000000000003  1.0000
  H   H157      1.0  0.19915  0.31767  0.5476  1.0000
  H   H158      1.0  0.10983  0.30874  0.6112  1.0000
  H   H159      1.0  0.18227  0.17554000000000003  0.51128  1.0000
  H   H160      1.0  0.10855  0.15754  0.5856  1.0000
  H   H161      1.0  0.02907  0.17352  0.46119  1.0000
  H   H162      1.0  0.06803  0.27238  0.45723  1.0000
  H   H163      1.0  0.93765  0.20469  0.5752700000000001  1.0000
  H   H164      1.0  0.97917  0.3025  0.57479  1.0000
  H   H165      1.0  0.9043  0.32402  0.44952  1.0000
  H   H166      1.0  0.82763  0.30568  0.52211  1.0000
  H   H167      1.0  0.81168  0.16314  0.48291999999999996  1.0000
  H   H168      1.0  0.89689  0.17674  0.41585  1.0000
  H   H169      1.0  0.5748  0.33541  0.75799  1.0000
  H   H170      1.0  0.60619  0.47925999999999996  0.82966  1.0000
  H   H171      1.0  0.32936  0.40914  0.86116  1.0000
  H   H172      1.0  0.50024  0.57992  0.89141  1.0000
  H   H173      1.0  0.38133  0.56189  0.89126  1.0000
  H   H174      1.0  0.40142000000000005  0.46697  0.9991500000000001  1.0000
  H   H175      1.0  0.43097  0.56701  0.01808  1.0000
  H   H176      1.0  0.58085  0.17633  0.78196  1.0000
  H   H177      1.0  0.6397  0.05536  0.69051  1.0000
  H   H178      1.0  0.35155  0.08237  0.66857  1.0000
  H   H179      1.0  0.55127  0.94731  0.61555  1.0000
  H   H180      1.0  0.43038  0.9532  0.6111500000000001  1.0000
  H   H181      1.0  0.44292  0.07196  0.52609  1.0000
  H   H182      1.0  0.56331  0.06637  0.52972  1.0000
  H   H183      1.0  0.19915  0.68233  0.9524000000000001  1.0000
  H   H184      1.0  0.10983  0.69127  0.8887900000000001  1.0000
  H   H185      1.0  0.18227  0.8244600000000001  0.9887100000000001  1.0000
  H   H186      1.0  0.10855  0.84246  0.9144000000000001  1.0000
  H   H187      1.0  0.02907  0.82648  0.03881  1.0000
  H   H188      1.0  0.06803  0.72762  0.04277  1.0000
  H   H189      1.0  0.93765  0.79532  0.92472  1.0000
  H   H190      1.0  0.97916  0.6975  0.92521  1.0000
  H   H191      1.0  0.9043  0.67598  0.05048  1.0000
  H   H192      1.0  0.82763  0.69433  0.97788  1.0000
  H   H193      1.0  0.81168  0.83687  0.01708  1.0000
  H   H194      1.0  0.89689  0.82327  0.08415000000000002  1.0000
  H   H195      1.0  0.5748  0.66459  0.742  1.0000
  H   H196      1.0  0.60619  0.52075  0.67033  1.0000
  H   H197      1.0  0.32936  0.59087  0.63883  1.0000
  H   H198      1.0  0.50024  0.42009  0.60859  1.0000
  H   H199      1.0  0.38133  0.43811  0.60873  1.0000
  H   H200      1.0  0.40142000000000005  0.53303  0.50084  1.0000
  H   H201      1.0  0.43097  0.4329900000000001  0.48191000000000006  1.0000
  H   H202      1.0  0.58085  0.82367  0.71804  1.0000
  H   H203      1.0  0.6397  0.94464  0.80949  1.0000
  H   H204      1.0  0.35155  0.91763  0.83143  1.0000
  H   H205      1.0  0.55127  0.05269  0.88444  1.0000
  H   H206      1.0  0.43038  0.0468  0.8888500000000001  1.0000
  H   H207      1.0  0.44292  0.92804  0.9739100000000002  1.0000
  H   H208      1.0  0.56331  0.93363  0.9702699999999999  1.0000
  C   C1        1.0  0.73396  0.76279  0.85367  1.0000
  C   C2        1.0  0.66622  0.77753  0.9151300000000001  1.0000
  C   C3        1.0  0.62831  0.7035900000000002  0.95383  1.0000
  C   C4        1.0  0.54654  0.72461  0.0029800000000000004  1.0000
  C   C5        1.0  0.46167  0.75265  0.9605100000000001  1.0000
  C   C6        1.0  0.38243  0.77888  0.01024  1.0000
  C   C7        1.0  0.34229000000000004  0.70944  0.05431  1.0000
  C   C8        1.0  0.27254  0.73162  0.11255999999999998  1.0000
  C   C9        1.0  0.0287  0.87229  0.7100800000000002  1.0000
  C   C10       1.0  0.04558  0.94369  0.67481  1.0000
  C   C11       1.0  0.90059  0.90887  0.65778  1.0000
  C   C12       1.0  0.9481  0.03568  0.59435  1.0000
  C   C13       1.0  0.95254  0.01388  0.51278  1.0000
  C   C14       1.0  0.04297  0.64045  0.75535  1.0000
  C   C15       1.0  0.0726  0.57888  0.79947  1.0000
  C   C16       1.0  0.92239  0.59331  0.81185  1.0000
  C   C17       1.0  0.99342  0.48953  0.89353  1.0000
  C   C18       1.0  0.0007900000000000001  0.53022  0.9685900000000001  1.0000
  C   C19       1.0  0.73396  0.23721  0.6463300000000001  1.0000
  C   C20       1.0  0.66622  0.22247  0.58486  1.0000
  C   C21       1.0  0.62831  0.29642  0.54617  1.0000
  C   C22       1.0  0.54654  0.2754  0.49701000000000006  1.0000
  C   C23       1.0  0.46166  0.24735  0.53948  1.0000
  C   C24       1.0  0.38243  0.22113  0.48975  1.0000
  C   C25       1.0  0.34229000000000004  0.29057  0.44569000000000003  1.0000
  C   C26       1.0  0.27253  0.2684  0.38744  1.0000
  C   C27       1.0  0.0287  0.12772  0.78992  1.0000
  C   C28       1.0  0.04558  0.05631  0.82518  1.0000
  C   C29       1.0  0.9006  0.09113  0.84222  1.0000
  C   C30       1.0  0.9481  0.9643199999999998  0.9056500000000001  1.0000
  C   C31       1.0  0.95254  0.9861200000000001  0.98722  1.0000
  C   C32       1.0  0.04297  0.35956  0.74465  1.0000
  C   C33       1.0  0.0726  0.42112  0.70052  1.0000
  C   C34       1.0  0.92239  0.40669  0.68814  1.0000
  C   C35       1.0  0.99342  0.51048  0.60646  1.0000
  C   C36       1.0  0.0007900000000000001  0.46979000000000004  0.5314  1.0000
  C   C37       1.0  0.26604  0.23721  0.14633000000000002  1.0000
  C   C38       1.0  0.33378  0.22247  0.08487  1.0000
  C   C39       1.0  0.3717  0.29642  0.04617  1.0000
  C   C40       1.0  0.45347000000000004  0.27539  0.99701  1.0000
  C   C41       1.0  0.53834  0.24735  0.03948000000000001  1.0000
  C   C42       1.0  0.61757  0.22113  0.9897500000000001  1.0000
  C   C43       1.0  0.65771  0.29057  0.94568  1.0000
  C   C44       1.0  0.72746  0.26839  0.88743  1.0000
  C   C45       1.0  0.9713000000000002  0.12772  0.28992  1.0000
  C   C46       1.0  0.95442  0.05631  0.32518  1.0000
  C   C47       1.0  0.09941000000000001  0.09113  0.3422200000000001  1.0000
  C   C48       1.0  0.0519  0.9643199999999998  0.40565  1.0000
  C   C49       1.0  0.04746  0.9861200000000001  0.48722000000000004  1.0000
  C   C50       1.0  0.95703  0.35956  0.24465  1.0000
  C   C51       1.0  0.92741  0.42112  0.20053  1.0000
  C   C52       1.0  0.07761  0.40669  0.18815  1.0000
  C   C53       1.0  0.006580000000000001  0.51048  0.10647  1.0000
  C   C54       1.0  0.99921  0.46979000000000004  0.03141  1.0000
  C   C55       1.0  0.26604  0.76279  0.35367000000000004  1.0000
  C   C56       1.0  0.33378  0.77753  0.41513  1.0000
  C   C57       1.0  0.37169  0.70358  0.45383000000000007  1.0000
  C   C58       1.0  0.45346  0.72461  0.50299  1.0000
  C   C59       1.0  0.53834  0.75265  0.46052  1.0000
  C   C60       1.0  0.61757  0.77888  0.51024  1.0000
  C   C61       1.0  0.65771  0.70944  0.55431  1.0000
  C   C62       1.0  0.72746  0.73161  0.61256  1.0000
  C   C63       1.0  0.9713000000000002  0.87229  0.21008  1.0000
  C   C64       1.0  0.95442  0.94369  0.17481000000000002  1.0000
  C   C65       1.0  0.0994  0.90887  0.15778  1.0000
  C   C66       1.0  0.0519  0.03568  0.09435  1.0000
  C   C67       1.0  0.04746  0.01388  0.01278  1.0000
  C   C68       1.0  0.95703  0.64045  0.25535  1.0000
  C   C69       1.0  0.9274  0.57888  0.29947  1.0000
  C   C70       1.0  0.07761  0.59331  0.31185  1.0000
  C   C71       1.0  0.006580000000000001  0.48953  0.39353  1.0000
  C   C72       1.0  0.99921  0.53021  0.46859000000000006  1.0000
  C   C73       1.0  0.7682  0.74243  0.35213  1.0000
  C   C74       1.0  0.83361  0.72456  0.41454  1.0000
  C   C75       1.0  0.872  0.79711  0.45518  1.0000
  C   C76       1.0  0.95345  0.77485  0.50422  1.0000
  C   C77       1.0  0.03858  0.74752  0.46164  1.0000
  C   C78       1.0  0.11817  0.72196  0.51128  1.0000
  C   C79       1.0  0.15826  0.79238  0.55416  1.0000
  C   C80       1.0  0.22763000000000005  0.77093  0.61269  1.0000
  C   C81       1.0  0.47208  0.6283700000000001  0.20989000000000002  1.0000
  C   C82       1.0  0.45508  0.5569  0.17476  1.0000
  C   C83       1.0  0.60008  0.59167  0.15765  1.0000
  C   C84       1.0  0.55206  0.46464  0.09439000000000002  1.0000
  C   C85       1.0  0.54754  0.48626  0.01278  1.0000
  C   C86       1.0  0.45901  0.86066  0.25516  1.0000
  C   C87       1.0  0.42856  0.92179  0.29938  1.0000
  C   C88       1.0  0.57901  0.9089  0.31171  1.0000
  C   C89       1.0  0.50625  0.01151  0.39368  1.0000
  C   C90       1.0  0.49952  0.9700700000000001  0.46839000000000003  1.0000
  C   C91       1.0  0.7682  0.25757  0.14787  1.0000
  C   C92       1.0  0.83361  0.27544  0.08546  1.0000
  C   C93       1.0  0.872  0.20289  0.04482  1.0000
  C   C94       1.0  0.95345  0.22515  0.99577  1.0000
  C   C95       1.0  0.03858  0.25248  0.03835  1.0000
  C   C96       1.0  0.11817  0.27805  0.98872  1.0000
  C   C97       1.0  0.15826  0.20763  0.9458300000000001  1.0000
  C   C98       1.0  0.22763000000000005  0.22908  0.8873  1.0000
  C   C99       1.0  0.47208  0.37164  0.29011  1.0000
  C   C100      1.0  0.45508  0.4431  0.32523  1.0000
  C   C101      1.0  0.60008  0.40834  0.34235  1.0000
  C   C102      1.0  0.55206  0.53536  0.4056  1.0000
  C   C103      1.0  0.54753  0.51374  0.48722000000000004  1.0000
  C   C104      1.0  0.45901  0.13935  0.24484000000000003  1.0000
  C   C105      1.0  0.42856  0.07821  0.20062  1.0000
  C   C106      1.0  0.57901  0.09110000000000001  0.18828  1.0000
  C   C107      1.0  0.50625  0.9884999999999999  0.10631  1.0000
  C   C108      1.0  0.49953  0.02993  0.0316  1.0000
  C   C109      1.0  0.2318  0.25757  0.64787  1.0000
  C   C110      1.0  0.16639  0.27544  0.58546  1.0000
  C   C111      1.0  0.128  0.20289  0.54482  1.0000
  C   C112      1.0  0.04655  0.22515  0.49577  1.0000
  C   C113      1.0  0.96142  0.25248  0.5383500000000001  1.0000
  C   C114      1.0  0.88183  0.27805  0.48872  1.0000
  C   C115      1.0  0.84174  0.20763  0.44583  1.0000
  C   C116      1.0  0.77237  0.22908  0.3873  1.0000
  C   C117      1.0  0.52792  0.37164  0.7901100000000001  1.0000
  C   C118      1.0  0.54493  0.4431  0.82523  1.0000
  C   C119      1.0  0.39992  0.40834  0.84235  1.0000
  C   C120      1.0  0.44794  0.53536  0.9056000000000001  1.0000
  C   C121      1.0  0.45247  0.51374  0.9872100000000001  1.0000
  C   C122      1.0  0.54099  0.13935  0.74483  1.0000
  C   C123      1.0  0.57145  0.07821  0.7006200000000001  1.0000
  C   C124      1.0  0.42099  0.09110000000000001  0.68828  1.0000
  C   C125      1.0  0.49376000000000003  0.9884999999999999  0.60631  1.0000
  C   C126      1.0  0.50048  0.02993  0.5316  1.0000
  C   C127      1.0  0.2318  0.7424400000000002  0.85213  1.0000
  C   C128      1.0  0.16639  0.72456  0.91453  1.0000
  C   C129      1.0  0.128  0.79711  0.95518  1.0000
  C   C130      1.0  0.04655  0.77485  0.00422  1.0000
  C   C131      1.0  0.96142  0.74752  0.9616399999999999  1.0000
  C   C132      1.0  0.88183  0.72196  0.01128  1.0000
  C   C133      1.0  0.84174  0.79238  0.05416  1.0000
  C   C134      1.0  0.77237  0.77093  0.11268999999999998  1.0000
  C   C135      1.0  0.52792  0.6283700000000001  0.70989  1.0000
  C   C136      1.0  0.54493  0.5569  0.67476  1.0000
  C   C137      1.0  0.39992  0.59167  0.65764  1.0000
  C   C138      1.0  0.44794  0.46464  0.59439  1.0000
  C   C139      1.0  0.45247  0.48626  0.51278  1.0000
  C   C140      1.0  0.54099  0.86066  0.75516  1.0000
  C   C141      1.0  0.57145  0.92179  0.79938  1.0000
  C   C142      1.0  0.42099  0.9089  0.81171  1.0000
  C   C143      1.0  0.49375  0.01151  0.8936800000000001  1.0000
  C   C144      1.0  0.50047  0.9700700000000001  0.96839  1.0000
  N   N1        1.0  0.93784  0.8512900000000001  0.69878  1.0000
  N   N2        1.0  0.96376  0.96626  0.6421  1.0000
  N   N3        1.0  0.94893  0.64893  0.76383  1.0000
  N   N4        1.0  0.99547  0.54914  0.83459  1.0000
  N   N5        1.0  0.93784  0.14871  0.80122  1.0000
  N   N6        1.0  0.96376  0.03374  0.85789  1.0000
  N   N7        1.0  0.94893  0.35107  0.73617  1.0000
  N   N8        1.0  0.99547  0.45086  0.6654  1.0000
  N   N9        1.0  0.06216  0.14871  0.30122  1.0000
  N   N10       1.0  0.03624  0.03374  0.35789000000000004  1.0000
  N   N11       1.0  0.05107  0.35107  0.23617  1.0000
  N   N12       1.0  0.00453  0.45086  0.16540000000000002  1.0000
  N   N13       1.0  0.06216  0.8512900000000001  0.19878  1.0000
  N   N14       1.0  0.03624  0.96626  0.14210000000000003  1.0000
  N   N15       1.0  0.05107  0.64893  0.26383  1.0000
  N   N16       1.0  0.00453  0.54914  0.33459  1.0000
  N   N17       1.0  0.56291  0.64934  0.19855  1.0000
  N   N18       1.0  0.53685  0.53422  0.14206  1.0000
  N   N19       1.0  0.55313  0.85317  0.26356  1.0000
  N   N20       1.0  0.50528  0.9522200000000002  0.33449000000000007  1.0000
  N   N21       1.0  0.56291  0.35066  0.30145  1.0000
  N   N22       1.0  0.53685  0.46578  0.35793  1.0000
  N   N23       1.0  0.55313  0.14683  0.23644  1.0000
  N   N24       1.0  0.50528  0.04779  0.16551  1.0000
  N   N25       1.0  0.43709  0.35066  0.80145  1.0000
  N   N26       1.0  0.46315  0.46578  0.85793  1.0000
  N   N27       1.0  0.44687000000000004  0.14683  0.73643  1.0000
  N   N28       1.0  0.49472  0.04779  0.66551  1.0000
  N   N29       1.0  0.4371  0.64934  0.69855  1.0000
  N   N30       1.0  0.46315  0.53422  0.64206  1.0000
  N   N31       1.0  0.44687000000000004  0.85317  0.7635600000000001  1.0000
  N   N32       1.0  0.49472  0.9522200000000002  0.83449  1.0000
  O   O1        1.0  0.78402  0.82169  0.8332200000000001  1.0000
  O   O2        1.0  0.73605  0.69445  0.82216  1.0000
  O   O3        1.0  0.21258  0.67848  0.12966  1.0000
  O   O4        1.0  0.27816  0.7991  0.14474000000000004  1.0000
  O   O5        1.0  0.78402  0.17832  0.66678  1.0000
  O   O6        1.0  0.73605  0.30555  0.67784  1.0000
  O   O7        1.0  0.21256  0.32154  0.3703400000000001  1.0000
  O   O8        1.0  0.27816  0.20093  0.35525  1.0000
  O   O9        1.0  0.21598  0.17832  0.16678  1.0000
  O   O10       1.0  0.26395  0.30555  0.17784  1.0000
  O   O11       1.0  0.78743  0.32154  0.87034  1.0000
  O   O12       1.0  0.72184  0.20092  0.85525  1.0000
  O   O13       1.0  0.21597  0.82168  0.33322  1.0000
  O   O14       1.0  0.26395  0.69445  0.32216  1.0000
  O   O15       1.0  0.78743  0.67847  0.62966  1.0000
  O   O16       1.0  0.7218500000000002  0.79909  0.6447400000000001  1.0000
  O   O17       1.0  0.71242  0.68646  0.33348  1.0000
  O   O18       1.0  0.77277  0.8093  0.31863  1.0000
  O   O19       1.0  0.29155  0.82167  0.62623  1.0000
  O   O20       1.0  0.21788  0.70584  0.64835  1.0000
  O   O21       1.0  0.71242  0.31354  0.16651  1.0000
  O   O22       1.0  0.77277  0.1907  0.18137  1.0000
  O   O23       1.0  0.29155  0.17833  0.8737700000000002  1.0000
  O   O24       1.0  0.21788  0.29416  0.8516500000000001  1.0000
  O   O25       1.0  0.28758  0.31354  0.66651  1.0000
  O   O26       1.0  0.22724  0.1907  0.68137  1.0000
  O   O27       1.0  0.70845  0.17833  0.37377  1.0000
  O   O28       1.0  0.78212  0.29416  0.35165  1.0000
  O   O29       1.0  0.28758  0.68647  0.83348  1.0000
  O   O30       1.0  0.22723  0.8093  0.81862  1.0000
  O   O31       1.0  0.70845  0.82167  0.12623  1.0000
  O   O32       1.0  0.78212  0.70584  0.14835  1.0000
