data_image0
_chemical_formula_structural       Co8H160C232N24O40
_chemical_formula_sum              "Co8 H160 C232 N24 O40"
_cell_length_a       17.45265
_cell_length_b       21.19032
_cell_length_c       21.18561
_cell_angle_alpha    80.2571
_cell_angle_beta     65.72301
_cell_angle_gamma    65.68276

_symmetry_space_group_name_H-M    'P 1'
_symmetry_Int_Tables_number       1

loop_
  _symmetry_equiv_pos_as_xyz
  'x,y,z'

loop_
  _atom_site_type_symbol
  _atom_site_label
  _atom_site_symmetry_multiplicity
  _atom_site_fract_x
  _atom_site_fract_y
  _atom_site_fract_z
  _atom_site_occupancy
  Co  Co1       1.0  0.14297999999999997  0.73039  0.53842  1.0000
  Co  Co2       1.0  0.41173999999999994  0.76955  0.96236  1.0000
  Co  Co3       1.0  0.37408  0.53824  0.7696099999999998  1.0000
  Co  Co4       1.0  0.6811800000000002  0.9625  0.7299599999999999  1.0000
  Co  Co5       1.0  0.857  0.26979  0.46188  1.0000
  Co  Co6       1.0  0.5884599999999998  0.23044999999999996  0.03804  1.0000
  Co  Co7       1.0  0.6259799999999999  0.46173  0.23037  1.0000
  Co  Co8       1.0  0.31883  0.03777  0.26983  1.0000
  H   H1        1.0  0.9932099999999999  0.85304  0.63448  1.0000
  H   H2        1.0  0.92715  0.8779700000000001  0.75974  1.0000
  H   H3        1.0  0.11029000000000005  0.67181  0.7870599999999998  1.0000
  H   H4        1.0  0.16605999999999999  0.65501  0.66144  1.0000
  H   H5        1.0  0.7850300000000002  0.8856500000000002  0.9921999999999999  1.0000
  H   H6        1.0  0.8391599999999999  0.86098  0.8677999999999999  1.0000
  H   H7        1.0  0.09958999999999996  0.72571  0.87731  1.0000
  H   H8        1.0  0.03208  0.75342  0.0025  1.0000
  H   H9        1.0  0.08471999999999998  0.8467599999999998  0.43342  1.0000
  H   H10       1.0  0.13776000000000013  0.85545  0.30467  1.0000
  H   H11       1.0  0.31799999999999995  0.6401  0.29594  1.0000
  H   H12       1.0  0.2545200000000002  0.64013  0.42430999999999996  1.0000
  H   H13       1.0  0.83175  0.46301999999999993  0.54552  1.0000
  H   H14       1.0  0.6627399999999997  0.49515  0.58575  1.0000
  H   H15       1.0  0.63568  0.4930300000000001  0.79655  1.0000
  H   H16       1.0  0.8055100000000003  0.46062000000000003  0.7561499999999998  1.0000
  H   H17       1.0  0.08544999999999996  0.41984  0.60027  1.0000
  H   H18       1.0  0.15071000000000007  0.51122  0.5720899999999999  1.0000
  H   H19       1.0  0.8942899999999996  0.66625  0.5775  1.0000
  H   H20       1.0  0.8264399999999998  0.57723  0.61065  1.0000
  H   H21       1.0  0.4817299999999998  0.64672  0.8661  1.0000
  H   H22       1.0  0.56494  0.62222  0.7407199999999998  1.0000
  H   H23       1.0  0.56847  0.82857  0.7135999999999999  1.0000
  H   H24       1.0  0.48286999999999985  0.84494  0.83938  1.0000
  H   H25       1.0  0.66169  0.6148  0.5083399999999999  1.0000
  H   H26       1.0  0.5671700000000001  0.63935  0.6328  1.0000
  H   H27       1.0  0.7013799999999996  0.77494  0.62309  1.0000
  H   H28       1.0  0.78653  0.74728  0.49785999999999997  1.0000
  H   H29       1.0  0.36456999999999984  0.65201  0.0674  1.0000
  H   H30       1.0  0.2982099999999999  0.64342  0.19618  1.0000
  H   H31       1.0  0.25271000000000005  0.85916  0.20458  1.0000
  H   H32       1.0  0.3172600000000001  0.85904  0.07632  1.0000
  H   H33       1.0  0.8387  0.03648  0.9556799999999999  1.0000
  H   H34       1.0  0.7423300000000002  0.00487  0.9144599999999999  1.0000
  H   H35       1.0  0.92518  0.006789999999999999  0.70423  1.0000
  H   H36       1.0  0.022230000000000024  0.03827  0.74573  1.0000
  H   H37       1.0  0.10544999999999997  0.07842  0.90087  1.0000
  H   H38       1.0  0.2346799999999999  0.9865000000000002  0.928  1.0000
  H   H39       1.0  0.1373800000000001  0.83214  0.9231799999999999  1.0000
  H   H40       1.0  0.012790000000000152  0.92164  0.8910699999999999  1.0000
  H   H41       1.0  0.34704  0.63456  0.64626  1.0000
  H   H42       1.0  0.3055199999999998  0.75987  0.62164  1.0000
  H   H43       1.0  0.28246999999999994  0.78678  0.8279799999999998  1.0000
  H   H44       1.0  0.3219999999999998  0.66114  0.8443699999999998  1.0000
  H   H45       1.0  0.16975000000000012  0.9924899999999999  0.6146499999999999  1.0000
  H   H46       1.0  0.19994000000000006  0.86799  0.63879  1.0000
  H   H47       1.0  0.32469000000000003  0.87748  0.7744699999999999  1.0000
  H   H48       1.0  0.2842299999999999  0.00276  0.74715  1.0000
  H   H49       1.0  0.4323599999999997  0.43324  0.65301  1.0000
  H   H50       1.0  0.49374000000000007  0.30448  0.64456  1.0000
  H   H51       1.0  0.45688  0.29591  0.86022  1.0000
  H   H52       1.0  0.39375000000000004  0.42427  0.8601099999999999  1.0000
  H   H53       1.0  0.7956099999999999  0.54555  0.03562  1.0000
  H   H54       1.0  0.6581199999999997  0.58628  0.00397  1.0000
  H   H55       1.0  0.6285999999999999  0.79696  0.00733  1.0000
  H   H56       1.0  0.7667499999999999  0.75607  0.03901999999999999  1.0000
  H   H57       1.0  0.006670000000000017  0.60059  0.07850999999999997  1.0000
  H   H58       1.0  0.1631400000000001  0.57224  0.9867599999999999  1.0000
  H   H59       1.0  0.061010000000000064  0.57732  0.8323599999999999  1.0000
  H   H60       1.0  0.9040300000000002  0.61069  0.9215899999999999  1.0000
  H   H61       1.0  0.6285  0.8668299999999999  0.8521  1.0000
  H   H62       1.0  0.6868800000000002  0.7415499999999999  0.87734  1.0000
  H   H63       1.0  0.89721  0.71331  0.67113  1.0000
  H   H64       1.0  0.8279799999999999  0.83911  0.6541099999999997  1.0000
  H   H65       1.0  0.7761200000000001  0.50913  0.88541  1.0000
  H   H66       1.0  0.7063199999999996  0.63349  0.8603  1.0000
  H   H67       1.0  0.97657  0.62332  0.72546  1.0000
  H   H68       1.0  0.033799999999999955  0.49820000000000003  0.7536  1.0000
  H   H69       1.0  0.51734  0.06685  0.84714  1.0000
  H   H70       1.0  0.4416599999999999  0.1956  0.8562799999999999  1.0000
  H   H71       1.0  0.61232  0.20506  0.64094  1.0000
  H   H72       1.0  0.67744  0.07674  0.64045  1.0000
  H   H73       1.0  0.37483000000000016  0.9558799999999998  0.46258  1.0000
  H   H74       1.0  0.24645000000000009  0.9151699999999999  0.49498  1.0000
  H   H75       1.0  0.43054999999999966  0.70477  0.49400999999999995  1.0000
  H   H76       1.0  0.5596  0.74569  0.46159999999999995  1.0000
  H   H77       1.0  0.6836400000000001  0.90095  0.41998  1.0000
  H   H78       1.0  0.7219399999999999  0.9284  0.51096  1.0000
  H   H79       1.0  0.47112  0.9233299999999999  0.66663  1.0000
  H   H80       1.0  0.43521000000000004  0.89105  0.57778  1.0000
  H   H81       1.0  0.006300000000000033  0.147  0.36609  1.0000
  H   H82       1.0  0.07256  0.12208  0.24078999999999995  1.0000
  H   H83       1.0  0.8896799999999997  0.3284  0.21340999999999996  1.0000
  H   H84       1.0  0.8338000000000001  0.34514  0.33907  1.0000
  H   H85       1.0  0.21476  0.11423  0.00839  1.0000
  H   H86       1.0  0.16083000000000003  0.13918  0.13268  1.0000
  H   H87       1.0  0.90045  0.27458  0.12318999999999998  1.0000
  H   H88       1.0  0.9677499999999999  0.24658  0.99809  1.0000
  H   H89       1.0  0.91562  0.15342  0.56674  1.0000
  H   H90       1.0  0.86256  0.14453  0.69547  1.0000
  H   H91       1.0  0.68173  0.35976  0.7044699999999998  1.0000
  H   H92       1.0  0.7451699999999999  0.35988  0.57611  1.0000
  H   H93       1.0  0.16858  0.5371  0.45463  1.0000
  H   H94       1.0  0.33762999999999993  0.50481  0.41408  1.0000
  H   H95       1.0  0.36412999999999995  0.50688  0.20341999999999996  1.0000
  H   H96       1.0  0.19413000000000005  0.53942  0.24423  1.0000
  H   H97       1.0  0.91471  0.58025  0.3994799999999999  1.0000
  H   H98       1.0  0.84924  0.48895999999999995  0.4279299999999999  1.0000
  H   H99       1.0  0.10551000000000006  0.33394  0.42305999999999994  1.0000
  H   H100      1.0  0.1734699999999999  0.42291999999999996  0.3896299999999999  1.0000
  H   H101      1.0  0.5186  0.35331  0.13415999999999997  1.0000
  H   H102      1.0  0.43493999999999994  0.37788  0.25954  1.0000
  H   H103      1.0  0.43143999999999977  0.17154  0.28652  1.0000
  H   H104      1.0  0.51756  0.15508  0.16074  1.0000
  H   H105      1.0  0.33843999999999996  0.38517  0.4917099999999999  1.0000
  H   H106      1.0  0.43273  0.36074  0.36718  1.0000
  H   H107      1.0  0.29849  0.22515  0.37698  1.0000
  H   H108      1.0  0.21355  0.25269  0.50227  1.0000
  H   H109      1.0  0.6352600000000002  0.34783  0.9329499999999998  1.0000
  H   H110      1.0  0.7017100000000001  0.35642  0.8041799999999999  1.0000
  H   H111      1.0  0.74738  0.14065  0.79575  1.0000
  H   H112      1.0  0.6828799999999999  0.14074  0.9240099999999998  1.0000
  H   H113      1.0  0.16196999999999998  0.9631099999999999  0.04413999999999999  1.0000
  H   H114      1.0  0.25818000000000013  0.9949299999999999  0.08533  1.0000
  H   H115      1.0  0.07544000000000009  0.9932499999999999  0.29559  1.0000
  H   H116      1.0  0.9785099999999999  0.9614399999999999  0.2543  1.0000
  H   H117      1.0  0.89493  0.92122  0.09913  1.0000
  H   H118      1.0  0.76559  0.013110000000000002  0.07219  1.0000
  H   H119      1.0  0.8624400000000001  0.16764  0.07721  1.0000
  H   H120      1.0  0.9872  0.07822  0.10929  1.0000
  H   H121      1.0  0.6531700000000001  0.36535  0.3537599999999999  1.0000
  H   H122      1.0  0.6947800000000002  0.24004999999999999  0.3783699999999999  1.0000
  H   H123      1.0  0.71752  0.21314  0.17213  1.0000
  H   H124      1.0  0.67804  0.33876  0.15571  1.0000
  H   H125      1.0  0.83022  0.00734  0.38543  1.0000
  H   H126      1.0  0.80014  0.13185  0.36132  1.0000
  H   H127      1.0  0.6755499999999998  0.12248999999999999  0.22545  1.0000
  H   H128      1.0  0.7158999999999999  0.9972199999999999  0.25273999999999996  1.0000
  H   H129      1.0  0.5675999999999999  0.56688  0.34707  1.0000
  H   H130      1.0  0.5061999999999999  0.69564  0.35547  1.0000
  H   H131      1.0  0.54308  0.70411  0.1398  1.0000
  H   H132      1.0  0.6061700000000001  0.57579  0.13997  1.0000
  H   H133      1.0  0.20359  0.45314  0.96446  1.0000
  H   H134      1.0  0.34099999999999997  0.41374  0.99593  1.0000
  H   H135      1.0  0.37314  0.20238  0.99302  1.0000
  H   H136      1.0  0.23513000000000006  0.24183  0.96133  1.0000
  H   H137      1.0  0.9936399999999999  0.39824  0.92171  1.0000
  H   H138      1.0  0.83699  0.42775  0.01332  1.0000
  H   H139      1.0  0.9392700000000002  0.42306  0.16756999999999994  1.0000
  H   H140      1.0  0.09637999999999997  0.38838  0.07849999999999999  1.0000
  H   H141      1.0  0.37143999999999994  0.13355  0.14745999999999998  1.0000
  H   H142      1.0  0.31265000000000004  0.2589  0.12244999999999999  1.0000
  H   H143      1.0  0.10314000000000004  0.28671  0.32907  1.0000
  H   H144      1.0  0.17275000000000004  0.1609  0.3457899999999999  1.0000
  H   H145      1.0  0.22361999999999996  0.49108  0.11454  1.0000
  H   H146      1.0  0.29348  0.36671  0.1396  1.0000
  H   H147      1.0  0.023389999999999956  0.3769  0.27487999999999996  1.0000
  H   H148      1.0  0.9660999999999997  0.50205  0.2468  1.0000
  H   H149      1.0  0.48290999999999995  0.9331800000000001  0.15277  1.0000
  H   H150      1.0  0.5583900000000002  0.8044299999999999  0.14376999999999998  1.0000
  H   H151      1.0  0.38744  0.79526  0.35905  1.0000
  H   H152      1.0  0.32263000000000003  0.9235599999999999  0.35943  1.0000
  H   H153      1.0  0.62531  0.04425  0.53714  1.0000
  H   H154      1.0  0.75352  0.08506  0.50512  1.0000
  H   H155      1.0  0.5692399999999999  0.29548  0.5062999999999999  1.0000
  H   H156      1.0  0.4404000000000001  0.25443  0.5382199999999999  1.0000
  H   H157      1.0  0.31644000000000005  0.09912  0.57998  1.0000
  H   H158      1.0  0.27817000000000003  0.07189  0.4888199999999999  1.0000
  H   H159      1.0  0.5290199999999998  0.07702  0.33335  1.0000
  H   H160      1.0  0.56483  0.10916999999999999  0.42232  1.0000
  C   C1        1.0  0.016380000000000033  0.81415  0.6702599999999999  1.0000
  C   C2        1.0  0.97966  0.82759  0.7406999999999999  1.0000
  C   C3        1.0  0.012249999999999985  0.77728  0.78581  1.0000
  C   C4        1.0  0.08137000000000001  0.71406  0.7562399999999999  1.0000
  C   C5        1.0  0.11355999999999995  0.70392  0.68539  1.0000
  C   C6        1.0  0.85446  0.84981  0.9653299999999999  1.0000
  C   C7        1.0  0.8852600000000002  0.83653  0.89502  1.0000
  C   C8        1.0  0.9753600000000001  0.79121  0.8607799999999999  1.0000
  C   C9        1.0  0.028950000000000007  0.76074  0.9006799999999999  1.0000
  C   C10       1.0  0.9912499999999997  0.77684  0.9709799999999997  1.0000
  C   C11       1.0  0.13544000000000003  0.80226  0.4006999999999999  1.0000
  C   C12       1.0  0.16637  0.80677  0.32892  1.0000
  C   C13       1.0  0.23333000000000004  0.7482199999999999  0.28848  1.0000
  C   C14       1.0  0.26547  0.6871  0.32372  1.0000
  C   C15       1.0  0.23093999999999998  0.68663  0.39554999999999996  1.0000
  C   C16       1.0  0.06459000000000002  0.6491  0.55737  1.0000
  C   C17       1.0  0.5401799999999997  0.51517  0.71661  1.0000
  C   C18       1.0  0.82597  0.46005  0.64922  1.0000
  C   C19       1.0  0.78813  0.46942999999999996  0.60011  1.0000
  C   C20       1.0  0.6947700000000001  0.4874899999999999  0.62246  1.0000
  C   C21       1.0  0.63988  0.49587  0.6932199999999998  1.0000
  C   C22       1.0  0.6794600000000002  0.48589  0.74188  1.0000
  C   C23       1.0  0.7727900000000002  0.4679  0.7200099999999998  1.0000
  C   C24       1.0  0.95188  0.49360999999999994  0.60871  1.0000
  C   C25       1.0  0.04399999999999998  0.47408000000000006  0.59635  1.0000
  C   C26       1.0  0.08013000000000005  0.52492  0.5799  1.0000
  C   C27       1.0  0.02650999999999995  0.59476  0.57345  1.0000
  C   C28       1.0  0.9354200000000003  0.61257  0.5837199999999999  1.0000
  C   C29       1.0  0.8973999999999999  0.56267  0.60192  1.0000
  C   C30       1.0  0.5015399999999999  0.68572  0.83037  1.0000
  C   C31       1.0  0.54808  0.67255  0.75984  1.0000
  C   C32       1.0  0.57489  0.72305  0.71474  1.0000
  C   C33       1.0  0.5513  0.78621  0.7443999999999998  1.0000
  C   C34       1.0  0.50323  0.79606  0.81535  1.0000
  C   C35       1.0  0.6684499999999995  0.65065  0.5352  1.0000
  C   C36       1.0  0.6159199999999998  0.66385  0.6055399999999997  1.0000
  C   C37       1.0  0.6265100000000001  0.7092  0.6397299999999998  1.0000
  C   C38       1.0  0.6892899999999998  0.73979  0.59973  1.0000
  C   C39       1.0  0.7377899999999995  0.72375  0.52942  1.0000
  C   C40       1.0  0.3381100000000001  0.69662  0.09999  1.0000
  C   C41       1.0  0.30203  0.69214  0.17181  1.0000
  C   C42       1.0  0.2698499999999998  0.75078  0.21218999999999996  1.0000
  C   C43       1.0  0.2753  0.81202  0.17687999999999995  1.0000
  C   C44       1.0  0.31193  0.81243  0.10506  1.0000
  C   C45       1.0  0.27112  0.84898  0.94216  1.0000
  C   C46       1.0  0.7710499999999999  0.98534  0.78375  1.0000
  C   C47       1.0  0.93432  0.03909  0.85233  1.0000
  C   C48       1.0  0.85645  0.030019999999999998  0.90104  1.0000
  C   C49       1.0  0.8037099999999997  0.0123  0.8781399999999999  1.0000
  C   C50       1.0  0.8283800000000001  0.00416  0.80726  1.0000
  C   C51       1.0  0.9070400000000001  0.01371  0.75898  1.0000
  C   C52       1.0  0.9604099999999999  0.031200000000000002  0.7814499999999999  1.0000
  C   C53       1.0  0.05343  0.00493  0.8927699999999998  1.0000
  C   C54       1.0  0.11427000000000004  0.02419  0.90457  1.0000
  C   C55       1.0  0.18504000000000018  0.97318  0.9205699999999999  1.0000
  C   C56       1.0  0.19446999999999998  0.90341  0.92677  1.0000
  C   C57       1.0  0.13099000000000005  0.8858399999999998  0.9170499999999998  1.0000
  C   C58       1.0  0.060979999999999944  0.93593  0.89933  1.0000
  C   C59       1.0  0.3313300000000001  0.67023  0.68525  1.0000
  C   C60       1.0  0.3076599999999999  0.74074  0.67201  1.0000
  C   C61       1.0  0.28964000000000006  0.78583  0.7224699999999998  1.0000
  C   C62       1.0  0.29577999999999977  0.7561  0.78562  1.0000
  C   C63       1.0  0.3182899999999999  0.68519  0.79551  1.0000
  C   C64       1.0  0.20345999999999995  0.96557  0.6504299999999997  1.0000
  C   C65       1.0  0.22139999999999987  0.89518  0.66343  1.0000
  C   C66       1.0  0.2662800000000001  0.8608599999999998  0.70873  1.0000
  C   C67       1.0  0.28907000000000005  0.90083  0.73942  1.0000
  C   C68       1.0  0.2670900000000001  0.97119  0.7235599999999998  1.0000
  C   C69       1.0  0.4382200000000001  0.4006199999999999  0.69765  1.0000
  C   C70       1.0  0.47342999999999996  0.32884  0.6932399999999997  1.0000
  C   C71       1.0  0.48141999999999996  0.2884  0.75188  1.0000
  C   C72       1.0  0.4518800000000001  0.32368  0.8130899999999998  1.0000
  C   C73       1.0  0.4171000000000001  0.3955  0.8135099999999997  1.0000
  C   C74       1.0  0.21364000000000002  0.5576  0.84922  1.0000
  C   C75       1.0  0.5548600000000001  0.71699  0.9853399999999999  1.0000
  C   C76       1.0  0.78691  0.64921  0.03888  1.0000
  C   C77       1.0  0.7583500000000001  0.60021  0.02942  1.0000
  C   C78       1.0  0.68272  0.62283  0.01166  1.0000
  C   C79       1.0  0.63588  0.69369  0.0038499999999999997  1.0000
  C   C80       1.0  0.66563  0.7422  0.013859999999999999  1.0000
  C   C81       1.0  0.7413699999999999  0.72006  0.03147  1.0000
  C   C82       1.0  0.94647  0.60853  0.00505  1.0000
  C   C83       1.0  0.019189999999999985  0.59639  0.02436  1.0000
  C   C84       1.0  0.10605000000000013  0.57983  0.9734199999999997  1.0000
  C   C85       1.0  0.12162999999999999  0.57343  0.90369  1.0000
  C   C86       1.0  0.048350000000000046  0.58353  0.88609  1.0000
  C   C87       1.0  0.96055  0.60181  0.93606  1.0000
  C   C88       1.0  0.6873399999999998  0.83083  0.8133699999999999  1.0000
  C   C89       1.0  0.72055  0.7604  0.82692  1.0000
  C   C90       1.0  0.7980099999999999  0.71509  0.77666  1.0000
  C   C91       1.0  0.8376700000000002  0.74441  0.7133199999999997  1.0000
  C   C92       1.0  0.7994999999999999  0.81529  0.70311  1.0000
  C   C93       1.0  0.81886  0.53586  0.8495899999999998  1.0000
  C   C94       1.0  0.7796199999999999  0.60613  0.83607  1.0000
  C   C95       1.0  0.83575  0.64015  0.79077  1.0000
  C   C96       1.0  0.9291800000000002  0.60008  0.7605299999999999  1.0000
  C   C97       1.0  0.96149  0.52983  0.77686  1.0000
  C   C98       1.0  0.53527  0.09972  0.80276  1.0000
  C   C99       1.0  0.49444999999999995  0.1715  0.80753  1.0000
  C   C100      1.0  0.52091  0.21212  0.7491499999999998  1.0000
  C   C101      1.0  0.5879300000000001  0.17707  0.6878599999999998  1.0000
  C   C102      1.0  0.62524  0.10525  0.68711  1.0000
  C   C103      1.0  0.6214799999999999  0.94256  0.6492999999999999  1.0000
  C   C104      1.0  0.25477999999999984  0.78469  0.51585  1.0000
  C   C105      1.0  0.47291999999999995  0.8524300000000001  0.46034  1.0000
  C   C106      1.0  0.38600999999999996  0.90128  0.46933  1.0000
  C   C107      1.0  0.31524  0.8786599999999999  0.48741  1.0000
  C   C108      1.0  0.3313100000000001  0.80791  0.49616999999999994  1.0000
  C   C109      1.0  0.4195499999999999  0.75945  0.4864799999999999  1.0000
  C   C110      1.0  0.49078  0.78161  0.46855  1.0000
  C   C111      1.0  0.5586199999999997  0.89279  0.4938899999999999  1.0000
  C   C112      1.0  0.6385799999999997  0.90481  0.47428  1.0000
  C   C113      1.0  0.6588899999999998  0.9209100000000001  0.5249499999999999  1.0000
  C   C114      1.0  0.5990700000000001  0.92713  0.59489  1.0000
  C   C115      1.0  0.51806  0.91724  0.6128199999999999  1.0000
  C   C116      1.0  0.49762000000000006  0.8994899999999999  0.56302  1.0000
  C   C117      1.0  0.9832799999999999  0.1859  0.33026  1.0000
  C   C118      1.0  0.020110000000000017  0.17249  0.2598  1.0000
  C   C119      1.0  0.98766  0.22287999999999997  0.21467999999999998  1.0000
  C   C120      1.0  0.9185599999999999  0.28612  0.24423  1.0000
  C   C121      1.0  0.88625  0.29622  0.31509  1.0000
  C   C122      1.0  0.14537  0.15015  0.03524  1.0000
  C   C123      1.0  0.11468000000000002  0.16358  0.10549999999999998  1.0000
  C   C124      1.0  0.02461000000000002  0.20896  0.13972  1.0000
  C   C125      1.0  0.9710199999999999  0.23943  0.09983  1.0000
  C   C126      1.0  0.008620000000000004  0.22318  0.029579999999999995  1.0000
  C   C127      1.0  0.86479  0.19785  0.5995299999999999  1.0000
  C   C128      1.0  0.8338199999999995  0.19324  0.67132  1.0000
  C   C129      1.0  0.7666699999999996  0.25169  0.71182  1.0000
  C   C130      1.0  0.7344  0.31281  0.67664  1.0000
  C   C131      1.0  0.76897  0.31339  0.6048  1.0000
  C   C132      1.0  0.9355299999999999  0.35100999999999993  0.44267  1.0000
  C   C133      1.0  0.45992999999999995  0.48468  0.28324  1.0000
  C   C134      1.0  0.17404999999999995  0.54001  0.35102  1.0000
  C   C135      1.0  0.2120699999999999  0.53061  0.40001  1.0000
  C   C136      1.0  0.30547  0.5125  0.37746  1.0000
  C   C137      1.0  0.3602199999999998  0.50408  0.30667  1.0000
  C   C138      1.0  0.32046  0.51408  0.25812  1.0000
  C   C139      1.0  0.22709000000000004  0.53209  0.28019999999999995  1.0000
  C   C140      1.0  0.048090000000000035  0.50652  0.3914499999999999  1.0000
  C   C141      1.0  0.9560499999999998  0.52603  0.40359  1.0000
  C   C142      1.0  0.9198  0.47524  0.42021  1.0000
  C   C143      1.0  0.9734299999999999  0.40542  0.4268  1.0000
  C   C144      1.0  0.06446000000000007  0.38761  0.41666999999999993  1.0000
  C   C145      1.0  0.10253000000000005  0.43746999999999997  0.39833  1.0000
  C   C146      1.0  0.49865  0.31435  0.16985  1.0000
  C   C147      1.0  0.4518900000000001  0.32756  0.24035  1.0000
  C   C148      1.0  0.42497000000000007  0.27707  0.28537  1.0000
  C   C149      1.0  0.44867  0.21388  0.25572  1.0000
  C   C150      1.0  0.49696999999999997  0.20399  0.18481  1.0000
  C   C151      1.0  0.33155000000000007  0.34938  0.46487  1.0000
  C   C152      1.0  0.38399  0.33624  0.39450999999999997  1.0000
  C   C153      1.0  0.3733600000000001  0.29089  0.36035  1.0000
  C   C154      1.0  0.31060999999999983  0.26028  0.40034  1.0000
  C   C155      1.0  0.26221  0.27628  0.4706699999999999  1.0000
  C   C156      1.0  0.66187  0.30319  0.90035  1.0000
  C   C157      1.0  0.6979300000000002  0.30768  0.8285399999999999  1.0000
  C   C158      1.0  0.7302  0.24904999999999997  0.78812  1.0000
  C   C159      1.0  0.7247799999999999  0.1878  0.82344  1.0000
  C   C160      1.0  0.6882000000000001  0.18735  0.8952699999999999  1.0000
  C   C161      1.0  0.7285799999999998  0.15067  0.058559999999999994  1.0000
  C   C162      1.0  0.22965  0.01468  0.21581999999999998  1.0000
  C   C163      1.0  0.06620000000000009  0.9607099999999998  0.14758999999999994  1.0000
  C   C164      1.0  0.14408000000000004  0.96975  0.0988  1.0000
  C   C165      1.0  0.19684  0.9875000000000002  0.12167  1.0000
  C   C166      1.0  0.17226000000000005  0.9958099999999999  0.19249  1.0000
  C   C167      1.0  0.09367000000000006  0.9862099999999999  0.24084999999999998  1.0000
  C   C168      1.0  0.04023999999999998  0.96862  0.21847999999999998  1.0000
  C   C169      1.0  0.9468399999999998  0.99474  0.10742  1.0000
  C   C170      1.0  0.8860500000000001  0.97545  0.09554  1.0000
  C   C171      1.0  0.8150999999999998  0.02647  0.07975  1.0000
  C   C172      1.0  0.80545  0.09626  0.07372999999999999  1.0000
  C   C173      1.0  0.8689599999999998  0.11389999999999999  0.08336999999999999  1.0000
  C   C174      1.0  0.9391399999999999  0.06381  0.10092999999999999  1.0000
  C   C175      1.0  0.66883  0.32968  0.31478  1.0000
  C   C176      1.0  0.69254  0.25916  0.32802  1.0000
  C   C177      1.0  0.7105  0.21407999999999996  0.27759  1.0000
  C   C178      1.0  0.70427  0.24380999999999997  0.21447  1.0000
  C   C179      1.0  0.6817500000000001  0.31472  0.20457  1.0000
  C   C180      1.0  0.79659  0.0343  0.34961  1.0000
  C   C181      1.0  0.7786900000000001  0.10469  0.33663  1.0000
  C   C182      1.0  0.73385  0.13904  0.29132  1.0000
  C   C183      1.0  0.71111  0.0991  0.2605499999999999  1.0000
  C   C184      1.0  0.73305  0.02874  0.27638  1.0000
  C   C185      1.0  0.56173  0.59949  0.30242  1.0000
  C   C186      1.0  0.5264599999999998  0.67129  0.30679999999999996  1.0000
  C   C187      1.0  0.5184299999999996  0.7117  0.24816  1.0000
  C   C188      1.0  0.54804  0.67637  0.18695  1.0000
  C   C189      1.0  0.58285  0.60454  0.18658  1.0000
  C   C190      1.0  0.7864799999999998  0.4425  0.15087  1.0000
  C   C191      1.0  0.4454899999999999  0.28327  0.01474  1.0000
  C   C192      1.0  0.21352999999999997  0.34912  0.96134  1.0000
  C   C193      1.0  0.24144000000000004  0.39861  0.9706599999999999  1.0000
  C   C194      1.0  0.3170400000000002  0.37673  0.9883099999999998  1.0000
  C   C195      1.0  0.36455  0.30604  0.9961999999999999  1.0000
  C   C196      1.0  0.33552  0.25698  0.98631  1.0000
  C   C197      1.0  0.25981000000000004  0.27839  0.9687699999999999  1.0000
  C   C198      1.0  0.05392999999999991  0.39019  0.99511  1.0000
  C   C199      1.0  0.9810700000000002  0.4027  0.97583  1.0000
  C   C200      1.0  0.8941299999999999  0.41985999999999996  0.02674  1.0000
  C   C201      1.0  0.8785299999999999  0.42661  0.09641  1.0000
  C   C202      1.0  0.95193  0.4163700000000001  0.11394  1.0000
  C   C203      1.0  0.03982999999999999  0.39743  0.06399999999999999  1.0000
  C   C204      1.0  0.31267  0.16947  0.18629999999999997  1.0000
  C   C205      1.0  0.27925  0.23992  0.17288999999999996  1.0000
  C   C206      1.0  0.20195  0.28513  0.22335  1.0000
  C   C207      1.0  0.16253999999999996  0.25571  0.28672  1.0000
  C   C208      1.0  0.20091  0.18482  0.29677  1.0000
  C   C209      1.0  0.18092999999999987  0.46436  0.15046  1.0000
  C   C210      1.0  0.22020000000000003  0.39408  0.16393  1.0000
  C   C211      1.0  0.16412  0.36006  0.20930999999999997  1.0000
  C   C212      1.0  0.07073000000000003  0.40014  0.23972  1.0000
  C   C213      1.0  0.03838999999999999  0.47041  0.22343  1.0000
  C   C214      1.0  0.4648799999999999  0.9004000000000001  0.19721  1.0000
  C   C215      1.0  0.5055899999999999  0.82861  0.19248  1.0000
  C   C216      1.0  0.4790900000000001  0.788  0.25086  1.0000
  C   C217      1.0  0.4120099999999999  0.82315  0.3121  1.0000
  C   C218      1.0  0.3748400000000001  0.89497  0.3128099999999999  1.0000
  C   C219      1.0  0.37820000000000004  0.05814  0.35065999999999997  1.0000
  C   C220      1.0  0.74505  0.21552999999999997  0.48466  1.0000
  C   C221      1.0  0.5270999999999999  0.14772  0.53968  1.0000
  C   C222      1.0  0.6140499999999999  0.09887  0.53059  1.0000
  C   C223      1.0  0.68472  0.12155  0.51268  1.0000
  C   C224      1.0  0.6685400000000001  0.19233  0.5041099999999998  1.0000
  C   C225      1.0  0.5803199999999997  0.24077999999999997  0.51371  1.0000
  C   C226      1.0  0.50918  0.21855  0.53146  1.0000
  C   C227      1.0  0.44145999999999996  0.10735  0.50612  1.0000
  C   C228      1.0  0.3614999999999998  0.09532  0.52569  1.0000
  C   C229      1.0  0.34121000000000007  0.07934  0.47495999999999994  1.0000
  C   C230      1.0  0.40099000000000007  0.07322  0.40504  1.0000
  C   C231      1.0  0.48207999999999995  0.08301  0.38713999999999993  1.0000
  C   C232      1.0  0.50245  0.10071  0.437  1.0000
  N   N1        1.0  0.08252999999999987  0.75307  0.6423  1.0000
  N   N2        1.0  0.9053899999999998  0.82106  0.003899999999999999  1.0000
  N   N3        1.0  0.16688000000000006  0.7431  0.43413  1.0000
  N   N4        1.0  0.47885  0.74671  0.85842  1.0000
  N   N5        1.0  0.7290400000000001  0.67945  0.49656  1.0000
  N   N6        1.0  0.34341  0.75584  0.06648  1.0000
  N   N7        1.0  0.33665999999999996  0.64211  0.74624  1.0000
  N   N8        1.0  0.22534000000000004  0.00418  0.6793899999999999  1.0000
  N   N9        1.0  0.41019000000000005  0.43407  0.75688  1.0000
  N   N10       1.0  0.7258199999999999  0.8585800000000001  0.75229  1.0000
  N   N11       1.0  0.90828  0.49712  0.82111  1.0000
  N   N12       1.0  0.6000300000000001  0.06648  0.74347  1.0000
  N   N13       1.0  0.9171699999999999  0.24698999999999996  0.35817  1.0000
  N   N14       1.0  0.09439999999999993  0.17882  0.9967  1.0000
  N   N15       1.0  0.8331999999999993  0.25701  0.56615  1.0000
  N   N16       1.0  0.5214  0.25336  0.1418  1.0000
  N   N17       1.0  0.27105  0.32051  0.50354  1.0000
  N   N18       1.0  0.6567499999999998  0.24391999999999997  0.93387  1.0000
  N   N19       1.0  0.66344  0.3578  0.25381  1.0000
  N   N20       1.0  0.77469  0.99573  0.32061  1.0000
  N   N21       1.0  0.58967  0.56599  0.24323999999999996  1.0000
  N   N22       1.0  0.2745199999999999  0.14164  0.24743  1.0000
  N   N23       1.0  0.09152000000000003  0.5031  0.17906  1.0000
  N   N24       1.0  0.40021999999999996  0.93373  0.25649  1.0000
  O   O1        1.0  0.01494000000000003  0.71282  0.55585  1.0000
  O   O2        1.0  0.14967999999999995  0.63101  0.54654  1.0000
  O   O3        1.0  0.49179  0.52341  0.78207  1.0000
  O   O4        1.0  0.50384  0.52303  0.67312  1.0000
  O   O5        1.0  0.91942  0.44089  0.62814  1.0000
  O   O6        1.0  0.28468999999999994  0.78515  0.94281  1.0000
  O   O7        1.0  0.3265200000000001  0.86763  0.95351  1.0000
  O   O8        1.0  0.7955500000000001  0.97788  0.71821  1.0000
  O   O9        1.0  0.6995699999999997  0.97708  0.8274  1.0000
  O   O10       1.0  0.98739  0.0579  0.8739099999999999  1.0000
  O   O11       1.0  0.22773000000000007  0.55634  0.7854899999999999  1.0000
  O   O12       1.0  0.28046000000000004  0.54655  0.86771  1.0000
  O   O13       1.0  0.5136800000000001  0.78252  0.9778799999999999  1.0000
  O   O14       1.0  0.52684  0.67325  0.9773999999999999  1.0000
  O   O15       1.0  0.8614099999999997  0.62819  0.05782999999999999  1.0000
  O   O16       1.0  0.57156  0.94262  0.7131799999999999  1.0000
  O   O17       1.0  0.6949199999999999  0.9546  0.6310499999999999  1.0000
  O   O18       1.0  0.2719999999999997  0.71913  0.52345  1.0000
  O   O19       1.0  0.17490000000000014  0.82826  0.5243999999999999  1.0000
  O   O20       1.0  0.5450899999999999  0.87376  0.44119  1.0000
  O   O21       1.0  0.9852899999999999  0.28729  0.44395999999999997  1.0000
  O   O22       1.0  0.85043  0.36906  0.45358  1.0000
  O   O23       1.0  0.50825  0.47662999999999994  0.21776  1.0000
  O   O24       1.0  0.4963  0.47659  0.32677  1.0000
  O   O25       1.0  0.08056999999999999  0.55923  0.37217999999999996  1.0000
  O   O26       1.0  0.71567  0.21441  0.057279999999999984  1.0000
  O   O27       1.0  0.6724999999999999  0.13225  0.0479  1.0000
  O   O28       1.0  0.20496  0.02228  0.28138  1.0000
  O   O29       1.0  0.30129999999999996  0.02273  0.17217999999999994  1.0000
  O   O30       1.0  0.013109999999999938  0.9417800000000001  0.1261  1.0000
  O   O31       1.0  0.7724  0.44369  0.21459999999999999  1.0000
  O   O32       1.0  0.71968  0.45348  0.13237  1.0000
  O   O33       1.0  0.4868799999999999  0.21780999999999998  0.02232  1.0000
  O   O34       1.0  0.47327  0.32717  0.02259  1.0000
  O   O35       1.0  0.13907000000000003  0.36977  0.9423999999999999  1.0000
  O   O36       1.0  0.42868000000000006  0.05724  0.28684  1.0000
  O   O37       1.0  0.3039200000000001  0.04733  0.3689499999999999  1.0000
  O   O38       1.0  0.728  0.28105  0.47664  1.0000
  O   O39       1.0  0.8248199999999997  0.17192  0.47649  1.0000
  O   O40       1.0  0.45498  0.12633  0.55883  1.0000
