data_image0
_chemical_formula_structural       Zn8H168C216N24O40
_chemical_formula_sum              "Zn8 H168 C216 N24 O40"
_cell_length_a       16.09186
_cell_length_b       14.941899999999999
_cell_length_c       22.39708
_cell_angle_alpha    89.96084
_cell_angle_beta     90.11735000000002
_cell_angle_gamma    90.02091000000001

_space_group_name_H-M_alt    "P 1"
_space_group_IT_number       1

loop_
  _space_group_symop_operation_xyz
  'x, y, z'

loop_
  _atom_site_type_symbol
  _atom_site_label
  _atom_site_symmetry_multiplicity
  _atom_site_fract_x
  _atom_site_fract_y
  _atom_site_fract_z
  _atom_site_occupancy
  Zn  Zn1       1.0  0.58937  0.2387  0.01073  1.0000
  Zn  Zn2       1.0  0.4107999999999999  0.2614  0.5109700000000001  1.0000
  Zn  Zn3       1.0  0.0887  0.76129  0.5103400000000001  1.0000
  Zn  Zn4       1.0  0.9106499999999997  0.7383500000000001  0.010880000000000003  1.0000
  Zn  Zn5       1.0  0.91129  0.23872  0.48966  1.0000
  Zn  Zn6       1.0  0.08934999999999997  0.26165  0.9891200000000002  1.0000
  Zn  Zn7       1.0  0.41062  0.7613  0.98926  1.0000
  Zn  Zn8       1.0  0.5891999999999997  0.73861  0.48903  1.0000
  H   H1        1.0  0.97345  0.20149000000000003  0.72925  1.0000
  H   H2        1.0  0.22374999999999995  0.11506  0.6739700000000001  1.0000
  H   H3        1.0  0.10006  0.14467  0.7377000000000001  1.0000
  H   H4        1.0  0.12947  0.42741000000000007  0.7075400000000001  1.0000
  H   H5        1.0  0.25047999999999987  0.39577  0.63998  1.0000
  H   H6        1.0  0.8658699999999998  0.11441  0.75995  1.0000
  H   H7        1.0  0.7338799999999998  0.1009  0.8177900000000002  1.0000
  H   H8        1.0  0.78872  0.34736  0.90701  1.0000
  H   H9        1.0  0.91603  0.36622  0.8450400000000002  1.0000
  H   H10       1.0  0.5316399999999998  0.08588  0.08771000000000001  1.0000
  H   H11       1.0  0.41002  0.98081  0.09094  1.0000
  H   H12       1.0  0.32762  0.0966  0.9244700000000002  1.0000
  H   H13       1.0  0.45583  0.18918999999999997  0.9245000000000001  1.0000
  H   H14       1.0  0.28286  0.92997  0.049550000000000004  1.0000
  H   H15       1.0  0.28479  0.92513  0.9711  1.0000
  H   H16       1.0  0.19634  0.07201  0.04397  1.0000
  H   H17       1.0  0.19655  0.06574  0.96551  1.0000
  H   H18       1.0  0.1287  0.94273  0.10403  1.0000
  H   H19       1.0  0.00745  0.83871  0.10342  1.0000
  H   H20       1.0  0.98297  0.85825  0.91983  1.0000
  H   H21       1.0  0.10144  0.96696  0.9130700000000003  1.0000
  H   H22       1.0  0.02737  0.30008  0.22851000000000005  1.0000
  H   H23       1.0  0.7771999999999998  0.38724  0.17229  1.0000
  H   H24       1.0  0.9009699999999998  0.35795  0.23642000000000005  1.0000
  H   H25       1.0  0.8699999999999998  0.07481000000000002  0.20856  1.0000
  H   H26       1.0  0.74824  0.10636  0.14083  1.0000
  H   H27       1.0  0.13367  0.3879  0.25966  1.0000
  H   H28       1.0  0.26673  0.40135  0.31659  1.0000
  H   H29       1.0  0.21345  0.15489  0.40643  1.0000
  H   H30       1.0  0.0846  0.13640999999999998  0.34564  1.0000
  H   H31       1.0  0.4680999999999999  0.41434  0.5882600000000001  1.0000
  H   H32       1.0  0.5897699999999998  0.5194  0.59162  1.0000
  H   H33       1.0  0.6724599999999997  0.40269  0.42580000000000007  1.0000
  H   H34       1.0  0.54422  0.31012  0.42567000000000005  1.0000
  H   H35       1.0  0.7164899999999997  0.57036  0.55049  1.0000
  H   H36       1.0  0.7157799999999997  0.57397  0.47199  1.0000
  H   H37       1.0  0.8033699999999998  0.42914  0.54756  1.0000
  H   H38       1.0  0.80289  0.43194  0.46897  1.0000
  H   H39       1.0  0.87294  0.55835  0.60534  1.0000
  H   H40       1.0  0.99375  0.66285  0.60274  1.0000
  H   H41       1.0  0.01432  0.64  0.41912  1.0000
  H   H42       1.0  0.89611  0.53052  0.41442  1.0000
  H   H43       1.0  0.4734  0.80274  0.22954000000000002  1.0000
  H   H44       1.0  0.72588  0.8862  0.17311000000000004  1.0000
  H   H45       1.0  0.60079  0.8587300000000001  0.23605000000000004  1.0000
  H   H46       1.0  0.62854  0.57527  0.20837  1.0000
  H   H47       1.0  0.75062  0.605  0.14117  1.0000
  H   H48       1.0  0.36371  0.8874599999999999  0.25924  1.0000
  H   H49       1.0  0.23198  0.89918  0.31716  1.0000
  H   H50       1.0  0.28961  0.6535800000000002  0.4068300000000001  1.0000
  H   H51       1.0  0.41713  0.63673  0.34522  1.0000
  H   H52       1.0  0.03164  0.91301  0.58701  1.0000
  H   H53       1.0  0.9103199999999998  0.01839  0.59061  1.0000
  H   H54       1.0  0.8276  0.90446  0.42368000000000006  1.0000
  H   H55       1.0  0.95555  0.81146  0.42347  1.0000
  H   H56       1.0  0.78347  0.06966  0.54966  1.0000
  H   H57       1.0  0.784  0.07469  0.4711800000000001  1.0000
  H   H58       1.0  0.69678  0.92801  0.54529  1.0000
  H   H59       1.0  0.69617  0.93333  0.46674  1.0000
  H   H60       1.0  0.6276899999999997  0.05552  0.60513  1.0000
  H   H61       1.0  0.5068299999999998  0.16  0.60431  1.0000
  H   H62       1.0  0.48397  0.14237000000000002  0.4205500000000001  1.0000
  H   H63       1.0  0.60223  0.03349  0.41398  1.0000
  H   H64       1.0  0.52667  0.69859  0.72841  1.0000
  H   H65       1.0  0.27504  0.61322  0.67209  1.0000
  H   H66       1.0  0.3997799999999999  0.64159  0.73551  1.0000
  H   H67       1.0  0.36955  0.92502  0.70797  1.0000
  H   H68       1.0  0.24711  0.89415  0.64097  1.0000
  H   H69       1.0  0.63582  0.61301  0.75864  1.0000
  H   H70       1.0  0.7680299999999998  0.6011099999999999  0.81661  1.0000
  H   H71       1.0  0.71079  0.8462200000000001  0.9064800000000002  1.0000
  H   H72       1.0  0.58269  0.86324  0.84488  1.0000
  H   H73       1.0  0.96753  0.5851599999999999  0.0879  1.0000
  H   H74       1.0  0.0888  0.47964  0.09137  1.0000
  H   H75       1.0  0.17257999999999996  0.59664  0.92583  1.0000
  H   H76       1.0  0.04457  0.68965  0.9255400000000003  1.0000
  H   H77       1.0  0.21513  0.42786  0.05017  1.0000
  H   H78       1.0  0.21553999999999995  0.42586  0.9716000000000001  1.0000
  H   H79       1.0  0.3023999999999999  0.56881  0.04911  1.0000
  H   H80       1.0  0.30295  0.56777  0.9705100000000001  1.0000
  H   H81       1.0  0.3737999999999999  0.44147000000000003  0.10654  1.0000
  H   H82       1.0  0.49473  0.33737  0.10377  1.0000
  H   H83       1.0  0.51362  0.35913  0.91994  1.0000
  H   H84       1.0  0.39493  0.46784  0.9154  1.0000
  H   H85       1.0  0.52659  0.19727  0.77046  1.0000
  H   H86       1.0  0.27411  0.1138  0.82689  1.0000
  H   H87       1.0  0.39921  0.14127  0.76395  1.0000
  H   H88       1.0  0.37146  0.42473  0.79163  1.0000
  H   H89       1.0  0.24938  0.395  0.85883  1.0000
  H   H90       1.0  0.63629  0.11255  0.7407600000000002  1.0000
  H   H91       1.0  0.76801  0.10083  0.68284  1.0000
  H   H92       1.0  0.7103799999999998  0.34642  0.59317  1.0000
  H   H93       1.0  0.58287  0.36328  0.65477  1.0000
  H   H94       1.0  0.96836  0.087  0.41299  1.0000
  H   H95       1.0  0.08968  0.98162  0.4093900000000001  1.0000
  H   H96       1.0  0.1724  0.09554  0.57632  1.0000
  H   H97       1.0  0.04445  0.18854  0.57653  1.0000
  H   H98       1.0  0.21653  0.93034  0.45034  1.0000
  H   H99       1.0  0.216  0.92531  0.52882  1.0000
  H   H100      1.0  0.3032199999999999  0.07198999999999998  0.45471  1.0000
  H   H101      1.0  0.30383  0.06667  0.53326  1.0000
  H   H102      1.0  0.37231  0.9444800000000001  0.39487  1.0000
  H   H103      1.0  0.4931699999999999  0.84  0.3956900000000001  1.0000
  H   H104      1.0  0.51603  0.85763  0.57945  1.0000
  H   H105      1.0  0.3977599999999999  0.96651  0.58602  1.0000
  H   H106      1.0  0.47333  0.30142  0.27158000000000004  1.0000
  H   H107      1.0  0.72496  0.38679  0.32791  1.0000
  H   H108      1.0  0.60021  0.35841  0.26449  1.0000
  H   H109      1.0  0.6304499999999998  0.07498  0.29203000000000007  1.0000
  H   H110      1.0  0.75289  0.10585  0.35903  1.0000
  H   H111      1.0  0.36418  0.387  0.24136  1.0000
  H   H112      1.0  0.23196999999999995  0.3989  0.18339  1.0000
  H   H113      1.0  0.2892  0.15379  0.09352  1.0000
  H   H114      1.0  0.4173099999999999  0.13677  0.15512  1.0000
  H   H115      1.0  0.03246  0.41483999999999993  0.9121  1.0000
  H   H116      1.0  0.9111999999999998  0.52036  0.90863  1.0000
  H   H117      1.0  0.8274199999999998  0.40336  0.07417000000000001  1.0000
  H   H118      1.0  0.9554199999999998  0.31035  0.07447000000000001  1.0000
  H   H119      1.0  0.78487  0.57214  0.94983  1.0000
  H   H120      1.0  0.78446  0.57414  0.0284  1.0000
  H   H121      1.0  0.69759  0.4312  0.95088  1.0000
  H   H122      1.0  0.69705  0.43224  0.02949  1.0000
  H   H123      1.0  0.62619  0.55853  0.89346  1.0000
  H   H124      1.0  0.50527  0.66263  0.89623  1.0000
  H   H125      1.0  0.48637999999999987  0.64088  0.08006  1.0000
  H   H126      1.0  0.60507  0.53217  0.0846  1.0000
  H   H127      1.0  0.026549999999999994  0.79851  0.27075  1.0000
  H   H128      1.0  0.7762599999999997  0.8849299999999999  0.32603  1.0000
  H   H129      1.0  0.89995  0.85533  0.26229  1.0000
  H   H130      1.0  0.87054  0.57259  0.29245000000000004  1.0000
  H   H131      1.0  0.7495299999999998  0.60422  0.36002  1.0000
  H   H132      1.0  0.13414  0.88559  0.24005000000000004  1.0000
  H   H133      1.0  0.26612  0.89911  0.18221  1.0000
  H   H134      1.0  0.21128  0.65264  0.09299  1.0000
  H   H135      1.0  0.08396999999999998  0.63378  0.15496000000000001  1.0000
  H   H136      1.0  0.4683599999999999  0.91412  0.91229  1.0000
  H   H137      1.0  0.58998  0.0192  0.90906  1.0000
  H   H138      1.0  0.67238  0.9034  0.07553000000000001  1.0000
  H   H139      1.0  0.54417  0.81081  0.0755  1.0000
  H   H140      1.0  0.71714  0.07003000000000001  0.95045  1.0000
  H   H141      1.0  0.7152  0.07487  0.028900000000000002  1.0000
  H   H142      1.0  0.8036599999999998  0.928  0.95603  1.0000
  H   H143      1.0  0.80345  0.93426  0.0345  1.0000
  H   H144      1.0  0.87129  0.05727  0.89597  1.0000
  H   H145      1.0  0.9925499999999998  0.1613  0.89659  1.0000
  H   H146      1.0  0.01703  0.14175  0.08017  1.0000
  H   H147      1.0  0.8985599999999998  0.03304  0.08693  1.0000
  H   H148      1.0  0.97263  0.69992  0.7714800000000002  1.0000
  H   H149      1.0  0.2228  0.61276  0.82771  1.0000
  H   H150      1.0  0.09902  0.64206  0.76358  1.0000
  H   H151      1.0  0.13  0.9252  0.7914300000000001  1.0000
  H   H152      1.0  0.25176  0.89364  0.85917  1.0000
  H   H153      1.0  0.8663299999999998  0.6121  0.74034  1.0000
  H   H154      1.0  0.7332699999999998  0.59865  0.68341  1.0000
  H   H155      1.0  0.78654  0.84511  0.5935700000000002  1.0000
  H   H156      1.0  0.9153899999999998  0.86359  0.65436  1.0000
  H   H157      1.0  0.5319  0.58566  0.41174  1.0000
  H   H158      1.0  0.41022  0.4806  0.40838000000000013  1.0000
  H   H159      1.0  0.3275399999999999  0.59731  0.5742  1.0000
  H   H160      1.0  0.45578  0.68988  0.57433  1.0000
  H   H161      1.0  0.2835  0.42965  0.44951000000000013  1.0000
  H   H162      1.0  0.28422  0.42603  0.52801  1.0000
  H   H163      1.0  0.19663  0.57087  0.45244  1.0000
  H   H164      1.0  0.19711  0.56806  0.53103  1.0000
  H   H165      1.0  0.12705  0.44165  0.3946600000000001  1.0000
  H   H166      1.0  0.00625  0.33716  0.39726  1.0000
  H   H167      1.0  0.9856799999999998  0.36  0.5808700000000001  1.0000
  H   H168      1.0  0.10389  0.46948  0.58558  1.0000
  C   C1        1.0  0.24288  0.25324  0.65174  1.0000
  C   C2        1.0  0.20066  0.1829  0.6798900000000001  1.0000
  C   C3        1.0  0.13121  0.19984  0.71515  1.0000
  C   C4        1.0  0.10471999999999997  0.28831  0.7243500000000002  1.0000
  C   C5        1.0  0.14910999999999994  0.35913  0.6983000000000001  1.0000
  C   C6        1.0  0.21661999999999995  0.34163  0.6614  1.0000
  C   C7        1.0  0.89849  0.24215  0.7982400000000001  1.0000
  C   C8        1.0  0.8478199999999998  0.16604  0.7916600000000001  1.0000
  C   C9        1.0  0.7742  0.15863  0.8237700000000001  1.0000
  C   C10       1.0  0.7507899999999997  0.22485  0.86474  1.0000
  C   C11       1.0  0.8044499999999998  0.29768  0.87352  1.0000
  C   C12       1.0  0.87652  0.30807  0.8400300000000002  1.0000
  C   C13       1.0  0.3146  0.23256  0.61116  1.0000
  C   C14       1.0  0.6709599999999998  0.21739  0.89886  1.0000
  C   C15       1.0  0.03325  0.31058  0.7640700000000001  1.0000
  C   C16       1.0  0.4854  0.08485000000000001  0.052110000000000004  1.0000
  C   C17       1.0  0.41673  0.02823  0.05425  1.0000
  C   C18       1.0  0.3573  0.03109  0.008480000000000001  1.0000
  C   C19       1.0  0.37143  0.09106  0.9613400000000002  1.0000
  C   C20       1.0  0.44208  0.1442  0.9614000000000003  1.0000
  C   C21       1.0  0.28183  0.97161  0.00923  1.0000
  C   C22       1.0  0.19945  0.02509  0.00631  1.0000
  C   C23       1.0  0.12606  0.96312  0.008110000000000001  1.0000
  C   C24       1.0  0.09832999999999997  0.92611  0.062060000000000004  1.0000
  C   C25       1.0  0.03159  0.8673300000000002  0.06232  1.0000
  C   C26       1.0  0.01752  0.87901  0.95936  1.0000
  C   C27       1.0  0.08356  0.9387  0.95595  1.0000
  C   C28       1.0  0.75738  0.24869  0.15138000000000001  1.0000
  C   C29       1.0  0.7998999999999998  0.31939  0.17897  1.0000
  C   C30       1.0  0.86931  0.30258  0.21444  1.0000
  C   C31       1.0  0.8953799999999997  0.2141  0.22429000000000004  1.0000
  C   C32       1.0  0.85056  0.14303  0.19886  1.0000
  C   C33       1.0  0.78285  0.16031  0.16192  1.0000
  C   C34       1.0  0.1019  0.26007  0.29809  1.0000
  C   C35       1.0  0.1524  0.33614  0.29111  1.0000
  C   C36       1.0  0.2264  0.34368  0.32281  1.0000
  C   C37       1.0  0.25037  0.27734  0.36362  1.0000
  C   C38       1.0  0.19695  0.20452  0.37297000000000013  1.0000
  C   C39       1.0  0.12427999999999997  0.19423  0.33996  1.0000
  C   C40       1.0  0.68671  0.26937  0.10982  1.0000
  C   C41       1.0  0.33114  0.28484  0.39663  1.0000
  C   C42       1.0  0.9667899999999998  0.19226  0.26431  1.0000
  C   C43       1.0  0.51434  0.41528  0.55278  1.0000
  C   C44       1.0  0.58299  0.47186  0.55501  1.0000
  C   C45       1.0  0.6424899999999998  0.46876  0.5094800000000002  1.0000
  C   C46       1.0  0.6285299999999998  0.40854  0.4624500000000001  1.0000
  C   C47       1.0  0.55789  0.35543  0.46242000000000005  1.0000
  C   C48       1.0  0.71801  0.5281  0.51052  1.0000
  C   C49       1.0  0.8002299999999998  0.4743  0.50893  1.0000
  C   C50       1.0  0.8736099999999998  0.53625  0.50958  1.0000
  C   C51       1.0  0.9023799999999997  0.57426  0.56298  1.0000
  C   C52       1.0  0.96892  0.63322  0.56212  1.0000
  C   C53       1.0  0.9807899999999998  0.6197900000000001  0.4591500000000001  1.0000
  C   C54       1.0  0.9148799999999998  0.55979  0.45683  1.0000
  C   C55       1.0  0.7439299999999998  0.7477  0.15207  1.0000
  C   C56       1.0  0.70186  0.81878  0.17937000000000003  1.0000
  C   C57       1.0  0.63185  0.80293  0.21427000000000004  1.0000
  C   C58       1.0  0.60477  0.7148  0.22407000000000005  1.0000
  C   C59       1.0  0.64881  0.64323  0.19868000000000005  1.0000
  C   C60       1.0  0.7168599999999998  0.65966  0.16203000000000004  1.0000
  C   C61       1.0  0.39818  0.76035  0.29794  1.0000
  C   C62       1.0  0.3463599999999999  0.83541  0.29088  1.0000
  C   C63       1.0  0.27299  0.84208  0.32325  1.0000
  C   C64       1.0  0.25073  0.77608  0.36475  1.0000
  C   C65       1.0  0.3047499999999999  0.70355  0.37332  1.0000
  C   C66       1.0  0.37677  0.69404  0.33971000000000007  1.0000
  C   C67       1.0  0.8162999999999998  0.76794  0.11202000000000001  1.0000
  C   C68       1.0  0.17116999999999993  0.78329  0.39904  1.0000
  C   C69       1.0  0.53334  0.69337  0.26401  1.0000
  C   C70       1.0  0.98534  0.91455  0.55145  1.0000
  C   C71       1.0  0.91683  0.97126  0.5537800000000002  1.0000
  C   C72       1.0  0.8573199999999997  0.96886  0.50806  1.0000
  C   C73       1.0  0.8713599999999998  0.9095  0.4606100000000001  1.0000
  C   C74       1.0  0.94186  0.85618  0.4605000000000001  1.0000
  C   C75       1.0  0.78177  0.02814  0.50934  1.0000
  C   C76       1.0  0.69942  0.97444  0.5073000000000001  1.0000
  C   C77       1.0  0.62601  0.03634  0.50911  1.0000
  C   C78       1.0  0.59779  0.07275  0.56307  1.0000
  C   C79       1.0  0.53123  0.13172  0.56322  1.0000
  C   C80       1.0  0.5181099999999997  0.12115  0.46016000000000007  1.0000
  C   C81       1.0  0.58402  0.06136  0.45686000000000004  1.0000
  C   C82       1.0  0.25537  0.75169  0.65162  1.0000
  C   C83       1.0  0.29826  0.68086  0.67875  1.0000
  C   C84       1.0  0.36815  0.69724  0.71381  1.0000
  C   C85       1.0  0.39468  0.78558  0.7236100000000001  1.0000
  C   C86       1.0  0.34984  0.85684  0.69836  1.0000
  C   C87       1.0  0.2816299999999999  0.83991  0.6617900000000001  1.0000
  C   C88       1.0  0.60157  0.73987  0.79749  1.0000
  C   C89       1.0  0.65332  0.66479  0.7904600000000002  1.0000
  C   C90       1.0  0.72698  0.6581300000000001  0.8227600000000002  1.0000
  C   C91       1.0  0.74944  0.72411  0.8642400000000001  1.0000
  C   C92       1.0  0.69532  0.79642  0.8729500000000002  1.0000
  C   C93       1.0  0.62302  0.80593  0.8394300000000001  1.0000
  C   C94       1.0  0.18351  0.73069  0.61111  1.0000
  C   C95       1.0  0.82909  0.71713  0.8986800000000001  1.0000
  C   C96       1.0  0.4663899999999999  0.80717  0.76346  1.0000
  C   C97       1.0  0.013929999999999996  0.58428  0.05254  1.0000
  C   C98       1.0  0.08238999999999998  0.52744  0.05484  1.0000
  C   C99       1.0  0.14209  0.5305  0.00944  1.0000
  C   C100      1.0  0.12848  0.5909  0.9624  1.0000
  C   C101      1.0  0.05802  0.64426  0.9623000000000002  1.0000
  C   C102      1.0  0.21741  0.47086  0.010550000000000002  1.0000
  C   C103      1.0  0.29981  0.52451  0.01007  1.0000
  C   C104      1.0  0.37331  0.46276  0.01069  1.0000
  C   C105      1.0  0.40283999999999986  0.42535  0.06409000000000001  1.0000
  C   C106      1.0  0.46959  0.36669  0.06313  1.0000
  C   C107      1.0  0.4804099999999999  0.37943  0.96006  1.0000
  C   C108      1.0  0.41422  0.43902  0.95784  1.0000
  C   C109      1.0  0.2560699999999999  0.2523  0.84792  1.0000
  C   C110      1.0  0.29814  0.18122  0.82063  1.0000
  C   C111      1.0  0.36814  0.19708  0.78573  1.0000
  C   C112      1.0  0.39522  0.2852  0.77593  1.0000
  C   C113      1.0  0.35118  0.35677  0.8013200000000001  1.0000
  C   C114      1.0  0.28313  0.34034  0.8379700000000002  1.0000
  C   C115      1.0  0.60182  0.23966  0.7020600000000001  1.0000
  C   C116      1.0  0.65364  0.16459  0.70912  1.0000
  C   C117      1.0  0.7270099999999998  0.15792  0.67675  1.0000
  C   C118      1.0  0.74926  0.22392999999999996  0.6352500000000001  1.0000
  C   C119      1.0  0.6952499999999998  0.29645  0.62667  1.0000
  C   C120      1.0  0.62323  0.30596  0.66029  1.0000
  C   C121      1.0  0.18369  0.23207  0.88798  1.0000
  C   C122      1.0  0.82882  0.21671  0.60095  1.0000
  C   C123      1.0  0.46666  0.30664  0.73599  1.0000
  C   C124      1.0  0.01466  0.08545  0.44855000000000006  1.0000
  C   C125      1.0  0.08317  0.02874  0.44622  1.0000
  C   C126      1.0  0.14267  0.03114  0.49194000000000004  1.0000
  C   C127      1.0  0.12864  0.09051  0.53938  1.0000
  C   C128      1.0  0.05813999999999998  0.14381999999999998  0.5395  1.0000
  C   C129      1.0  0.21822  0.9718600000000001  0.49065  1.0000
  C   C130      1.0  0.30058  0.02557  0.4927  1.0000
  C   C131      1.0  0.37398  0.96366  0.49089000000000005  1.0000
  C   C132      1.0  0.4021999999999999  0.9272500000000001  0.43692000000000003  1.0000
  C   C133      1.0  0.46877  0.86829  0.43678  1.0000
  C   C134      1.0  0.4818899999999999  0.87885  0.53983  1.0000
  C   C135      1.0  0.41598  0.93864  0.5431400000000001  1.0000
  C   C136      1.0  0.7446299999999998  0.24831000000000003  0.34838  1.0000
  C   C137      1.0  0.7017399999999998  0.31914  0.32125  1.0000
  C   C138      1.0  0.63185  0.30276  0.28619  1.0000
  C   C139      1.0  0.6053199999999997  0.21442  0.27639  1.0000
  C   C140      1.0  0.65016  0.14316  0.30163  1.0000
  C   C141      1.0  0.7183699999999997  0.1601  0.33821000000000007  1.0000
  C   C142      1.0  0.39843  0.26014  0.20251000000000002  1.0000
  C   C143      1.0  0.34668  0.33522  0.20954  1.0000
  C   C144      1.0  0.27302  0.34188  0.17724  1.0000
  C   C145      1.0  0.25056  0.27589  0.13576  1.0000
  C   C146      1.0  0.3046799999999999  0.20359  0.12705  1.0000
  C   C147      1.0  0.37698  0.19407  0.16056000000000004  1.0000
  C   C148      1.0  0.8164799999999998  0.26931  0.38889000000000007  1.0000
  C   C149      1.0  0.17090999999999995  0.28288  0.10132000000000001  1.0000
  C   C150      1.0  0.5336099999999998  0.19283  0.23654  1.0000
  C   C151      1.0  0.9860599999999998  0.41572  0.9474600000000001  1.0000
  C   C152      1.0  0.91761  0.47257  0.94516  1.0000
  C   C153      1.0  0.85791  0.4695  0.9905600000000001  1.0000
  C   C154      1.0  0.8715099999999998  0.4091000000000001  0.0376  1.0000
  C   C155      1.0  0.9419799999999998  0.35575  0.0377  1.0000
  C   C156      1.0  0.78258  0.52914  0.98945  1.0000
  C   C157      1.0  0.7001899999999998  0.4755  0.98993  1.0000
  C   C158      1.0  0.62669  0.53724  0.9893100000000002  1.0000
  C   C159      1.0  0.59715  0.57466  0.9359100000000001  1.0000
  C   C160      1.0  0.53041  0.63332  0.93687  1.0000
  C   C161      1.0  0.51959  0.62057  0.03994  1.0000
  C   C162      1.0  0.58578  0.56098  0.04216  1.0000
  C   C163      1.0  0.7571299999999997  0.74675  0.34826  1.0000
  C   C164      1.0  0.79935  0.8171  0.32011  1.0000
  C   C165      1.0  0.8688  0.80015  0.28484000000000004  1.0000
  C   C166      1.0  0.89529  0.71168  0.27565  1.0000
  C   C167      1.0  0.8509  0.64087  0.3017  1.0000
  C   C168      1.0  0.78339  0.65836  0.33859000000000006  1.0000
  C   C169      1.0  0.10151999999999997  0.75785  0.20175  1.0000
  C   C170      1.0  0.15218  0.83396  0.20834  1.0000
  C   C171      1.0  0.2258  0.84137  0.17623  1.0000
  C   C172      1.0  0.24920999999999996  0.77516  0.13526000000000002  1.0000
  C   C173      1.0  0.19555  0.70232  0.12648  1.0000
  C   C174      1.0  0.12347999999999998  0.69193  0.15997  1.0000
  C   C175      1.0  0.68541  0.7674500000000001  0.38885000000000003  1.0000
  C   C176      1.0  0.3290399999999999  0.78261  0.10114000000000001  1.0000
  C   C177      1.0  0.9667499999999998  0.68942  0.23592  1.0000
  C   C178      1.0  0.5146  0.91516  0.9478900000000001  1.0000
  C   C179      1.0  0.58326  0.97177  0.9457500000000001  1.0000
  C   C180      1.0  0.64269  0.96892  0.9915200000000002  1.0000
  C   C181      1.0  0.62857  0.9089400000000001  0.03866  1.0000
  C   C182      1.0  0.55792  0.8558  0.0386  1.0000
  C   C183      1.0  0.71817  0.02839  0.9907700000000002  1.0000
  C   C184      1.0  0.8005499999999998  0.97492  0.9936900000000001  1.0000
  C   C185      1.0  0.87393  0.03689  0.9919  1.0000
  C   C186      1.0  0.9016699999999997  0.07389  0.93794  1.0000
  C   C187      1.0  0.9683999999999998  0.13267  0.93768  1.0000
  C   C188      1.0  0.98247  0.121  0.04064000000000001  1.0000
  C   C189      1.0  0.9164299999999997  0.06131  0.04406  1.0000
  C   C190      1.0  0.24262  0.75131  0.8486200000000002  1.0000
  C   C191      1.0  0.20008999999999993  0.68062  0.8210300000000001  1.0000
  C   C192      1.0  0.13068999999999995  0.69743  0.78556  1.0000
  C   C193      1.0  0.10460999999999997  0.78591  0.77571  1.0000
  C   C194      1.0  0.14944  0.85698  0.80114  1.0000
  C   C195      1.0  0.21715  0.83969  0.8380800000000002  1.0000
  C   C196      1.0  0.8980999999999998  0.73994  0.7019100000000001  1.0000
  C   C197      1.0  0.8476  0.66386  0.70888  1.0000
  C   C198      1.0  0.77359  0.65632  0.67719  1.0000
  C   C199      1.0  0.7496199999999997  0.72266  0.63638  1.0000
  C   C200      1.0  0.80305  0.79548  0.62703  1.0000
  C   C201      1.0  0.87572  0.80578  0.66004  1.0000
  C   C202      1.0  0.31329  0.73064  0.89017  1.0000
  C   C203      1.0  0.6688499999999997  0.71516  0.60337  1.0000
  C   C204      1.0  0.03320999999999999  0.80774  0.7356900000000001  1.0000
  C   C205      1.0  0.48566  0.58473  0.44721000000000005  1.0000
  C   C206      1.0  0.41699999999999987  0.52814  0.4449800000000001  1.0000
  C   C207      1.0  0.3575  0.53125  0.4905100000000001  1.0000
  C   C208      1.0  0.37146  0.59146  0.53755  1.0000
  C   C209      1.0  0.4421  0.64458  0.5375800000000001  1.0000
  C   C210      1.0  0.28198  0.4719  0.48948  1.0000
  C   C211      1.0  0.19975999999999994  0.5257  0.49106000000000005  1.0000
  C   C212      1.0  0.12638999999999995  0.46376000000000006  0.49042  1.0000
  C   C213      1.0  0.09761999999999997  0.42575  0.43702000000000013  1.0000
  C   C214      1.0  0.03108  0.36678  0.4378800000000001  1.0000
  C   C215      1.0  0.0192  0.38022  0.54085  1.0000
  C   C216      1.0  0.08510999999999998  0.44022  0.54317  1.0000
  N   N1        1.0  0.97006  0.24764  0.76267  1.0000
  N   N2        1.0  0.9917999999999998  0.84351  0.01159  1.0000
  N   N3        1.0  0.4982599999999999  0.1422  0.0064  1.0000
  N   N4        1.0  0.03021  0.25473  0.26248  1.0000
  N   N5        1.0  0.007519999999999998  0.65628  0.51087  1.0000
  N   N6        1.0  0.50163  0.35772  0.5071900000000001  1.0000
  N   N7        1.0  0.47028  0.75633  0.26283  1.0000
  N   N8        1.0  0.4919999999999999  0.15622  0.51239  1.0000
  N   N9        1.0  0.9979499999999999  0.85762  0.5055500000000002  1.0000
  N   N10       1.0  0.5295299999999997  0.74431  0.7621200000000001  1.0000
  N   N11       1.0  0.50778  0.34341  0.011790000000000002  1.0000
  N   N12       1.0  0.0015599999999999995  0.64204  0.006960000000000002  1.0000
  N   N13       1.0  0.5297199999999997  0.24368  0.73717  1.0000
  N   N14       1.0  0.508  0.84378  0.4876100000000001  1.0000
  N   N15       1.0  0.00205  0.14239  0.49445  1.0000
  N   N16       1.0  0.47047  0.25569  0.23788  1.0000
  N   N17       1.0  0.49222  0.65659  0.98821  1.0000
  N   N18       1.0  0.9984299999999999  0.35796  0.9930400000000003  1.0000
  N   N19       1.0  0.02994  0.75236  0.23733000000000004  1.0000
  N   N20       1.0  0.0082  0.15648999999999996  0.9884100000000002  1.0000
  N   N21       1.0  0.50174  0.8578  0.99359  1.0000
  N   N22       1.0  0.96978  0.74527  0.7375100000000001  1.0000
  N   N23       1.0  0.99248  0.34372  0.4891300000000001  1.0000
  N   N24       1.0  0.4983699999999999  0.64229  0.49281  1.0000
  O   O1        1.0  0.67027  0.26362  0.94833  1.0000
  O   O2        1.0  0.6123599999999998  0.16963  0.8802800000000002  1.0000
  O   O3        1.0  0.34579  0.15589  0.6104300000000001  1.0000
  O   O4        1.0  0.3383199999999999  0.29884  0.5772600000000001  1.0000
  O   O5        1.0  0.032739999999999984  0.37932  0.79495  1.0000
  O   O6        1.0  0.33445  0.23658  0.44523  1.0000
  O   O7        1.0  0.3879899999999999  0.33462  0.37769  1.0000
  O   O8        1.0  0.662  0.34837000000000007  0.10427000000000002  1.0000
  O   O9        1.0  0.65699  0.20121  0.08032  1.0000
  O   O10       1.0  0.96711  0.12431  0.29596  1.0000
  O   O11       1.0  0.17061  0.73706  0.4485800000000001  1.0000
  O   O12       1.0  0.11240999999999997  0.83076  0.38038  1.0000
  O   O13       1.0  0.8457099999999997  0.84544  0.11018000000000001  1.0000
  O   O14       1.0  0.8424  0.7009  0.07991  1.0000
  O   O15       1.0  0.53274  0.62477  0.29507  1.0000
  O   O16       1.0  0.8296399999999998  0.7633700000000001  0.9481700000000001  1.0000
  O   O17       1.0  0.8878099999999998  0.66961  0.8802400000000001  1.0000
  O   O18       1.0  0.15774  0.65184  0.60731  1.0000
  O   O19       1.0  0.15426  0.79819  0.5806  1.0000
  O   O20       1.0  0.46708  0.87541  0.79478  1.0000
  O   O21       1.0  0.82939  0.26295  0.55142  1.0000
  O   O22       1.0  0.88759  0.16925  0.61962  1.0000
  O   O23       1.0  0.15428  0.15456000000000003  0.8898100000000002  1.0000
  O   O24       1.0  0.15758999999999995  0.2991  0.92009  1.0000
  O   O25       1.0  0.4672599999999999  0.37524  0.70493  1.0000
  O   O26       1.0  0.17035  0.23663  0.05184  1.0000
  O   O27       1.0  0.11219  0.33039  0.11976000000000002  1.0000
  O   O28       1.0  0.84226  0.34816  0.39269  1.0000
  O   O29       1.0  0.84573  0.20181000000000002  0.4194  1.0000
  O   O30       1.0  0.53292  0.12459  0.20521000000000003  1.0000
  O   O31       1.0  0.32972  0.73639  0.05167  1.0000
  O   O32       1.0  0.38764  0.83037  0.11972000000000002  1.0000
  O   O33       1.0  0.6542299999999998  0.84412  0.38957  1.0000
  O   O34       1.0  0.66168  0.70117  0.42273  1.0000
  O   O35       1.0  0.9672599999999998  0.62068  0.20505  1.0000
  O   O36       1.0  0.6655499999999998  0.76342  0.5547700000000001  1.0000
  O   O37       1.0  0.612  0.66539  0.62231  1.0000
  O   O38       1.0  0.33799  0.65164  0.89573  1.0000
  O   O39       1.0  0.3429999999999999  0.79879  0.91968  1.0000
  O   O40       1.0  0.03288  0.87569  0.70404  1.0000
