data_image0
_chemical_formula_structural       Zn16Co6H120C252N12O88
_chemical_formula_sum              "Zn16 Co6 H120 C252 N12 O88"
_cell_length_a       29.56926
_cell_length_b       29.570030000000003
_cell_length_c       29.56946
_cell_angle_alpha    109.49264000000001
_cell_angle_beta     109.47986
_cell_angle_gamma    109.48089999999999

_symmetry_space_group_name_H-M    'P 1'
_symmetry_Int_Tables_number       1

loop_
  _symmetry_equiv_pos_as_xyz
  'x,y,z'

loop_
  _atom_site_type_symbol
  _atom_site_label
  _atom_site_symmetry_multiplicity
  _atom_site_fract_x
  _atom_site_fract_y
  _atom_site_fract_z
  _atom_site_occupancy
  Zn  Zn1       1.0  0.5062599999999999  0.4297700000000001  0.47262  1.0000
  Zn  Zn2       1.0  0.4937699999999998  0.9663699999999998  0.9236099999999999  1.0000
  Zn  Zn3       1.0  0.04283000000000002  0.57018  0.07648  1.0000
  Zn  Zn4       1.0  0.9571599999999998  0.033600000000000005  0.52737  1.0000
  Zn  Zn5       1.0  0.03359  0.52737  0.95717  1.0000
  Zn  Zn6       1.0  0.57021  0.07644  0.04283  1.0000
  Zn  Zn7       1.0  0.96642  0.9236600000000003  0.49381999999999987  1.0000
  Zn  Zn8       1.0  0.42983  0.4726100000000001  0.50612  1.0000
  Zn  Zn9       1.0  0.07645  0.042829999999999986  0.57019  1.0000
  Zn  Zn10      1.0  0.52735  0.9571900000000002  0.0336  1.0000
  Zn  Zn11      1.0  0.4726299999999999  0.50629  0.42976999999999993  1.0000
  Zn  Zn12      1.0  0.92365  0.49379000000000006  0.96639  1.0000
  Zn  Zn13      1.0  0.5591099999999998  0.55911  0.55909  1.0000
  Zn  Zn14      1.0  0.4408799999999999  0.99998  1e-05  1.0000
  Zn  Zn15      1.0  9.999999999998398e-06  0.4408900000000001  0.99999  1.0000
  Zn  Zn16      1.0  1.0000000000024353e-05  3.000000000001414e-05  0.44085  1.0000
  Co  Co1       1.0  0.96843  0.50003  0.46843999999999997  1.0000
  Co  Co2       1.0  0.03173000000000003  0.50009  0.53172  1.0000
  Co  Co3       1.0  0.5001  0.5317500000000002  0.03176  1.0000
  Co  Co4       1.0  0.5000199999999997  0.46842999999999996  0.9684199999999998  1.0000
  Co  Co5       1.0  0.4684599999999999  0.9684399999999999  0.50002  1.0000
  Co  Co6       1.0  0.53172  0.03171999999999998  0.50007  1.0000
  H   H1        1.0  0.9682999999999998  0.51684  0.80756  1.0000
  H   H2        1.0  0.8263499999999999  0.50139  0.82589  1.0000
  H   H3        1.0  0.78229  0.49949000000000005  0.7367099999999999  1.0000
  H   H4        1.0  0.9751799999999999  0.5090000000000001  0.6522  1.0000
  H   H5        1.0  0.7930900000000001  0.49874000000000007  0.57067  1.0000
  H   H6        1.0  0.63758  0.4115300000000001  0.55512  1.0000
  H   H7        1.0  0.72766  0.41403  0.60054  1.0000
  H   H8        1.0  0.8448199999999999  0.49717  0.5193  1.0000
  H   H9        1.0  0.81177  0.59171  0.69267  1.0000
  H   H10       1.0  0.7213600000000002  0.58911  0.64818  1.0000
  H   H11       1.0  0.03164000000000001  0.8392800000000001  0.54849  1.0000
  H   H12       1.0  0.17361000000000001  0.9996400000000001  0.67503  1.0000
  H   H13       1.0  0.21773999999999996  0.9545500000000001  0.7171999999999998  1.0000
  H   H14       1.0  0.024730000000000037  0.6769700000000001  0.53376  1.0000
  H   H15       1.0  0.20689999999999997  0.7777600000000002  0.7056299999999999  1.0000
  H   H16       1.0  0.36236  0.9175100000000003  0.77386  1.0000
  H   H17       1.0  0.2722999999999999  0.87301  0.68635  1.0000
  H   H18       1.0  0.15519  0.67464  0.65242  1.0000
  H   H19       1.0  0.18831000000000003  0.8810700000000002  0.78  1.0000
  H   H20       1.0  0.27873000000000003  0.9268400000000001  0.86774  1.0000
  H   H21       1.0  0.29071  0.4831400000000001  0.45146  1.0000
  H   H22       1.0  0.3244799999999999  0.4985800000000001  0.32494  1.0000
  H   H23       1.0  0.23723999999999995  0.50055  0.28284  1.0000
  H   H24       1.0  0.14316  0.4909600000000001  0.46617  1.0000
  H   H25       1.0  0.07196999999999996  0.50132  0.2944  1.0000
  H   H26       1.0  0.14369999999999997  0.58855  0.22625999999999996  1.0000
  H   H27       1.0  0.18658  0.58593  0.31377  1.0000
  H   H28       1.0  0.022110000000000005  0.5028000000000001  0.34763  1.0000
  H   H29       1.0  0.10094000000000006  0.4082600000000002  0.22001999999999997  1.0000
  H   H30       1.0  0.059090000000000004  0.41098000000000007  0.13225  1.0000
  H   H31       1.0  0.70929  0.16067000000000004  0.19237  1.0000
  H   H32       1.0  0.6754  0.00036999999999998324  0.17396999999999999  1.0000
  H   H33       1.0  0.7625699999999995  0.04535000000000003  0.26311  1.0000
  H   H34       1.0  0.8569500000000001  0.3230400000000001  0.34793  1.0000
  H   H35       1.0  0.92821  0.22251000000000007  0.42951  1.0000
  H   H36       1.0  0.8563999999999998  0.08251  0.4448599999999999  1.0000
  H   H37       1.0  0.8135  0.12713000000000002  0.3994  1.0000
  H   H38       1.0  0.9779799999999997  0.32556  0.48079  1.0000
  H   H39       1.0  0.89902  0.11909000000000003  0.30735  1.0000
  H   H40       1.0  0.9409199999999995  0.07318  0.35186  1.0000
  H   H41       1.0  0.16066999999999998  0.19236000000000006  0.70925  1.0000
  H   H42       1.0  0.0003999999999999885  0.17398  0.67542  1.0000
  H   H43       1.0  0.04537000000000008  0.2631400000000001  0.7626  1.0000
  H   H44       1.0  0.32302  0.34793  0.85692  1.0000
  H   H45       1.0  0.22252  0.42952  0.9282399999999998  1.0000
  H   H46       1.0  0.08249999999999998  0.44486  0.85639  1.0000
  H   H47       1.0  0.12716000000000002  0.39939000000000013  0.8135  1.0000
  H   H48       1.0  0.3255399999999999  0.4807800000000001  0.97799  1.0000
  H   H49       1.0  0.11910999999999994  0.30735999999999997  0.8990299999999999  1.0000
  H   H50       1.0  0.07317999999999995  0.35189000000000004  0.94092  1.0000
  H   H51       1.0  0.48312999999999984  0.45146000000000003  0.2907  1.0000
  H   H52       1.0  0.49857999999999997  0.32496  0.32447  1.0000
  H   H53       1.0  0.50056  0.28283  0.23722  1.0000
  H   H54       1.0  0.4909200000000001  0.4661300000000001  0.14317  1.0000
  H   H55       1.0  0.50134  0.2943900000000001  0.07193  1.0000
  H   H56       1.0  0.58857  0.22622000000000006  0.14367  1.0000
  H   H57       1.0  0.58596  0.31376  0.18656  1.0000
  H   H58       1.0  0.50279  0.34763  0.02209  1.0000
  H   H59       1.0  0.40828999999999993  0.22002  0.10092  1.0000
  H   H60       1.0  0.41103999999999985  0.13223000000000001  0.059079999999999994  1.0000
  H   H61       1.0  0.8392599999999999  0.54847  0.03162  1.0000
  H   H62       1.0  0.9996199999999998  0.67504  0.17363  1.0000
  H   H63       1.0  0.9544799999999996  0.7172  0.21773  1.0000
  H   H64       1.0  0.67697  0.5337800000000001  0.024759999999999997  1.0000
  H   H65       1.0  0.77775  0.7056500000000001  0.20694  1.0000
  H   H66       1.0  0.9175199999999999  0.7739000000000004  0.36239999999999994  1.0000
  H   H67       1.0  0.87301  0.68637  0.27233  1.0000
  H   H68       1.0  0.67464  0.65245  0.15523  1.0000
  H   H69       1.0  0.88104  0.7799699999999999  0.18831  1.0000
  H   H70       1.0  0.9268500000000001  0.8677500000000002  0.27876  1.0000
  H   H71       1.0  0.51684  0.8075800000000001  0.9683099999999999  1.0000
  H   H72       1.0  0.5014  0.8258700000000001  0.82634  1.0000
  H   H73       1.0  0.49948999999999993  0.73666  0.78228  1.0000
  H   H74       1.0  0.5089699999999999  0.6522200000000002  0.9751799999999999  1.0000
  H   H75       1.0  0.49873000000000006  0.5706300000000001  0.79309  1.0000
  H   H76       1.0  0.41151999999999994  0.5550900000000001  0.63754  1.0000
  H   H77       1.0  0.41402999999999995  0.6005200000000003  0.7276399999999998  1.0000
  H   H78       1.0  0.4971999999999997  0.51931  0.8448499999999999  1.0000
  H   H79       1.0  0.59168  0.6926400000000003  0.81174  1.0000
  H   H80       1.0  0.58908  0.6481500000000002  0.72131  1.0000
  H   H81       1.0  0.45146999999999987  0.29069000000000006  0.48312999999999995  1.0000
  H   H82       1.0  0.32496999999999987  0.32449000000000006  0.49857  1.0000
  H   H83       1.0  0.28286  0.23727000000000004  0.50057  1.0000
  H   H84       1.0  0.46618  0.14318  0.49098  1.0000
  H   H85       1.0  0.29439  0.07196999999999999  0.50132  1.0000
  H   H86       1.0  0.22623999999999997  0.14368000000000009  0.58856  1.0000
  H   H87       1.0  0.31376  0.18656  0.58595  1.0000
  H   H88       1.0  0.34762  0.022110000000000005  0.50278  1.0000
  H   H89       1.0  0.22006  0.10095  0.40828  1.0000
  H   H90       1.0  0.13226999999999997  0.05911000000000002  0.41099  1.0000
  H   H91       1.0  0.19238  0.70929  0.16069  1.0000
  H   H92       1.0  0.17395000000000008  0.6753800000000002  0.00036999999999999994  1.0000
  H   H93       1.0  0.2631  0.76256  0.04534  1.0000
  H   H94       1.0  0.34792999999999996  0.8569500000000002  0.32304  1.0000
  H   H95       1.0  0.4294900000000001  0.9282000000000002  0.22248  1.0000
  H   H96       1.0  0.44484  0.8563800000000003  0.0825  1.0000
  H   H97       1.0  0.39935000000000004  0.8134800000000001  0.12713  1.0000
  H   H98       1.0  0.48078  0.97797  0.32553  1.0000
  H   H99       1.0  0.3073100000000001  0.8990000000000002  0.11908  1.0000
  H   H100      1.0  0.3518599999999999  0.94091  0.07319  1.0000
  H   H101      1.0  0.8075599999999998  0.9683100000000002  0.51683  1.0000
  H   H102      1.0  0.8259000000000001  0.8263600000000002  0.5014  1.0000
  H   H103      1.0  0.7367100000000001  0.7822900000000003  0.49949  1.0000
  H   H104      1.0  0.65221  0.9751900000000001  0.50903  1.0000
  H   H105      1.0  0.57067  0.79308  0.49872  1.0000
  H   H106      1.0  0.55514  0.6375900000000002  0.41153  1.0000
  H   H107      1.0  0.60055  0.72767  0.41404  1.0000
  H   H108      1.0  0.5193100000000002  0.8448100000000003  0.49718  1.0000
  H   H109      1.0  0.69269  0.8118000000000002  0.59171  1.0000
  H   H110      1.0  0.6481999999999998  0.7213900000000002  0.58912  1.0000
  H   H111      1.0  0.5484899999999998  0.0316299999999999  0.8392399999999999  1.0000
  H   H112      1.0  0.6750099999999999  0.17359999999999995  0.9996299999999999  1.0000
  H   H113      1.0  0.71719  0.2177400000000001  0.95455  1.0000
  H   H114      1.0  0.5337699999999999  0.024749999999999973  0.67696  1.0000
  H   H115      1.0  0.7056499999999999  0.2069300000000001  0.77777  1.0000
  H   H116      1.0  0.7738800000000002  0.3624000000000001  0.91752  1.0000
  H   H117      1.0  0.68637  0.27233  0.87302  1.0000
  H   H118      1.0  0.6524299999999997  0.15522999999999995  0.67464  1.0000
  H   H119      1.0  0.78003  0.18833  0.88107  1.0000
  H   H120      1.0  0.86775  0.27876000000000006  0.9268399999999999  1.0000
  C   C1        1.0  0.9275099999999998  0.5128300000000001  0.7923  1.0000
  C   C2        1.0  0.85474  0.50462  0.64045  1.0000
  C   C3        1.0  0.8475899999999996  0.50421  0.80235  1.0000
  C   C4        1.0  0.82292  0.50307  0.75234  1.0000
  C   C5        1.0  0.90683  0.50813  0.66283  1.0000
  C   C6        1.0  0.9026599999999999  0.51086  0.74249  1.0000
  C   C7        1.0  0.8499299999999997  0.50627  0.72144  1.0000
  C   C8        1.0  0.90019  0.50936  0.82293  1.0000
  C   C9        1.0  0.9353199999999999  0.50663  0.63409  1.0000
  C   C10       1.0  0.91293  0.5024000000000001  0.58184  1.0000
  C   C11       1.0  0.8328800000000001  0.5009000000000001  0.58841  1.0000
  C   C12       1.0  0.9437899999999999  0.50081  0.55153  1.0000
  C   C13       1.0  0.9281499999999998  0.511  0.87589  1.0000
  C   C14       1.0  0.67435  0.5002300000000002  0.59878  1.0000
  C   C15       1.0  0.6758099999999999  0.4506900000000002  0.58564  1.0000
  C   C16       1.0  0.7745899999999999  0.5030800000000002  0.64879  1.0000
  C   C17       1.0  0.7257599999999997  0.45202000000000003  0.61081  1.0000
  C   C18       1.0  0.8617700000000001  0.49997000000000014  0.55952  1.0000
  C   C19       1.0  0.77329  0.5525700000000002  0.6630799999999999  1.0000
  C   C20       1.0  0.6211199999999998  0.49858000000000013  0.56906  1.0000
  C   C21       1.0  0.72319  0.55113  0.6383  1.0000
  C   C22       1.0  0.07245000000000006  0.8648200000000003  0.58528  1.0000
  C   C23       1.0  0.14519999999999997  0.7857800000000003  0.64982  1.0000
  C   C24       1.0  0.15241000000000005  0.9548299999999998  0.65662  1.0000
  C   C25       1.0  0.1771  0.9295200000000002  0.68014  1.0000
  C   C26       1.0  0.09310000000000009  0.7560300000000002  0.60123  1.0000
  C   C27       1.0  0.09731000000000001  0.8398700000000002  0.60815  1.0000
  C   C28       1.0  0.15005  0.8715800000000001  0.65631  1.0000
  C   C29       1.0  0.09978999999999998  0.92279  0.60917  1.0000
  C   C30       1.0  0.06462999999999998  0.69878  0.57126  1.0000
  C   C31       1.0  0.08705000000000006  0.6689900000000001  0.58947  1.0000
  C   C32       1.0  0.16709000000000004  0.7556600000000002  0.668  1.0000
  C   C33       1.0  0.056260000000000004  0.60782  0.55707  1.0000
  C   C34       1.0  0.07184000000000003  0.9478000000000001  0.58289  1.0000
  C   C35       1.0  0.32568  0.9244400000000003  0.82586  1.0000
  C   C36       1.0  0.3241800000000001  0.9098600000000002  0.7748399999999999  1.0000
  C   C37       1.0  0.2253899999999999  0.87429  0.72847  1.0000
  C   C38       1.0  0.27421  0.8851400000000001  0.72625  1.0000
  C   C39       1.0  0.13823000000000008  0.6978700000000002  0.63823  1.0000
  C   C40       1.0  0.22675  0.8898900000000002  0.77929  1.0000
  C   C41       1.0  0.37887  0.9478500000000002  0.87746  1.0000
  C   C42       1.0  0.27687  0.9151600000000001  0.82792  1.0000
  C   C43       1.0  0.2794800000000001  0.4871800000000001  0.4147  1.0000
  C   C44       1.0  0.13584  0.4954000000000001  0.35016  1.0000
  C   C45       1.0  0.2981299999999999  0.49579999999999996  0.3433899999999999  1.0000
  C   C46       1.0  0.24927999999999995  0.49697  0.31988  1.0000
  C   C47       1.0  0.15469999999999995  0.49189  0.39872  1.0000
  C   C48       1.0  0.23164999999999997  0.4891800000000001  0.39184  1.0000
  C   C49       1.0  0.21518000000000007  0.49375000000000013  0.3437  1.0000
  C   C50       1.0  0.3135499999999999  0.49062  0.39081  1.0000
  C   C51       1.0  0.12743999999999997  0.49336  0.42869999999999997  1.0000
  C   C52       1.0  0.07942000000000007  0.4975900000000002  0.41053  1.0000
  C   C53       1.0  0.08752999999999998  0.49913000000000013  0.33201  1.0000
  C   C54       1.0  0.05073000000000002  0.4992200000000001  0.443  1.0000
  C   C55       1.0  0.36484  0.4889000000000001  0.41705  1.0000
  C   C56       1.0  0.09858000000000001  0.4998200000000001  0.1742  1.0000
  C   C57       1.0  0.13503  0.54938  0.22526  1.0000
  C   C58       1.0  0.14572000000000002  0.49691000000000013  0.27155  1.0000
  C   C59       1.0  0.15882999999999994  0.54796  0.27382  1.0000
  C   C60       1.0  0.05954000000000004  0.5000300000000001  0.36180999999999996  1.0000
  C   C61       1.0  0.11050999999999998  0.4474100000000001  0.22072  1.0000
  C   C62       1.0  0.07045  0.50144  0.1226  1.0000
  C   C63       1.0  0.08721000000000001  0.4489400000000001  0.17210999999999999  1.0000
  C   C64       1.0  0.7205499999999999  0.13517  0.20768  1.0000
  C   C65       1.0  0.8642199999999998  0.21426999999999996  0.35961999999999994  1.0000
  C   C66       1.0  0.7018  0.04517  0.19757  1.0000
  C   C67       1.0  0.75066  0.07047000000000002  0.24757999999999997  1.0000
  C   C68       1.0  0.84537  0.24398000000000006  0.33725  1.0000
  C   C69       1.0  0.7683799999999997  0.16011000000000006  0.25751  1.0000
  C   C70       1.0  0.78481  0.12841  0.27854  1.0000
  C   C71       1.0  0.68642  0.0772  0.17701  1.0000
  C   C72       1.0  0.87263  0.30123000000000005  0.36599  1.0000
  C   C73       1.0  0.92067  0.3311  0.41825  1.0000
  C   C74       1.0  0.91256  0.24447000000000002  0.41168  1.0000
  C   C75       1.0  0.9494100000000001  0.3922900000000001  0.4486  1.0000
  C   C76       1.0  0.6351  0.05215  0.12403  1.0000
  C   C77       1.0  0.90144  0.07557  0.40122  1.0000
  C   C78       1.0  0.8650299999999999  0.09017999999999995  0.41433999999999993  1.0000
  C   C79       1.0  0.8542799999999998  0.12576999999999997  0.35119999999999996  1.0000
  C   C80       1.0  0.8412099999999998  0.11494999999999997  0.38916  1.0000
  C   C81       1.0  0.9405399999999998  0.30226  0.44056  1.0000
  C   C82       1.0  0.8894799999999998  0.11019000000000002  0.33692  1.0000
  C   C83       1.0  0.9295199999999998  0.05207999999999999  0.43096999999999996  1.0000
  C   C84       1.0  0.9128099999999999  0.08488  0.36171999999999993  1.0000
  C   C85       1.0  0.13518999999999995  0.20767999999999995  0.7205399999999998  1.0000
  C   C86       1.0  0.21427999999999994  0.35961999999999994  0.86422  1.0000
  C   C87       1.0  0.04518999999999993  0.19757999999999998  0.7018199999999999  1.0000
  C   C88       1.0  0.07046999999999995  0.24760999999999994  0.7506799999999999  1.0000
  C   C89       1.0  0.24398999999999998  0.33727  0.84538  1.0000
  C   C90       1.0  0.16013  0.25753  0.76839  1.0000
  C   C91       1.0  0.12842  0.27854  0.78481  1.0000
  C   C92       1.0  0.07722999999999998  0.17702999999999994  0.68644  1.0000
  C   C93       1.0  0.3012600000000001  0.36602  0.87264  1.0000
  C   C94       1.0  0.33113000000000004  0.4182900000000001  0.92068  1.0000
  C   C95       1.0  0.24445999999999993  0.41169000000000006  0.9125799999999997  1.0000
  C   C96       1.0  0.3923099999999997  0.44861999999999996  0.9494099999999999  1.0000
  C   C97       1.0  0.052189999999999986  0.12403999999999997  0.63513  1.0000
  C   C98       1.0  0.07556999999999992  0.40123000000000003  0.90144  1.0000
  C   C99       1.0  0.09018000000000004  0.4143500000000001  0.86503  1.0000
  C   C100      1.0  0.12578000000000006  0.35121  0.8543  1.0000
  C   C101      1.0  0.11495999999999996  0.38917  0.8412199999999999  1.0000
  C   C102      1.0  0.3022799999999999  0.4405600000000001  0.94055  1.0000
  C   C103      1.0  0.11019999999999996  0.33693999999999996  0.8894999999999998  1.0000
  C   C104      1.0  0.052049999999999985  0.43095  0.92951  1.0000
  C   C105      1.0  0.08489000000000002  0.3617400000000001  0.91281  1.0000
  C   C106      1.0  0.48717000000000005  0.4147000000000001  0.27947  1.0000
  C   C107      1.0  0.4954  0.35015  0.13582  1.0000
  C   C108      1.0  0.49579  0.3434000000000001  0.29813  1.0000
  C   C109      1.0  0.49696999999999997  0.3198600000000001  0.24927  1.0000
  C   C110      1.0  0.49187999999999976  0.39869000000000004  0.15467  1.0000
  C   C111      1.0  0.4891699999999999  0.39181000000000005  0.23162  1.0000
  C   C112      1.0  0.49375999999999987  0.34369  0.21518  1.0000
  C   C113      1.0  0.49061  0.39082000000000006  0.31354  1.0000
  C   C114      1.0  0.4933299999999999  0.42868000000000006  0.12741  1.0000
  C   C115      1.0  0.49756  0.41053  0.07939  1.0000
  C   C116      1.0  0.4991299999999999  0.33198999999999995  0.08749999999999998  1.0000
  C   C117      1.0  0.49919999999999987  0.44301  0.05072  1.0000
  C   C118      1.0  0.48889999999999995  0.4170900000000001  0.36483  1.0000
  C   C119      1.0  0.49986999999999987  0.1742  0.09859  1.0000
  C   C120      1.0  0.54941  0.22524000000000005  0.13502  1.0000
  C   C121      1.0  0.49693  0.2715400000000001  0.1457  1.0000
  C   C122      1.0  0.5479899999999998  0.27382  0.15881  1.0000
  C   C123      1.0  0.50001  0.36182000000000003  0.059519999999999997  1.0000
  C   C124      1.0  0.4474399999999999  0.22071000000000002  0.11049  1.0000
  C   C125      1.0  0.5015  0.12260000000000003  0.07047  1.0000
  C   C126      1.0  0.44897  0.1721  0.0872  1.0000
  C   C127      1.0  0.8647999999999998  0.58526  0.07244  1.0000
  C   C128      1.0  0.7857700000000001  0.64982  0.14522  1.0000
  C   C129      1.0  0.9548200000000001  0.6566000000000001  0.15241  1.0000
  C   C130      1.0  0.92949  0.68014  0.17709  1.0000
  C   C131      1.0  0.7560199999999998  0.6012400000000001  0.09312  1.0000
  C   C132      1.0  0.8398499999999998  0.6081400000000002  0.0973  1.0000
  C   C133      1.0  0.87156  0.6563  0.15005  1.0000
  C   C134      1.0  0.9227699999999999  0.60914  0.09979  1.0000
  C   C135      1.0  0.6987600000000002  0.5712700000000001  0.06464  1.0000
  C   C136      1.0  0.66895  0.58948  0.08707  1.0000
  C   C137      1.0  0.7556499999999999  0.6680200000000003  0.16712  1.0000
  C   C138      1.0  0.60779  0.5570700000000001  0.05629  1.0000
  C   C139      1.0  0.9477899999999998  0.58286  0.07184  1.0000
  C   C140      1.0  0.92446  0.8258700000000001  0.32571  1.0000
  C   C141      1.0  0.9098699999999998  0.7748600000000003  0.32421  1.0000
  C   C142      1.0  0.8742699999999995  0.72848  0.22542  1.0000
  C   C143      1.0  0.8851199999999998  0.72625  0.27423  1.0000
  C   C144      1.0  0.69785  0.63823  0.13825  1.0000
  C   C145      1.0  0.8898699999999998  0.7792800000000002  0.22676  1.0000
  C   C146      1.0  0.9478699999999999  0.8774600000000002  0.37891  1.0000
  C   C147      1.0  0.91517  0.8279300000000003  0.2769  1.0000
  C   C148      1.0  0.5128299999999998  0.79231  0.9275199999999999  1.0000
  C   C149      1.0  0.50461  0.6404300000000003  0.85475  1.0000
  C   C150      1.0  0.50421  0.8023400000000003  0.84759  1.0000
  C   C151      1.0  0.50307  0.7523200000000002  0.82291  1.0000
  C   C152      1.0  0.50812  0.66282  0.90682  1.0000
  C   C153      1.0  0.51086  0.7424700000000001  0.9026599999999998  1.0000
  C   C154      1.0  0.50627  0.7214300000000002  0.84993  1.0000
  C   C155      1.0  0.5093600000000001  0.8229200000000002  0.90019  1.0000
  C   C156      1.0  0.50662  0.6340800000000002  0.93533  1.0000
  C   C157      1.0  0.5024  0.5818400000000001  0.91296  1.0000
  C   C158      1.0  0.5009  0.5883900000000002  0.8328799999999998  1.0000
  C   C159      1.0  0.5008199999999998  0.55155  0.94383  1.0000
  C   C160      1.0  0.5109999999999999  0.8758900000000002  0.92816  1.0000
  C   C161      1.0  0.50021  0.59873  0.6743  1.0000
  C   C162      1.0  0.45067  0.5856000000000001  0.67577  1.0000
  C   C163      1.0  0.50307  0.64875  0.77457  1.0000
  C   C164      1.0  0.45201  0.6107700000000003  0.72573  1.0000
  C   C165      1.0  0.49998  0.55952  0.8618  1.0000
  C   C166      1.0  0.5525499999999999  0.6630300000000002  0.77326  1.0000
  C   C167      1.0  0.49857  0.56901  0.62106  1.0000
  C   C168      1.0  0.5510999999999999  0.6382500000000002  0.72314  1.0000
  C   C169      1.0  0.41470999999999986  0.27948  0.48717  1.0000
  C   C170      1.0  0.3501599999999998  0.13585  0.49541  1.0000
  C   C171      1.0  0.34341  0.29815000000000014  0.4957799999999999  1.0000
  C   C172      1.0  0.3199  0.24930000000000005  0.49697  1.0000
  C   C173      1.0  0.39871999999999996  0.15470000000000003  0.49189999999999995  1.0000
  C   C174      1.0  0.3918399999999999  0.23165  0.48918  1.0000
  C   C175      1.0  0.34371  0.21520000000000006  0.49376  1.0000
  C   C176      1.0  0.3908299999999999  0.31356  0.4906  1.0000
  C   C177      1.0  0.42869999999999997  0.12744000000000003  0.4933699999999999  1.0000
  C   C178      1.0  0.41053  0.07942  0.49758  1.0000
  C   C179      1.0  0.33201  0.08752999999999994  0.4991299999999999  1.0000
  C   C180      1.0  0.4429999999999999  0.050720000000000015  0.49921  1.0000
  C   C181      1.0  0.4170899999999999  0.36484000000000005  0.48888  1.0000
  C   C182      1.0  0.17420999999999995  0.09862  0.49985  1.0000
  C   C183      1.0  0.22524999999999995  0.13504000000000002  0.54939  1.0000
  C   C184      1.0  0.27155  0.14574  0.49692  1.0000
  C   C185      1.0  0.27382  0.15884000000000006  0.54798  1.0000
  C   C186      1.0  0.3618  0.05955  0.50002  1.0000
  C   C187      1.0  0.22074000000000002  0.11053000000000006  0.44743  1.0000
  C   C188      1.0  0.12263999999999999  0.07050000000000003  0.50151  1.0000
  C   C189      1.0  0.17211999999999997  0.08723  0.44894999999999996  1.0000
  C   C190      1.0  0.20768000000000003  0.7205500000000001  0.13519  1.0000
  C   C191      1.0  0.35960000000000003  0.8642100000000004  0.21426  1.0000
  C   C192      1.0  0.19755000000000006  0.7017900000000002  0.04518  1.0000
  C   C193      1.0  0.24757  0.7506500000000003  0.07045  1.0000
  C   C194      1.0  0.3372499999999999  0.84538  0.24398  1.0000
  C   C195      1.0  0.25752  0.7683800000000002  0.16012  1.0000
  C   C196      1.0  0.27852  0.7848  0.12841  1.0000
  C   C197      1.0  0.177  0.68642  0.07722  1.0000
  C   C198      1.0  0.36599  0.8726300000000002  0.30124  1.0000
  C   C199      1.0  0.41825  0.9206600000000003  0.3311  1.0000
  C   C200      1.0  0.41167  0.9125600000000003  0.24445  1.0000
  C   C201      1.0  0.44860000000000005  0.9493900000000001  0.39228  1.0000
  C   C202      1.0  0.12402000000000009  0.6351100000000002  0.0522  1.0000
  C   C203      1.0  0.4012199999999999  0.9014300000000002  0.07557  1.0000
  C   C204      1.0  0.41431999999999997  0.8650200000000002  0.09017  1.0000
  C   C205      1.0  0.35116  0.85427  0.12575  1.0000
  C   C206      1.0  0.3891299999999999  0.8412000000000002  0.11493  1.0000
  C   C207      1.0  0.4405500000000001  0.9405300000000002  0.30225  1.0000
  C   C208      1.0  0.33689999999999987  0.88947  0.11017999999999999  1.0000
  C   C209      1.0  0.43093000000000004  0.9295000000000002  0.05206  1.0000
  C   C210      1.0  0.3617099999999999  0.9128000000000002  0.08488999999999998  1.0000
  C   C211      1.0  0.7922999999999999  0.9275200000000002  0.51283  1.0000
  C   C212      1.0  0.6404499999999999  0.8547500000000002  0.50462  1.0000
  C   C213      1.0  0.8023499999999998  0.8476000000000002  0.50422  1.0000
  C   C214      1.0  0.7523399999999998  0.8229200000000002  0.50307  1.0000
  C   C215      1.0  0.66283  0.90683  0.50814  1.0000
  C   C216      1.0  0.7424799999999998  0.9026600000000001  0.51085  1.0000
  C   C217      1.0  0.7214400000000001  0.8499400000000003  0.50627  1.0000
  C   C218      1.0  0.8229299999999998  0.9002000000000002  0.50937  1.0000
  C   C219      1.0  0.6341  0.93533  0.50665  1.0000
  C   C220      1.0  0.5818400000000001  0.9129400000000004  0.50241  1.0000
  C   C221      1.0  0.5884099999999998  0.8328800000000002  0.5009  1.0000
  C   C222      1.0  0.5515200000000001  0.9437800000000002  0.50081  1.0000
  C   C223      1.0  0.8758900000000001  0.9281500000000003  0.51101  1.0000
  C   C224      1.0  0.5988  0.6743700000000001  0.50023  1.0000
  C   C225      1.0  0.58566  0.67582  0.45069  1.0000
  C   C226      1.0  0.6488  0.7746  0.50309  1.0000
  C   C227      1.0  0.61082  0.7257700000000001  0.45203  1.0000
  C   C228      1.0  0.55953  0.8617700000000003  0.4999799999999999  1.0000
  C   C229      1.0  0.6630899999999997  0.77331  0.55258  1.0000
  C   C230      1.0  0.5690899999999998  0.62113  0.49857  1.0000
  C   C231      1.0  0.6383199999999999  0.7232100000000002  0.55114  1.0000
  C   C232      1.0  0.58528  0.07243000000000002  0.86479  1.0000
  C   C233      1.0  0.6498299999999998  0.14522000000000007  0.78578  1.0000
  C   C234      1.0  0.6565999999999997  0.15239  0.95483  1.0000
  C   C235      1.0  0.68014  0.17708999999999997  0.92952  1.0000
  C   C236      1.0  0.60125  0.09312000000000005  0.75602  1.0000
  C   C237      1.0  0.6081599999999998  0.09729999999999998  0.83985  1.0000
  C   C238      1.0  0.6563099999999997  0.15003999999999995  0.8715799999999999  1.0000
  C   C239      1.0  0.60915  0.0997700000000001  0.92276  1.0000
  C   C240      1.0  0.5712799999999999  0.06463999999999995  0.69877  1.0000
  C   C241      1.0  0.5894799999999997  0.08706999999999991  0.6689699999999998  1.0000
  C   C242      1.0  0.6680099999999998  0.16711999999999996  0.7556599999999999  1.0000
  C   C243      1.0  0.5570600000000002  0.05628000000000002  0.6078  1.0000
  C   C244      1.0  0.58284  0.0718  0.94775  1.0000
  C   C245      1.0  0.82587  0.32571  0.92444  1.0000
  C   C246      1.0  0.77485  0.3242100000000001  0.9098699999999998  1.0000
  C   C247      1.0  0.72849  0.22541  0.8742999999999999  1.0000
  C   C248      1.0  0.72626  0.27423000000000003  0.8851399999999999  1.0000
  C   C249      1.0  0.6382299999999997  0.13825  0.6978599999999999  1.0000
  C   C250      1.0  0.7793  0.22677  0.8898899999999998  1.0000
  C   C251      1.0  0.8774699999999998  0.3789000000000001  0.94787  1.0000
  C   C252      1.0  0.82793  0.27689  0.91516  1.0000
  N   N1        1.0  0.8268899999999998  0.50506  0.6709099999999999  1.0000
  N   N2        1.0  0.1730700000000001  0.8441000000000002  0.67814  1.0000
  N   N3        1.0  0.16585000000000003  0.4949200000000002  0.32186  1.0000
  N   N4        1.0  0.83413  0.15594  0.3291  1.0000
  N   N5        1.0  0.15593999999999997  0.3291  0.83415  1.0000
  N   N6        1.0  0.49495  0.32185  0.16583999999999996  1.0000
  N   N7        1.0  0.8441  0.67814  0.1731  1.0000
  N   N8        1.0  0.5050499999999999  0.67089  0.82688  1.0000
  N   N9        1.0  0.3218699999999999  0.1658700000000001  0.49495  1.0000
  N   N10       1.0  0.3290600000000001  0.8341400000000002  0.15593  1.0000
  N   N11       1.0  0.6709199999999997  0.8269  0.50506  1.0000
  N   N12       1.0  0.67815  0.17308  0.84411  1.0000
  O   O1        1.0  0.9323299999999998  0.5139200000000002  0.7148  1.0000
  O   O2        1.0  0.9901  0.5023000000000002  0.57355  1.0000
  O   O3        1.0  0.9787399999999998  0.52283  0.89361  1.0000
  O   O4        1.0  0.9228599999999998  0.49811  0.50428  1.0000
  O   O5        1.0  0.62068  0.54421  0.5866  1.0000
  O   O6        1.0  0.5809  0.4514800000000001  0.52824  1.0000
  O   O7        1.0  0.89999  0.50022  0.89964  1.0000
  O   O8        1.0  0.06760000000000005  0.7824900000000002  0.58152  1.0000
  O   O9        1.0  0.009969999999999996  0.58347  0.51218  1.0000
  O   O10       1.0  0.021210000000000027  0.9149400000000002  0.54418  1.0000
  O   O11       1.0  0.07721000000000001  0.58155  0.57535  1.0000
  O   O12       1.0  0.37928  0.9658300000000002  0.92352  1.0000
  O   O13       1.0  0.4190299999999999  0.9471199999999999  0.8706099999999999  1.0000
  O   O14       1.0  0.10008000000000011  0.9997100000000001  0.60026  1.0000
  O   O15       1.0  0.20087999999999992  0.4861  0.41842999999999997  1.0000
  O   O16       1.0  0.07139999999999998  0.49797000000000013  0.48794  1.0000
  O   O17       1.0  0.37069  0.47696  0.45572  1.0000
  O   O18       1.0  0.006100000000000014  0.50178  0.42471  1.0000
  O   O19       1.0  0.04244000000000004  0.4558200000000001  0.0765  1.0000
  O   O20       1.0  0.07656  0.54847  0.1295  1.0000
  O   O21       1.0  0.39937999999999996  0.49974000000000024  0.3997  1.0000
  O   O22       1.0  0.79918  0.21748  0.28527  1.0000
  O   O23       1.0  0.9287999999999998  0.41657  0.4266499999999999  1.0000
  O   O24       1.0  0.62921  0.08498000000000003  0.10627  1.0000
  O   O25       1.0  0.9940399999999998  0.41866  0.49582  1.0000
  O   O26       1.0  0.9575599999999999  0.03406  0.41339  1.0000
  O   O27       1.0  0.9233399999999997  0.05276999999999999  0.47183  1.0000
  O   O28       1.0  0.60055  0.00023999999999999366  0.10032999999999999  1.0000
  O   O29       1.0  0.21749999999999983  0.28527999999999987  0.7991799999999999  1.0000
  O   O30       1.0  0.4165499999999999  0.4266400000000001  0.9287599999999999  1.0000
  O   O31       1.0  0.08503  0.10628999999999998  0.62922  1.0000
  O   O32       1.0  0.41866999999999993  0.49585  0.99405  1.0000
  O   O33       1.0  0.03412000000000003  0.41342  0.95762  1.0000
  O   O34       1.0  0.05261000000000002  0.47173  0.92324  1.0000
  O   O35       1.0  0.00026999999999999805  0.10032999999999995  0.60062  1.0000
  O   O36       1.0  0.4861  0.41842000000000007  0.20087  1.0000
  O   O37       1.0  0.49801000000000006  0.4879900000000001  0.07146  1.0000
  O   O38       1.0  0.47697  0.45578  0.37068999999999996  1.0000
  O   O39       1.0  0.50171  0.4246800000000001  0.00606  1.0000
  O   O40       1.0  0.4558699999999999  0.07651  0.04245999999999999  1.0000
  O   O41       1.0  0.54853  0.12948  0.07658  1.0000
  O   O42       1.0  0.4997299999999999  0.39974  0.39937  1.0000
  O   O43       1.0  0.78247  0.58151  0.06759  1.0000
  O   O44       1.0  0.58346  0.51214  0.01001  1.0000
  O   O45       1.0  0.9149399999999999  0.54418  0.021169999999999998  1.0000
  O   O46       1.0  0.5815300000000001  0.5753800000000002  0.07723  1.0000
  O   O47       1.0  0.9658799999999997  0.92351  0.37933  1.0000
  O   O48       1.0  0.9471199999999997  0.8706100000000002  0.41907  1.0000
  O   O49       1.0  0.99967  0.6002  0.10008  1.0000
  O   O50       1.0  0.5139099999999999  0.7148000000000001  0.9323299999999999  1.0000
  O   O51       1.0  0.5023299999999999  0.5736200000000001  0.9901599999999999  1.0000
  O   O52       1.0  0.52283  0.8936200000000002  0.97876  1.0000
  O   O53       1.0  0.49811  0.5043000000000001  0.92288  1.0000
  O   O54       1.0  0.54421  0.5866100000000002  0.62066  1.0000
  O   O55       1.0  0.4514999999999999  0.52815  0.58083  1.0000
  O   O56       1.0  0.50021  0.8996100000000002  0.8999999999999999  1.0000
  O   O57       1.0  0.4184299999999999  0.20089000000000007  0.48612  1.0000
  O   O58       1.0  0.4879299999999999  0.07137000000000003  0.49793  1.0000
  O   O59       1.0  0.4558099999999999  0.3707000000000001  0.47701  1.0000
  O   O60       1.0  0.4247199999999999  0.006100000000000008  0.50179  1.0000
  O   O61       1.0  0.07654  0.04252999999999998  0.45591  1.0000
  O   O62       1.0  0.12954999999999997  0.07658  0.54855  1.0000
  O   O63       1.0  0.3997199999999999  0.39938  0.49966  1.0000
  O   O64       1.0  0.2852699999999999  0.79918  0.21749  1.0000
  O   O65       1.0  0.42664999999999986  0.92878  0.41656  1.0000
  O   O66       1.0  0.10626000000000005  0.6292100000000003  0.08503  1.0000
  O   O67       1.0  0.49583  0.9940100000000002  0.41864  1.0000
  O   O68       1.0  0.41339999999999993  0.9576000000000002  0.03411  1.0000
  O   O69       1.0  0.47172999999999987  0.92325  0.05263999999999999  1.0000
  O   O70       1.0  0.10031000000000001  0.6005800000000001  0.00028  1.0000
  O   O71       1.0  0.7148  0.93233  0.51393  1.0000
  O   O72       1.0  0.5735299999999999  0.99009  0.50228  1.0000
  O   O73       1.0  0.89358  0.9787300000000002  0.5228  1.0000
  O   O74       1.0  0.50427  0.9228500000000003  0.49810999999999994  1.0000
  O   O75       1.0  0.58661  0.6206900000000002  0.54419  1.0000
  O   O76       1.0  0.5282599999999998  0.5809100000000003  0.45146  1.0000
  O   O77       1.0  0.8996499999999998  0.9000100000000002  0.50026  1.0000
  O   O78       1.0  0.5815199999999999  0.06760999999999998  0.78246  1.0000
  O   O79       1.0  0.51217  0.00998000000000002  0.58346  1.0000
  O   O80       1.0  0.54412  0.021170000000000005  0.91489  1.0000
  O   O81       1.0  0.57533  0.07721000000000001  0.58152  1.0000
  O   O82       1.0  0.9235099999999997  0.37929000000000007  0.9658  1.0000
  O   O83       1.0  0.87064  0.4191000000000001  0.94723  1.0000
  O   O84       1.0  0.6002199999999996  0.10002999999999997  0.9996699999999998  1.0000
  O   O85       1.0  0.4929499999999999  0.49292000000000014  0.49286  1.0000
  O   O86       1.0  0.50705  1.0000000000000004e-05  3e-05  1.0000
  O   O87       1.0  4.999999999999199e-05  0.50706  2e-05  1.0000
  O   O88       1.0  9.999999999990982e-06  4.999999999999171e-05  0.50704  1.0000
