data_image0
_chemical_formula_structural       Zn12H168C236N48O40
_chemical_formula_sum              "Zn12 H168 C236 N48 O40"
_cell_length_a       14.29647
_cell_length_b       20.11327
_cell_length_c       22.16455
_cell_angle_alpha    90.0
_cell_angle_beta     90.0
_cell_angle_gamma    90.0

_space_group_name_H-M_alt    "P 1"
_space_group_IT_number       1

loop_
  _space_group_symop_operation_xyz
  'x, y, z'

loop_
  _atom_site_type_symbol
  _atom_site_label
  _atom_site_symmetry_multiplicity
  _atom_site_fract_x
  _atom_site_fract_y
  _atom_site_fract_z
  _atom_site_occupancy
  Zn  Zn1       1.0  0.82624  0.19958999999999996  0.24394999999999997  1.0000
  Zn  Zn2       1.0  0.63175  0.22681999999999997  0.998  1.0000
  Zn  Zn3       1.0  0.8125  0.34535  0.71043  1.0000
  Zn  Zn4       1.0  0.17376  0.80041  0.24394999999999997  1.0000
  Zn  Zn5       1.0  0.36825  0.7731899999999999  0.9979899999999999  1.0000
  Zn  Zn6       1.0  0.1875  0.65463  0.71034  1.0000
  Zn  Zn7       1.0  0.82624  0.80041  0.74395  1.0000
  Zn  Zn8       1.0  0.63175  0.77318  0.49799  1.0000
  Zn  Zn9       1.0  0.8125  0.65464  0.21037  1.0000
  Zn  Zn10      1.0  0.17376  0.19958999999999996  0.74395  1.0000
  Zn  Zn11      1.0  0.36824  0.22681999999999997  0.49799999999999994  1.0000
  Zn  Zn12      1.0  0.1875  0.34535  0.21041999999999997  1.0000
  H   H1        1.0  0.65887  0.3133  0.80076  1.0000
  H   H2        1.0  0.55676  0.30788  0.2564  1.0000
  H   H3        1.0  0.43805  0.39742  0.25255  1.0000
  H   H4        1.0  0.65034  0.5361  0.19504  1.0000
  H   H5        1.0  0.7686500000000003  0.44612999999999997  0.20086999999999997  1.0000
  H   H6        1.0  0.03194  0.13807  0.24498  1.0000
  H   H7        1.0  0.9114500000000002  0.28654999999999997  0.13541  1.0000
  H   H8        1.0  0.08794  0.25652  0.08963  1.0000
  H   H9        1.0  0.11086000000000001  0.057059999999999986  0.17117  1.0000
  H   H10       1.0  0.40641  0.05921  0.13104  1.0000
  H   H11       1.0  0.25007  0.24324999999999997  0.13737  1.0000
  H   H12       1.0  0.16773  0.9673799999999999  0.23466  1.0000
  H   H13       1.0  0.30783  0.8246499999999999  0.12858  1.0000
  H   H14       1.0  0.35058  0.94983  0.0836  1.0000
  H   H15       1.0  0.40089  0.27829  0.17338999999999996  1.0000
  H   H16       1.0  0.5703800000000002  0.3121499999999999  0.11975999999999999  1.0000
  H   H17       1.0  0.48466000000000004  0.12721  0.049569999999999996  1.0000
  H   H18       1.0  0.6249100000000002  0.9667399999999999  0.9611299999999999  1.0000
  H   H19       1.0  0.7106700000000001  0.87765  0.90443  1.0000
  H   H20       1.0  0.92441  0.01871  0.8565399999999999  1.0000
  H   H21       1.0  0.83989  0.1066  0.9152099999999999  1.0000
  H   H22       1.0  0.8348600000000002  0.38311  0.13276  1.0000
  H   H23       1.0  0.97083  0.45438999999999996  0.12914  1.0000
  H   H24       1.0  0.95664  0.45813  0.9342599999999999  1.0000
  H   H25       1.0  0.81834  0.38803  0.9369599999999999  1.0000
  H   H26       1.0  0.51298  0.14849  0.88805  1.0000
  H   H27       1.0  0.35289  0.20655  0.8375699999999999  1.0000
  H   H28       1.0  0.4588800000000001  0.32995  0.97665  1.0000
  H   H29       1.0  0.2034  0.25793  0.87868  1.0000
  H   H30       1.0  0.12929  0.4645  0.85378  1.0000
  H   H31       1.0  0.41483  0.41057  0.8916699999999997  1.0000
  H   H32       1.0  0.0382  0.2613  0.91428  1.0000
  H   H33       1.0  0.86432  0.26157  0.85741  1.0000
  H   H34       1.0  0.03464  0.4067  0.7760999999999999  1.0000
  H   H35       1.0  0.22273  0.5477  0.7930899999999999  1.0000
  H   H36       1.0  0.4183  0.6470299999999999  0.9021  1.0000
  H   H37       1.0  0.3988600000000001  0.51736  0.9446299999999997  1.0000
  H   H38       1.0  0.73988  0.09765  0.80532  1.0000
  H   H39       1.0  0.6562200000000001  0.98968  0.80271  1.0000
  H   H40       1.0  0.40696  0.09093  0.74219  1.0000
  H   H41       1.0  0.4890500000000001  0.19825  0.74947  1.0000
  H   H42       1.0  0.734  0.42644  0.03806  1.0000
  H   H43       1.0  0.34112000000000003  0.68671  0.80076  1.0000
  H   H44       1.0  0.44325  0.69212  0.2564  1.0000
  H   H45       1.0  0.5619500000000001  0.60258  0.25255  1.0000
  H   H46       1.0  0.3496700000000001  0.4639  0.19504  1.0000
  H   H47       1.0  0.23136000000000007  0.55387  0.20086999999999997  1.0000
  H   H48       1.0  0.96807  0.86194  0.24496  1.0000
  H   H49       1.0  0.08855  0.71345  0.13539  1.0000
  H   H50       1.0  0.91206  0.74348  0.08962  1.0000
  H   H51       1.0  0.8891500000000002  0.94294  0.17116  1.0000
  H   H52       1.0  0.5936000000000002  0.9408  0.13102  1.0000
  H   H53       1.0  0.74992  0.75675  0.13736  1.0000
  H   H54       1.0  0.8322900000000002  0.03262  0.23465  1.0000
  H   H55       1.0  0.69217  0.17536  0.12859  1.0000
  H   H56       1.0  0.64942  0.050179999999999995  0.0836  1.0000
  H   H57       1.0  0.5991200000000002  0.72172  0.17338999999999996  1.0000
  H   H58       1.0  0.42963  0.68785  0.11975999999999999  1.0000
  H   H59       1.0  0.51533  0.8727899999999998  0.04956  1.0000
  H   H60       1.0  0.3750900000000001  0.03327  0.96114  1.0000
  H   H61       1.0  0.2893400000000001  0.12236  0.90443  1.0000
  H   H62       1.0  0.07559000000000003  0.9813  0.8565399999999999  1.0000
  H   H63       1.0  0.16011  0.8933999999999999  0.9152099999999999  1.0000
  H   H64       1.0  0.16514000000000006  0.61688  0.13275  1.0000
  H   H65       1.0  0.029150000000000002  0.54562  0.12914  1.0000
  H   H66       1.0  0.04335  0.5418599999999999  0.9342599999999999  1.0000
  H   H67       1.0  0.18166  0.61194  0.9369499999999998  1.0000
  H   H68       1.0  0.4870100000000001  0.8515099999999999  0.88805  1.0000
  H   H69       1.0  0.6471100000000001  0.7934599999999999  0.8375599999999999  1.0000
  H   H70       1.0  0.54113  0.67006  0.97665  1.0000
  H   H71       1.0  0.79661  0.7420799999999999  0.87867  1.0000
  H   H72       1.0  0.87071  0.53551  0.85378  1.0000
  H   H73       1.0  0.5851700000000001  0.58945  0.8916699999999997  1.0000
  H   H74       1.0  0.96181  0.73871  0.91427  1.0000
  H   H75       1.0  0.13568000000000002  0.73844  0.8574  1.0000
  H   H76       1.0  0.9653600000000002  0.59331  0.7760999999999999  1.0000
  H   H77       1.0  0.77727  0.45232  0.7930899999999999  1.0000
  H   H78       1.0  0.58171  0.35297999999999996  0.90211  1.0000
  H   H79       1.0  0.60114  0.48265  0.9446299999999997  1.0000
  H   H80       1.0  0.26012  0.90236  0.80531  1.0000
  H   H81       1.0  0.34378  0.01033  0.80271  1.0000
  H   H82       1.0  0.59305  0.90908  0.74219  1.0000
  H   H83       1.0  0.51095  0.8017599999999999  0.74947  1.0000
  H   H84       1.0  0.26598  0.57356  0.03805  1.0000
  H   H85       1.0  0.6588800000000002  0.68671  0.30076  1.0000
  H   H86       1.0  0.55676  0.69212  0.7564  1.0000
  H   H87       1.0  0.43805  0.60258  0.75255  1.0000
  H   H88       1.0  0.65034  0.46391  0.69504  1.0000
  H   H89       1.0  0.76864  0.55387  0.70087  1.0000
  H   H90       1.0  0.03193  0.86194  0.7449599999999998  1.0000
  H   H91       1.0  0.9114500000000002  0.71345  0.63539  1.0000
  H   H92       1.0  0.08795  0.74348  0.58962  1.0000
  H   H93       1.0  0.11086000000000001  0.94294  0.67116  1.0000
  H   H94       1.0  0.40641  0.9408  0.63103  1.0000
  H   H95       1.0  0.25008  0.75675  0.63735  1.0000
  H   H96       1.0  0.16771  0.03262  0.73466  1.0000
  H   H97       1.0  0.30782  0.17536  0.62859  1.0000
  H   H98       1.0  0.35058  0.050179999999999995  0.5836  1.0000
  H   H99       1.0  0.40088  0.72172  0.67339  1.0000
  H   H100      1.0  0.57037  0.68785  0.61975  1.0000
  H   H101      1.0  0.48467  0.8727899999999998  0.54956  1.0000
  H   H102      1.0  0.6249  0.03326  0.46113999999999994  1.0000
  H   H103      1.0  0.71066  0.12236  0.40442999999999996  1.0000
  H   H104      1.0  0.92441  0.9813  0.35654  1.0000
  H   H105      1.0  0.83989  0.8933999999999999  0.41520999999999997  1.0000
  H   H106      1.0  0.8348600000000002  0.61688  0.63275  1.0000
  H   H107      1.0  0.9708600000000002  0.54563  0.62914  1.0000
  H   H108      1.0  0.9566500000000002  0.5418599999999999  0.4342599999999999  1.0000
  H   H109      1.0  0.81834  0.61194  0.43694999999999995  1.0000
  H   H110      1.0  0.51299  0.8515099999999999  0.38804999999999995  1.0000
  H   H111      1.0  0.35288  0.7934599999999999  0.33757  1.0000
  H   H112      1.0  0.4588800000000001  0.67006  0.47665  1.0000
  H   H113      1.0  0.20339  0.7420799999999999  0.37867  1.0000
  H   H114      1.0  0.12929  0.53551  0.35378  1.0000
  H   H115      1.0  0.41483  0.58945  0.39167  1.0000
  H   H116      1.0  0.03819  0.73871  0.41426999999999997  1.0000
  H   H117      1.0  0.86432  0.73843  0.35739  1.0000
  H   H118      1.0  0.03464  0.5933  0.2761  1.0000
  H   H119      1.0  0.22273  0.45230999999999993  0.29309  1.0000
  H   H120      1.0  0.41829  0.35297999999999996  0.40210999999999997  1.0000
  H   H121      1.0  0.3988700000000001  0.48265  0.44463  1.0000
  H   H122      1.0  0.7398700000000002  0.90236  0.3053  1.0000
  H   H123      1.0  0.65621  0.01034  0.3027  1.0000
  H   H124      1.0  0.40695000000000003  0.90908  0.24219  1.0000
  H   H125      1.0  0.4890400000000001  0.8017599999999999  0.24946  1.0000
  H   H126      1.0  0.73402  0.57356  0.5380499999999999  1.0000
  H   H127      1.0  0.34113  0.31331  0.30076  1.0000
  H   H128      1.0  0.44324  0.30788  0.7564  1.0000
  H   H129      1.0  0.5619500000000001  0.39742  0.75255  1.0000
  H   H130      1.0  0.3496600000000001  0.5361  0.69504  1.0000
  H   H131      1.0  0.23136000000000007  0.44612999999999997  0.70087  1.0000
  H   H132      1.0  0.9680600000000003  0.13807  0.7449799999999999  1.0000
  H   H133      1.0  0.08855  0.28654999999999997  0.63541  1.0000
  H   H134      1.0  0.91206  0.25652  0.58963  1.0000
  H   H135      1.0  0.88914  0.057059999999999986  0.6711699999999999  1.0000
  H   H136      1.0  0.59359  0.05921  0.63104  1.0000
  H   H137      1.0  0.7499300000000002  0.24325999999999998  0.63737  1.0000
  H   H138      1.0  0.83228  0.9673799999999999  0.73466  1.0000
  H   H139      1.0  0.69217  0.8246499999999999  0.62858  1.0000
  H   H140      1.0  0.64942  0.9498399999999999  0.5836  1.0000
  H   H141      1.0  0.59911  0.2783  0.67339  1.0000
  H   H142      1.0  0.42962  0.3121499999999999  0.6197599999999999  1.0000
  H   H143      1.0  0.51533  0.12721  0.54957  1.0000
  H   H144      1.0  0.3750900000000001  0.9667399999999999  0.46113  1.0000
  H   H145      1.0  0.28933  0.87765  0.40442999999999996  1.0000
  H   H146      1.0  0.07558  0.01871  0.35654  1.0000
  H   H147      1.0  0.16011  0.1066  0.41520999999999997  1.0000
  H   H148      1.0  0.16514000000000006  0.38311  0.63276  1.0000
  H   H149      1.0  0.02917  0.45438999999999996  0.62914  1.0000
  H   H150      1.0  0.04336000000000002  0.45813  0.4342599999999999  1.0000
  H   H151      1.0  0.18165  0.38803  0.43696  1.0000
  H   H152      1.0  0.4870200000000001  0.1485  0.38804999999999995  1.0000
  H   H153      1.0  0.6471100000000001  0.20655999999999997  0.33757  1.0000
  H   H154      1.0  0.54112  0.32995  0.4766599999999999  1.0000
  H   H155      1.0  0.7966000000000002  0.25793  0.37868  1.0000
  H   H156      1.0  0.87071  0.4645  0.35378  1.0000
  H   H157      1.0  0.5851700000000001  0.41057  0.39168  1.0000
  H   H158      1.0  0.9618  0.2613  0.41428  1.0000
  H   H159      1.0  0.13567000000000004  0.26157  0.35740999999999995  1.0000
  H   H160      1.0  0.9653600000000002  0.4067  0.2761  1.0000
  H   H161      1.0  0.7772600000000002  0.5477  0.29309  1.0000
  H   H162      1.0  0.5816900000000003  0.6470299999999999  0.40209999999999996  1.0000
  H   H163      1.0  0.6011300000000002  0.51736  0.44463  1.0000
  H   H164      1.0  0.26012  0.09766  0.30532  1.0000
  H   H165      1.0  0.34377  0.98968  0.30271  1.0000
  H   H166      1.0  0.59303  0.09092  0.24219  1.0000
  H   H167      1.0  0.51095  0.19825  0.24948  1.0000
  H   H168      1.0  0.266  0.42644  0.53806  1.0000
  C   C1        1.0  0.7436200000000001  0.31857  0.23257  1.0000
  C   C2        1.0  0.67041  0.3712599999999999  0.22866  1.0000
  C   C3        1.0  0.57667  0.35776  0.24257999999999996  1.0000
  C   C4        1.0  0.51  0.40805  0.23998999999999998  1.0000
  C   C5        1.0  0.5352  0.47324  0.22349  1.0000
  C   C6        1.0  0.62926  0.48631  0.20891999999999997  1.0000
  C   C7        1.0  0.69589  0.43603  0.21184  1.0000
  C   C8        1.0  0.0234  0.17394  0.20895  1.0000
  C   C9        1.0  0.96409  0.2522  0.15147  1.0000
  C   C10       1.0  0.05071  0.23796999999999996  0.12855  1.0000
  C   C11       1.0  0.17285  0.15350999999999998  0.15618  1.0000
  C   C12       1.0  0.17470000000000002  0.08435  0.16143  1.0000
  C   C13       1.0  0.25882  0.050719999999999994  0.15135  1.0000
  C   C14       1.0  0.3402100000000001  0.0852  0.13576  1.0000
  C   C15       1.0  0.33569  0.15443  0.13041999999999998  1.0000
  C   C16       1.0  0.25263  0.18916  0.14014  1.0000
  C   C17       1.0  0.21146000000000006  0.9450399999999999  0.20033  1.0000
  C   C18       1.0  0.28711  0.87332  0.14457  1.0000
  C   C19       1.0  0.3093000000000001  0.93498  0.12232999999999998  1.0000
  C   C20       1.0  0.44244  0.25339  0.13937  1.0000
  C   C21       1.0  0.52589  0.26934  0.11256  1.0000
  C   C22       1.0  0.48532  0.17213  0.07659  1.0000
  C   C23       1.0  0.67093  0.09623  0.96992  1.0000
  C   C24       1.0  0.72734  0.04182  0.94131  1.0000
  C   C25       1.0  0.6917100000000003  0.97687  0.9394  1.0000
  C   C26       1.0  0.73924  0.92759  0.9076099999999998  1.0000
  C   C27       1.0  0.8223900000000002  0.9426399999999999  0.87667  1.0000
  C   C28       1.0  0.86007  0.00704  0.8806899999999999  1.0000
  C   C29       1.0  0.8129900000000002  0.056089999999999994  0.9130699999999998  1.0000
  C   C30       1.0  0.86507  0.8936399999999999  0.8336  1.0000
  C   C31       1.0  0.7488100000000002  0.32353  0.03684  1.0000
  C   C32       1.0  0.7957700000000002  0.39284  0.03622  1.0000
  C   C33       1.0  0.85509  0.40648  0.09046999999999998  1.0000
  C   C34       1.0  0.9310200000000002  0.44625999999999993  0.08797  1.0000
  C   C35       1.0  0.9651500000000001  0.47576999999999997  0.03208  1.0000
  C   C36       1.0  0.92362  0.448  0.97755  1.0000
  C   C37       1.0  0.84668  0.40878  0.97843  1.0000
  C   C38       1.0  0.47809  0.19472  0.89881  1.0000
  C   C39       1.0  0.39863000000000004  0.22172  0.87401  1.0000
  C   C40       1.0  0.4544700000000001  0.28871  0.9454399999999998  1.0000
  C   C41       1.0  0.31431  0.33019  0.89097  1.0000
  C   C42       1.0  0.22253000000000006  0.31035999999999997  0.8790699999999999  1.0000
  C   C43       1.0  0.1568  0.35927  0.8641  1.0000
  C   C44       1.0  0.18171000000000007  0.4266  0.86239  1.0000
  C   C45       1.0  0.27431  0.44460999999999995  0.87351  1.0000
  C   C46       1.0  0.34165000000000006  0.39672  0.88753  1.0000
  C   C47       1.0  0.01073  0.29096999999999995  0.8777  1.0000
  C   C48       1.0  0.9252  0.29241999999999996  0.84967  1.0000
  C   C49       1.0  0.00779  0.36989  0.8072  1.0000
  C   C50       1.0  0.27296  0.5584  0.82833  1.0000
  C   C51       1.0  0.37686  0.60636  0.8849599999999997  1.0000
  C   C52       1.0  0.36878  0.5427199999999999  0.9062799999999999  1.0000
  C   C53       1.0  0.6740500000000003  0.21781  0.78495  1.0000
  C   C54       1.0  0.6205500000000002  0.15482  0.77777  1.0000
  C   C55       1.0  0.6671800000000002  0.09527  0.79118  1.0000
  C   C56       1.0  0.62015  0.03481  0.7888899999999999  1.0000
  C   C57       1.0  0.52536  0.03201  0.77179  1.0000
  C   C58       1.0  0.47966000000000003  0.09189  0.7566999999999999  1.0000
  C   C59       1.0  0.52621  0.15259  0.76023  1.0000
  C   C60       1.0  0.25638  0.68143  0.23255999999999996  1.0000
  C   C61       1.0  0.32959  0.62874  0.22864999999999996  1.0000
  C   C62       1.0  0.42333  0.64225  0.24257  1.0000
  C   C63       1.0  0.49  0.59195  0.23998999999999998  1.0000
  C   C64       1.0  0.4648  0.52677  0.22349  1.0000
  C   C65       1.0  0.37074  0.5137  0.20891  1.0000
  C   C66       1.0  0.30411  0.56397  0.21182999999999996  1.0000
  C   C67       1.0  0.9766100000000002  0.82606  0.20893  1.0000
  C   C68       1.0  0.03592  0.7478  0.15145  1.0000
  C   C69       1.0  0.94929  0.76203  0.12854  1.0000
  C   C70       1.0  0.82716  0.8464899999999999  0.15616  1.0000
  C   C71       1.0  0.82531  0.9156599999999999  0.16142  1.0000
  C   C72       1.0  0.74119  0.9492899999999999  0.15134  1.0000
  C   C73       1.0  0.6598  0.91481  0.13575  1.0000
  C   C74       1.0  0.66432  0.8455799999999999  0.13041  1.0000
  C   C75       1.0  0.74737  0.8108499999999998  0.14013  1.0000
  C   C76       1.0  0.78856  0.05496  0.20032  1.0000
  C   C77       1.0  0.7129  0.12669  0.14457  1.0000
  C   C78       1.0  0.6907100000000003  0.06503  0.12232999999999998  1.0000
  C   C79       1.0  0.55757  0.74662  0.13937  1.0000
  C   C80       1.0  0.4741200000000001  0.73067  0.11256  1.0000
  C   C81       1.0  0.51468  0.8278699999999999  0.07658  1.0000
  C   C82       1.0  0.32907  0.90378  0.96992  1.0000
  C   C83       1.0  0.27265  0.95818  0.94131  1.0000
  C   C84       1.0  0.30829  0.02314  0.9394  1.0000
  C   C85       1.0  0.26076  0.07241999999999998  0.9076099999999998  1.0000
  C   C86       1.0  0.17761000000000002  0.05736  0.87667  1.0000
  C   C87       1.0  0.13993  0.99296  0.8806899999999999  1.0000
  C   C88       1.0  0.18700000000000006  0.9439199999999999  0.9130699999999998  1.0000
  C   C89       1.0  0.13493  0.10637  0.8336  1.0000
  C   C90       1.0  0.25117000000000006  0.67647  0.03684  1.0000
  C   C91       1.0  0.20421  0.60716  0.03621  1.0000
  C   C92       1.0  0.1449  0.59352  0.09045999999999998  1.0000
  C   C93       1.0  0.06895  0.55375  0.08796  1.0000
  C   C94       1.0  0.03481  0.52424  0.03208  1.0000
  C   C95       1.0  0.07636000000000001  0.552  0.97755  1.0000
  C   C96       1.0  0.15331  0.5912199999999999  0.97843  1.0000
  C   C97       1.0  0.5219  0.8052899999999998  0.89881  1.0000
  C   C98       1.0  0.60137  0.77829  0.87401  1.0000
  C   C99       1.0  0.54553  0.7113  0.9454399999999998  1.0000
  C   C100      1.0  0.6856900000000002  0.66982  0.89097  1.0000
  C   C101      1.0  0.77748  0.68965  0.8790699999999999  1.0000
  C   C102      1.0  0.8432000000000001  0.64074  0.8641  1.0000
  C   C103      1.0  0.81829  0.5734199999999999  0.86239  1.0000
  C   C104      1.0  0.7256900000000001  0.55541  0.8735199999999999  1.0000
  C   C105      1.0  0.6583600000000002  0.60329  0.88753  1.0000
  C   C106      1.0  0.98928  0.70904  0.87769  1.0000
  C   C107      1.0  0.07481  0.70759  0.84966  1.0000
  C   C108      1.0  0.9922100000000001  0.63012  0.8072  1.0000
  C   C109      1.0  0.72705  0.44161  0.82833  1.0000
  C   C110      1.0  0.62315  0.39365  0.88497  1.0000
  C   C111      1.0  0.63123  0.45729999999999993  0.9062899999999999  1.0000
  C   C112      1.0  0.32598  0.78219  0.78494  1.0000
  C   C113      1.0  0.37944  0.84519  0.77776  1.0000
  C   C114      1.0  0.33282000000000006  0.9047399999999999  0.79117  1.0000
  C   C115      1.0  0.37985  0.96521  0.7888899999999999  1.0000
  C   C116      1.0  0.4746400000000001  0.9679999999999999  0.77179  1.0000
  C   C117      1.0  0.52034  0.90812  0.7566899999999999  1.0000
  C   C118      1.0  0.4737900000000001  0.8474199999999998  0.76022  1.0000
  C   C119      1.0  0.74361  0.68143  0.73256  1.0000
  C   C120      1.0  0.67041  0.62874  0.72865  1.0000
  C   C121      1.0  0.57667  0.64225  0.74257  1.0000
  C   C122      1.0  0.51  0.59195  0.73999  1.0000
  C   C123      1.0  0.5352  0.52677  0.7234899999999999  1.0000
  C   C124      1.0  0.62926  0.5137  0.70891  1.0000
  C   C125      1.0  0.69589  0.56398  0.71183  1.0000
  C   C126      1.0  0.0234  0.82607  0.70893  1.0000
  C   C127      1.0  0.96409  0.7478  0.65145  1.0000
  C   C128      1.0  0.05071  0.76203  0.62854  1.0000
  C   C129      1.0  0.17285  0.8464899999999999  0.65616  1.0000
  C   C130      1.0  0.17469000000000004  0.9156599999999999  0.66142  1.0000
  C   C131      1.0  0.25881  0.9492899999999999  0.65134  1.0000
  C   C132      1.0  0.3402100000000001  0.91481  0.63575  1.0000
  C   C133      1.0  0.33569  0.8455799999999999  0.63041  1.0000
  C   C134      1.0  0.25264  0.8108499999999998  0.64013  1.0000
  C   C135      1.0  0.21145000000000005  0.05496999999999999  0.70032  1.0000
  C   C136      1.0  0.28710000000000013  0.12669  0.64457  1.0000
  C   C137      1.0  0.30929000000000006  0.06503  0.62233  1.0000
  C   C138      1.0  0.44244  0.74662  0.63937  1.0000
  C   C139      1.0  0.52588  0.73067  0.61256  1.0000
  C   C140      1.0  0.48532  0.8278699999999999  0.57658  1.0000
  C   C141      1.0  0.67093  0.90378  0.46992  1.0000
  C   C142      1.0  0.72735  0.95818  0.44131  1.0000
  C   C143      1.0  0.6917  0.02314  0.4394  1.0000
  C   C144      1.0  0.73923  0.07241999999999998  0.40759999999999996  1.0000
  C   C145      1.0  0.82238  0.05736  0.37667  1.0000
  C   C146      1.0  0.86007  0.99296  0.3807  1.0000
  C   C147      1.0  0.813  0.9439199999999999  0.41307  1.0000
  C   C148      1.0  0.86507  0.10636  0.33361  1.0000
  C   C149      1.0  0.7488300000000002  0.67647  0.53683  1.0000
  C   C150      1.0  0.7957900000000002  0.60716  0.53621  1.0000
  C   C151      1.0  0.8551  0.59352  0.59046  1.0000
  C   C152      1.0  0.93105  0.55375  0.58796  1.0000
  C   C153      1.0  0.96519  0.52424  0.53208  1.0000
  C   C154      1.0  0.92364  0.552  0.4775499999999999  1.0000
  C   C155      1.0  0.8466900000000003  0.5912199999999999  0.47843  1.0000
  C   C156      1.0  0.47809  0.8052899999999998  0.39881  1.0000
  C   C157      1.0  0.39863000000000004  0.77829  0.37400999999999995  1.0000
  C   C158      1.0  0.4544700000000001  0.7113  0.44543999999999995  1.0000
  C   C159      1.0  0.31431  0.66982  0.39097  1.0000
  C   C160      1.0  0.22252000000000005  0.68965  0.37906999999999996  1.0000
  C   C161      1.0  0.1568  0.64074  0.3641  1.0000
  C   C162      1.0  0.18171000000000007  0.57341  0.36239  1.0000
  C   C163      1.0  0.27431  0.5554  0.37351999999999996  1.0000
  C   C164      1.0  0.34165000000000006  0.60329  0.38753  1.0000
  C   C165      1.0  0.010720000000000002  0.70904  0.37768999999999997  1.0000
  C   C166      1.0  0.9251900000000002  0.7075799999999999  0.34966  1.0000
  C   C167      1.0  0.00779  0.63011  0.3072  1.0000
  C   C168      1.0  0.27295  0.44161  0.32833  1.0000
  C   C169      1.0  0.37685  0.39365  0.38497  1.0000
  C   C170      1.0  0.36877000000000004  0.45729  0.40629  1.0000
  C   C171      1.0  0.6740500000000003  0.78219  0.28493  1.0000
  C   C172      1.0  0.6205500000000002  0.84519  0.27776  1.0000
  C   C173      1.0  0.66717  0.9047399999999999  0.29117  1.0000
  C   C174      1.0  0.6201400000000002  0.96521  0.28889  1.0000
  C   C175      1.0  0.52535  0.9679999999999999  0.2718  1.0000
  C   C176      1.0  0.47966000000000003  0.90813  0.25669  1.0000
  C   C177      1.0  0.5262  0.8474199999999998  0.26022  1.0000
  C   C178      1.0  0.25639  0.31857  0.73257  1.0000
  C   C179      1.0  0.32959  0.3712599999999999  0.72866  1.0000
  C   C180      1.0  0.42333  0.35776  0.74258  1.0000
  C   C181      1.0  0.49  0.40805  0.73999  1.0000
  C   C182      1.0  0.4648  0.47324  0.7234899999999999  1.0000
  C   C183      1.0  0.37074  0.48631  0.70891  1.0000
  C   C184      1.0  0.30411  0.43603  0.71183  1.0000
  C   C185      1.0  0.9766  0.17394  0.70894  1.0000
  C   C186      1.0  0.03591  0.2522  0.65147  1.0000
  C   C187      1.0  0.94929  0.23796999999999996  0.62855  1.0000
  C   C188      1.0  0.82715  0.15350999999999998  0.65617  1.0000
  C   C189      1.0  0.8253000000000003  0.08435  0.66143  1.0000
  C   C190      1.0  0.74118  0.050719999999999994  0.65135  1.0000
  C   C191      1.0  0.6597900000000002  0.0852  0.63576  1.0000
  C   C192      1.0  0.66431  0.15443  0.63042  1.0000
  C   C193      1.0  0.7473600000000002  0.18916  0.64014  1.0000
  C   C194      1.0  0.7885500000000002  0.9450399999999999  0.70032  1.0000
  C   C195      1.0  0.7128900000000001  0.87332  0.64457  1.0000
  C   C196      1.0  0.6907  0.93498  0.62233  1.0000
  C   C197      1.0  0.55756  0.25339  0.63937  1.0000
  C   C198      1.0  0.4741100000000001  0.26934  0.61256  1.0000
  C   C199      1.0  0.51468  0.17213  0.57659  1.0000
  C   C200      1.0  0.32907  0.09623  0.46992  1.0000
  C   C201      1.0  0.27265  0.04182  0.44131  1.0000
  C   C202      1.0  0.30829  0.97686  0.43940999999999997  1.0000
  C   C203      1.0  0.26076  0.92759  0.40761  1.0000
  C   C204      1.0  0.17761000000000002  0.9426399999999999  0.37667  1.0000
  C   C205      1.0  0.13993  0.00704  0.3807  1.0000
  C   C206      1.0  0.18700000000000006  0.056089999999999994  0.41307  1.0000
  C   C207      1.0  0.13493  0.8936399999999999  0.3336  1.0000
  C   C208      1.0  0.25119  0.32353  0.53684  1.0000
  C   C209      1.0  0.20422  0.39284  0.53622  1.0000
  C   C210      1.0  0.14491  0.40648999999999996  0.59047  1.0000
  C   C211      1.0  0.06898000000000001  0.44627  0.58797  1.0000
  C   C212      1.0  0.03485  0.4757799999999999  0.53208  1.0000
  C   C213      1.0  0.07639  0.448  0.4775499999999999  1.0000
  C   C214      1.0  0.15332  0.40877  0.47844  1.0000
  C   C215      1.0  0.52191  0.19472  0.39881  1.0000
  C   C216      1.0  0.60137  0.22172  0.37400999999999995  1.0000
  C   C217      1.0  0.54553  0.28871  0.44543999999999995  1.0000
  C   C218      1.0  0.6856900000000002  0.33019  0.39097  1.0000
  C   C219      1.0  0.7774700000000002  0.31035999999999997  0.37906999999999996  1.0000
  C   C220      1.0  0.8432000000000001  0.35927  0.3641  1.0000
  C   C221      1.0  0.81829  0.4266  0.36239  1.0000
  C   C222      1.0  0.7256900000000001  0.44460999999999995  0.37351999999999996  1.0000
  C   C223      1.0  0.65835  0.39672  0.38754  1.0000
  C   C224      1.0  0.9892700000000002  0.29096999999999995  0.3777  1.0000
  C   C225      1.0  0.0748  0.29241999999999996  0.34967  1.0000
  C   C226      1.0  0.9922100000000001  0.36988  0.3072  1.0000
  C   C227      1.0  0.72704  0.5584  0.32833  1.0000
  C   C228      1.0  0.62314  0.60636  0.38496  1.0000
  C   C229      1.0  0.6312200000000002  0.5427099999999999  0.40628  1.0000
  C   C230      1.0  0.32596  0.21781  0.28496  1.0000
  C   C231      1.0  0.37944  0.15482  0.27776999999999996  1.0000
  C   C232      1.0  0.33282000000000006  0.09527  0.29118  1.0000
  C   C233      1.0  0.37985  0.03481  0.2889  1.0000
  C   C234      1.0  0.4746300000000001  0.03201  0.27179  1.0000
  C   C235      1.0  0.5203300000000001  0.09189  0.2567  1.0000
  C   C236      1.0  0.4737800000000001  0.1526  0.26023  1.0000
  N   N1        1.0  0.9485500000000001  0.21230999999999997  0.20153999999999997  1.0000
  N   N2        1.0  0.08733000000000003  0.18764  0.16495999999999997  1.0000
  N   N3        1.0  0.26043  0.98042  0.15789  1.0000
  N   N4        1.0  0.22706000000000007  0.88032  0.1933  1.0000
  N   N5        1.0  0.41759  0.19127  0.11631  1.0000
  N   N6        1.0  0.55118  0.21864999999999998  0.07341  1.0000
  N   N7        1.0  0.51245  0.237  0.9428499999999999  1.0000
  N   N8        1.0  0.38428  0.28167  0.9039699999999999  1.0000
  N   N9        1.0  0.06352  0.34117  0.85083  1.0000
  N   N10       1.0  0.92435  0.34160999999999997  0.8056299999999998  1.0000
  N   N11       1.0  0.30196  0.51217  0.86991  1.0000
  N   N12       1.0  0.31761000000000006  0.6155599999999999  0.83634  1.0000
  N   N13       1.0  0.05146  0.7877  0.20151999999999998  1.0000
  N   N14       1.0  0.9126800000000003  0.81237  0.16495  1.0000
  N   N15       1.0  0.7395800000000002  0.019589999999999996  0.15788  1.0000
  N   N16       1.0  0.77295  0.11968999999999999  0.1933  1.0000
  N   N17       1.0  0.5824100000000001  0.80874  0.1163  1.0000
  N   N18       1.0  0.44882  0.78135  0.0734  1.0000
  N   N19       1.0  0.48755  0.76301  0.9428499999999999  1.0000
  N   N20       1.0  0.6157200000000003  0.71834  0.9039699999999999  1.0000
  N   N21       1.0  0.93649  0.65884  0.85083  1.0000
  N   N22       1.0  0.07566000000000003  0.6584  0.8056199999999999  1.0000
  N   N23       1.0  0.69804  0.48784  0.86991  1.0000
  N   N24       1.0  0.6824  0.38444999999999996  0.83634  1.0000
  N   N25       1.0  0.9485500000000001  0.7877  0.70152  1.0000
  N   N26       1.0  0.08733000000000003  0.81237  0.66495  1.0000
  N   N27       1.0  0.26042  0.019589999999999996  0.6578799999999999  1.0000
  N   N28       1.0  0.22705  0.11968999999999999  0.6933  1.0000
  N   N29       1.0  0.41759  0.80874  0.6163  1.0000
  N   N30       1.0  0.55118  0.78135  0.5734  1.0000
  N   N31       1.0  0.51245  0.76301  0.44284  1.0000
  N   N32       1.0  0.38428  0.71834  0.40397  1.0000
  N   N33       1.0  0.06352  0.65883  0.35083  1.0000
  N   N34       1.0  0.9243400000000003  0.65839  0.30562  1.0000
  N   N35       1.0  0.30196  0.48784  0.36991  1.0000
  N   N36       1.0  0.31760000000000005  0.38444999999999996  0.33634  1.0000
  N   N37       1.0  0.05145000000000002  0.21230999999999997  0.7015299999999999  1.0000
  N   N38       1.0  0.91267  0.18764  0.66496  1.0000
  N   N39       1.0  0.73957  0.98042  0.65789  1.0000
  N   N40       1.0  0.7729400000000001  0.88032  0.69329  1.0000
  N   N41       1.0  0.5824  0.19127  0.61631  1.0000
  N   N42       1.0  0.44882  0.21864999999999998  0.57341  1.0000
  N   N43       1.0  0.48755  0.237  0.44284999999999997  1.0000
  N   N44       1.0  0.6157200000000003  0.28167  0.40397999999999995  1.0000
  N   N45       1.0  0.9364800000000002  0.34117  0.35084  1.0000
  N   N46       1.0  0.07565  0.3416  0.30563  1.0000
  N   N47       1.0  0.69803  0.51217  0.36991  1.0000
  N   N48       1.0  0.6823900000000003  0.6155599999999999  0.33634  1.0000
  O   O1        1.0  0.82827  0.33347  0.22729  1.0000
  O   O2        1.0  0.7141  0.25806  0.24242  1.0000
  O   O3        1.0  0.59317  0.08374  0.9938399999999998  1.0000
  O   O4        1.0  0.70827  0.15504999999999997  0.9665699999999999  1.0000
  O   O5        1.0  0.81935  0.8377699999999999  0.82712  1.0000
  O   O6        1.0  0.9357  0.90956  0.80347  1.0000
  O   O7        1.0  0.7601400000000003  0.28351  0.0791  1.0000
  O   O8        1.0  0.69369  0.31332  0.99085  1.0000
  O   O9        1.0  0.7600200000000003  0.21902999999999997  0.7880999999999999  1.0000
  O   O10       1.0  0.62  0.27246  0.78775  1.0000
  O   O11       1.0  0.17173  0.66653  0.22729  1.0000
  O   O12       1.0  0.2859  0.7419399999999999  0.24242  1.0000
  O   O13       1.0  0.40683000000000014  0.91627  0.9938399999999998  1.0000
  O   O14       1.0  0.29173  0.8449599999999999  0.9665699999999999  1.0000
  O   O15       1.0  0.18065000000000003  0.16223  0.82712  1.0000
  O   O16       1.0  0.0643  0.09043999999999999  0.80347  1.0000
  O   O17       1.0  0.23984  0.71648  0.07909  1.0000
  O   O18       1.0  0.30631  0.68668  0.99085  1.0000
  O   O19       1.0  0.23994000000000004  0.78098  0.7880999999999999  1.0000
  O   O20       1.0  0.38  0.72755  0.78775  1.0000
  O   O21       1.0  0.82827  0.66654  0.72729  1.0000
  O   O22       1.0  0.7141  0.7419399999999999  0.74242  1.0000
  O   O23       1.0  0.59317  0.91627  0.49383999999999995  1.0000
  O   O24       1.0  0.70828  0.8449599999999999  0.46657  1.0000
  O   O25       1.0  0.81935  0.16223  0.32712  1.0000
  O   O26       1.0  0.9357  0.09043999999999999  0.30348  1.0000
  O   O27       1.0  0.7601600000000002  0.71648  0.57909  1.0000
  O   O28       1.0  0.69369  0.68668  0.49084999999999995  1.0000
  O   O29       1.0  0.76003  0.78098  0.2881  1.0000
  O   O30       1.0  0.62  0.72755  0.28775  1.0000
  O   O31       1.0  0.17173  0.33347  0.72729  1.0000
  O   O32       1.0  0.28589  0.25806  0.74242  1.0000
  O   O33       1.0  0.40683000000000014  0.08374  0.49383999999999995  1.0000
  O   O34       1.0  0.29172  0.15504999999999997  0.46657  1.0000
  O   O35       1.0  0.18065000000000003  0.8377699999999999  0.32712  1.0000
  O   O36       1.0  0.06431000000000002  0.90956  0.30346  1.0000
  O   O37       1.0  0.23985  0.28351  0.5791  1.0000
  O   O38       1.0  0.30631  0.31332  0.49084999999999995  1.0000
  O   O39       1.0  0.23996000000000003  0.21902999999999997  0.2881  1.0000
  O   O40       1.0  0.38  0.27246  0.28775  1.0000
