data_image0
_chemical_formula_structural       Co8H152C184N16O48
_chemical_formula_sum              "Co8 H152 C184 N16 O48"
_cell_length_a       13.7401
_cell_length_b       16.82524
_cell_length_c       25.348680000000005
_cell_angle_alpha    90.00196999999999
_cell_angle_beta     90.01356
_cell_angle_gamma    105.78166000000002

_symmetry_space_group_name_H-M    'P 1'
_symmetry_Int_Tables_number       1

loop_
  _symmetry_equiv_pos_as_xyz
  'x,y,z'

loop_
  _atom_site_type_symbol
  _atom_site_label
  _atom_site_symmetry_multiplicity
  _atom_site_fract_x
  _atom_site_fract_y
  _atom_site_fract_z
  _atom_site_occupancy
  Co  Co1       1.0  0.89233  0.90776  0.71812  1.0000
  Co  Co2       1.0  0.74944  0.73682  0.7533500000000002  1.0000
  Co  Co3       1.0  0.10777000000000005  0.59159  0.21784  1.0000
  Co  Co4       1.0  0.25013  0.76277  0.25322  1.0000
  Co  Co5       1.0  0.10765  0.09182  0.28226  1.0000
  Co  Co6       1.0  0.24998000000000004  0.26177  0.24665000000000006  1.0000
  Co  Co7       1.0  0.89232  0.4082  0.7822100000000001  1.0000
  Co  Co8       1.0  0.74977  0.23717  0.7467400000000001  1.0000
  H   H1        1.0  0.08244000000000001  0.31438  0.7207000000000002  1.0000
  H   H2        1.0  0.57333  0.8318  0.7932500000000001  1.0000
  H   H3        1.0  0.07342000000000003  0.0027200000000000006  0.7788300000000002  1.0000
  H   H4        1.0  0.17066  0.15024  0.7896400000000002  1.0000
  H   H5        1.0  0.96914  0.2112  0.6749300000000001  1.0000
  H   H6        1.0  0.8823100000000003  0.06252  0.66808  1.0000
  H   H7        1.0  0.14103  0.41948  0.77751  1.0000
  H   H8        1.0  0.24153000000000002  0.43417  0.73228  1.0000
  H   H9        1.0  0.36512  0.44959  0.80786  1.0000
  H   H10       1.0  0.26527  0.42892  0.85309  1.0000
  H   H11       1.0  0.21232  0.55323  0.8176500000000002  1.0000
  H   H12       1.0  0.31738  0.57524  0.7758800000000002  1.0000
  H   H13       1.0  0.43229000000000006  0.5952  0.85611  1.0000
  H   H14       1.0  0.32532  0.57232  0.8970800000000001  1.0000
  H   H15       1.0  0.27653  0.69698  0.8611600000000003  1.0000
  H   H16       1.0  0.39513999999999994  0.7225599999999999  0.8922500000000002  1.0000
  H   H17       1.0  0.4733500000000001  0.71711  0.7994400000000002  1.0000
  H   H18       1.0  0.35285  0.71536  0.7730300000000001  1.0000
  H   H19       1.0  0.43244999999999995  0.9948099999999999  0.7911900000000002  1.0000
  H   H20       1.0  0.52676  0.14119  0.7709500000000001  1.0000
  H   H21       1.0  0.80051  0.08365  0.7652800000000001  1.0000
  H   H22       1.0  0.71954  0.93589  0.78467  1.0000
  H   H23       1.0  0.040379999999999985  0.85234  0.89543  1.0000
  H   H24       1.0  0.01933000000000002  0.86137  0.99297  1.0000
  H   H25       1.0  0.73144  0.91099  0.96853  1.0000
  H   H26       1.0  0.7506000000000002  0.89697  0.87083  1.0000
  H   H27       1.0  0.022379999999999962  0.96904  0.09421000000000002  1.0000
  H   H28       1.0  0.11350000000000007  0.89557  0.15516  1.0000
  H   H29       1.0  0.8991500000000001  0.66443  0.11848  1.0000
  H   H30       1.0  0.80841  0.7377  0.05721000000000001  1.0000
  H   H31       1.0  0.8245200000000003  0.63715  0.9101500000000002  1.0000
  H   H32       1.0  0.79037  0.58542  0.0029700000000000004  1.0000
  H   H33       1.0  0.52003  0.66788  0.00508  1.0000
  H   H34       1.0  0.5531699999999999  0.7162299999999999  0.91185  1.0000
  H   H35       1.0  0.6433  0.72531  0.11475000000000002  1.0000
  H   H36       1.0  0.50015  0.74576  0.16967000000000002  1.0000
  H   H37       1.0  0.31985  0.5034  0.12663000000000002  1.0000
  H   H38       1.0  0.4623400000000001  0.48307  0.07147000000000002  1.0000
  H   H39       1.0  0.91735  0.18543  0.22072000000000006  1.0000
  H   H40       1.0  0.4264500000000001  0.66796  0.29350000000000004  1.0000
  H   H41       1.0  0.92661  0.49711000000000005  0.27875  1.0000
  H   H42       1.0  0.82921  0.34962  0.2896  1.0000
  H   H43       1.0  0.03057  0.28838  0.17491  1.0000
  H   H44       1.0  0.11762999999999998  0.43703  0.16810000000000005  1.0000
  H   H45       1.0  0.85886  0.08042  0.27754000000000006  1.0000
  H   H46       1.0  0.7583700000000001  0.06571  0.23230000000000003  1.0000
  H   H47       1.0  0.63481  0.05031  0.3078600000000001  1.0000
  H   H48       1.0  0.73471  0.07099  0.35311  1.0000
  H   H49       1.0  0.78763  0.94667  0.31768000000000013  1.0000
  H   H50       1.0  0.68254  0.92465  0.2759  1.0000
  H   H51       1.0  0.5677  0.90473  0.35612  1.0000
  H   H52       1.0  0.6746700000000001  0.92761  0.3971000000000001  1.0000
  H   H53       1.0  0.72345  0.80296  0.3611600000000001  1.0000
  H   H54       1.0  0.60491  0.77736  0.3922700000000001  1.0000
  H   H55       1.0  0.52654  0.7828  0.29946  1.0000
  H   H56       1.0  0.64699  0.78456  0.27305000000000007  1.0000
  H   H57       1.0  0.56744  0.50502  0.29114  1.0000
  H   H58       1.0  0.47343  0.35869  0.27081000000000005  1.0000
  H   H59       1.0  0.19947000000000004  0.41597  0.2650600000000001  1.0000
  H   H60       1.0  0.28022  0.5636199999999998  0.28464  1.0000
  H   H61       1.0  0.95889  0.64753  0.39539000000000013  1.0000
  H   H62       1.0  0.98032  0.63876  0.49294000000000004  1.0000
  H   H63       1.0  0.26811  0.58898  0.4683400000000001  1.0000
  H   H64       1.0  0.24849  0.60273  0.37063000000000007  1.0000
  H   H65       1.0  0.97789  0.53007  0.5936200000000001  1.0000
  H   H66       1.0  0.88589  0.60203  0.6550500000000001  1.0000
  H   H67       1.0  0.09913  0.83434  0.6196800000000001  1.0000
  H   H68       1.0  0.19040000000000004  0.76251  0.5577700000000001  1.0000
  H   H69       1.0  0.17538000000000004  0.86263  0.41015000000000007  1.0000
  H   H70       1.0  0.20984999999999995  0.91442  0.5029400000000002  1.0000
  H   H71       1.0  0.48025  0.832  0.50492  1.0000
  H   H72       1.0  0.44663  0.78343  0.4117100000000001  1.0000
  H   H73       1.0  0.35695  0.77453  0.61473  1.0000
  H   H74       1.0  0.49984  0.7541599999999998  0.66989  1.0000
  H   H75       1.0  0.6803899999999999  0.9963399999999999  0.62686  1.0000
  H   H76       1.0  0.53808  0.01674  0.5715100000000001  1.0000
  H   H77       1.0  0.9175  0.68546  0.27924  1.0000
  H   H78       1.0  0.42637  0.16793  0.20632000000000006  1.0000
  H   H79       1.0  0.92659  0.99713  0.22125000000000003  1.0000
  H   H80       1.0  0.82924  0.84964  0.21035000000000006  1.0000
  H   H81       1.0  0.030670000000000017  0.78842  0.32508  1.0000
  H   H82       1.0  0.11761999999999999  0.93713  0.33194  1.0000
  H   H83       1.0  0.85889  0.58045  0.22246  1.0000
  H   H84       1.0  0.75846  0.56577  0.2677  1.0000
  H   H85       1.0  0.6348  0.55031  0.19214  1.0000
  H   H86       1.0  0.7346600000000001  0.57096  0.1469  1.0000
  H   H87       1.0  0.7876  0.44666  0.18236  1.0000
  H   H88       1.0  0.68256  0.42467  0.22413000000000005  1.0000
  H   H89       1.0  0.56765  0.40476  0.14388  1.0000
  H   H90       1.0  0.67461  0.42757  0.10293  1.0000
  H   H91       1.0  0.72333  0.3029  0.13894  1.0000
  H   H92       1.0  0.60484  0.2773499999999999  0.10774000000000003  1.0000
  H   H93       1.0  0.5262299999999999  0.28266  0.20048000000000002  1.0000
  H   H94       1.0  0.64669  0.28457  0.22701  1.0000
  H   H95       1.0  0.56736  0.00497  0.20883000000000004  1.0000
  H   H96       1.0  0.47299  0.85859  0.22902000000000003  1.0000
  H   H97       1.0  0.19928999999999988  0.9162399999999998  0.23468  1.0000
  H   H98       1.0  0.28031  0.06395  0.21528  1.0000
  H   H99       1.0  0.9589200000000002  0.1476  0.10451000000000003  1.0000
  H   H100      1.0  0.98045  0.13878  0.006980000000000001  1.0000
  H   H101      1.0  0.26824  0.08892  0.03180000000000001  1.0000
  H   H102      1.0  0.24842  0.10273  0.12947  1.0000
  H   H103      1.0  0.97767  0.03075  0.9058300000000002  1.0000
  H   H104      1.0  0.88623  0.10406  0.84496  1.0000
  H   H105      1.0  0.1006  0.33536  0.8814900000000002  1.0000
  H   H106      1.0  0.19155  0.26218  0.94266  1.0000
  H   H107      1.0  0.17502  0.36242  0.08985000000000003  1.0000
  H   H108      1.0  0.20991  0.41464  0.9971600000000003  1.0000
  H   H109      1.0  0.48019  0.33212  0.9953500000000001  1.0000
  H   H110      1.0  0.44603  0.28283  0.08836000000000002  1.0000
  H   H111      1.0  0.3568  0.27458  0.88538  1.0000
  H   H112      1.0  0.4996  0.2542  0.8302400000000002  1.0000
  H   H113      1.0  0.68018  0.49649000000000004  0.87325  1.0000
  H   H114      1.0  0.53789  0.5168  0.9285900000000002  1.0000
  H   H115      1.0  0.08259  0.81458  0.77932  1.0000
  H   H116      1.0  0.57301  0.33138  0.7065900000000002  1.0000
  H   H117      1.0  0.07339000000000001  0.50289  0.72129  1.0000
  H   H118      1.0  0.17085  0.65039  0.7105100000000001  1.0000
  H   H119      1.0  0.9693399999999999  0.71158  0.82512  1.0000
  H   H120      1.0  0.88233  0.56289  0.8319200000000002  1.0000
  H   H121      1.0  0.14111999999999994  0.9195299999999997  0.72252  1.0000
  H   H122      1.0  0.24168000000000006  0.93429  0.7677300000000002  1.0000
  H   H123      1.0  0.36515  0.94959  0.6921500000000002  1.0000
  H   H124      1.0  0.26523999999999986  0.9288499999999997  0.6469100000000002  1.0000
  H   H125      1.0  0.21232  0.05319999999999998  0.6823300000000002  1.0000
  H   H126      1.0  0.31746  0.07526  0.7240600000000003  1.0000
  H   H127      1.0  0.43222  0.09517  0.6438500000000001  1.0000
  H   H128      1.0  0.32524  0.07215  0.6028600000000001  1.0000
  H   H129      1.0  0.27631  0.1968  0.6387100000000002  1.0000
  H   H130      1.0  0.39501000000000003  0.22249  0.6077200000000001  1.0000
  H   H131      1.0  0.47298  0.21687  0.7005800000000001  1.0000
  H   H132      1.0  0.35243  0.2151  0.7269200000000001  1.0000
  H   H133      1.0  0.43207  0.49427  0.7086100000000001  1.0000
  H   H134      1.0  0.52626  0.64058  0.72916  1.0000
  H   H135      1.0  0.79996  0.58297  0.73506  1.0000
  H   H136      1.0  0.71907  0.43536  0.71535  1.0000
  H   H137      1.0  0.04099  0.35232  0.6045600000000001  1.0000
  H   H138      1.0  0.019529999999999995  0.3612  0.50703  1.0000
  H   H139      1.0  0.7317300000000001  0.41099  0.5317100000000001  1.0000
  H   H140      1.0  0.75145  0.39711  0.6293900000000002  1.0000
  H   H141      1.0  0.022369999999999998  0.46928  0.4058500000000001  1.0000
  H   H142      1.0  0.11382  0.39603  0.3449800000000001  1.0000
  H   H143      1.0  0.89952  0.16466  0.3814600000000001  1.0000
  H   H144      1.0  0.8085500000000002  0.23778  0.44262000000000007  1.0000
  H   H145      1.0  0.82472  0.13731  0.58993  1.0000
  H   H146      1.0  0.79042  0.08555  0.49709  1.0000
  H   H147      1.0  0.52001  0.16793  0.49501  1.0000
  H   H148      1.0  0.55338  0.21638  0.58826  1.0000
  H   H149      1.0  0.6432800000000001  0.22530999999999995  0.3853400000000001  1.0000
  H   H150      1.0  0.50022  0.24569  0.33031  1.0000
  H   H151      1.0  0.31983  0.00338  0.37337000000000004  1.0000
  H   H152      1.0  0.46232  0.98309  0.42863  1.0000
  C   C1        1.0  0.054650000000000004  0.05099  0.7557700000000003  1.0000
  C   C2        1.0  0.10865  0.13278  0.76179  1.0000
  C   C3        1.0  0.07924  0.1937  0.73268  1.0000
  C   C4        1.0  0.99714  0.16715  0.6975300000000002  1.0000
  C   C5        1.0  0.94766  0.08416  0.69374  1.0000
  C   C6        1.0  0.20346999999999996  0.3178199999999999  0.7700500000000002  1.0000
  C   C7        1.0  0.2165  0.41006  0.7719000000000003  1.0000
  C   C8        1.0  0.28885  0.4566499999999999  0.81431  1.0000
  C   C9        1.0  0.29027  0.54818  0.81449  1.0000
  C   C10       1.0  0.35387  0.59938  0.85869  1.0000
  C   C11       1.0  0.35384  0.69083  0.85767  1.0000
  C   C12       1.0  0.40338000000000007  0.73467  0.8071500000000003  1.0000
  C   C13       1.0  0.42520000000000013  0.8278  0.8093300000000002  1.0000
  C   C14       1.0  0.56818  0.95241  0.7890600000000002  1.0000
  C   C15       1.0  0.51372  0.01218  0.78554  1.0000
  C   C16       1.0  0.56633  0.09352  0.7746500000000002  1.0000
  C   C17       1.0  0.71933  0.06147  0.7714  1.0000
  C   C18       1.0  0.67366  0.97926  0.7820700000000003  1.0000
  C   C19       1.0  0.91448  0.87067  0.8200000000000001  1.0000
  C   C20       1.0  0.89693  0.87352  0.8772600000000002  1.0000
  C   C21       1.0  0.97229  0.86354  0.9119900000000002  1.0000
  C   C22       1.0  0.961  0.86931  0.9661900000000002  1.0000
  C   C23       1.0  0.87382  0.88694  0.98598  1.0000
  C   C24       1.0  0.79816  0.8976999999999998  0.9518700000000002  1.0000
  C   C25       1.0  0.80935  0.88999  0.8977400000000002  1.0000
  C   C26       1.0  0.9108000000000002  0.85671  0.07327  1.0000
  C   C27       1.0  0.9957700000000002  0.90273  0.10041  1.0000
  C   C28       1.0  0.04609000000000001  0.86165  0.13409000000000001  1.0000
  C   C29       1.0  0.011719999999999954  0.7756899999999999  0.14042  1.0000
  C   C30       1.0  0.92535  0.7309  0.113  1.0000
  C   C31       1.0  0.87451  0.77129  0.07939000000000002  1.0000
  C   C32       1.0  0.06638999999999999  0.73162  0.17549  1.0000
  C   C33       1.0  0.70728  0.7044  0.84882  1.0000
  C   C34       1.0  0.6900700000000001  0.67872  0.90481  1.0000
  C   C35       1.0  0.7577  0.64289  0.9311  1.0000
  C   C36       1.0  0.73934  0.61448  0.98263  1.0000
  C   C37       1.0  0.65293  0.6229799999999998  0.00903  1.0000
  C   C38       1.0  0.5862  0.66094  0.9841100000000003  1.0000
  C   C39       1.0  0.60509  0.68799  0.93213  1.0000
  C   C40       1.0  0.55844  0.60418  0.08927000000000002  1.0000
  C   C41       1.0  0.57151  0.67809  0.11685000000000001  1.0000
  C   C42       1.0  0.49224999999999997  0.6888199999999998  0.14779000000000003  1.0000
  C   C43       1.0  0.40065  0.62645  0.15091000000000002  1.0000
  C   C44       1.0  0.39018  0.55203  0.12358  1.0000
  C   C45       1.0  0.46921000000000007  0.54044  0.09273000000000002  1.0000
  C   C46       1.0  0.31537  0.63945  0.1829  1.0000
  C   C47       1.0  0.94533  0.44879  0.25574  1.0000
  C   C48       1.0  0.8912500000000001  0.36703  0.26177000000000006  1.0000
  C   C49       1.0  0.92059  0.30608  0.23266  1.0000
  C   C50       1.0  0.002669999999999999  0.3325  0.19751000000000005  1.0000
  C   C51       1.0  0.05224999999999999  0.41544  0.19373  1.0000
  C   C52       1.0  0.79642  0.18205  0.2700600000000001  1.0000
  C   C53       1.0  0.7833800000000002  0.08984  0.27193  1.0000
  C   C54       1.0  0.71108  0.04325  0.31433000000000005  1.0000
  C   C55       1.0  0.70968  0.95173  0.31451  1.0000
  C   C56       1.0  0.6461099999999999  0.9005399999999999  0.3587000000000001  1.0000
  C   C57       1.0  0.6461300000000001  0.80909  0.35768  1.0000
  C   C58       1.0  0.59649  0.76522  0.30717  1.0000
  C   C59       1.0  0.57469  0.67207  0.30933000000000005  1.0000
  C   C60       1.0  0.43169  0.54736  0.28901000000000004  1.0000
  C   C61       1.0  0.48619  0.48761  0.28542  1.0000
  C   C62       1.0  0.43367  0.40625  0.27444  1.0000
  C   C63       1.0  0.28066  0.43813  0.27118000000000003  1.0000
  C   C64       1.0  0.32621  0.52035  0.28198  1.0000
  C   C65       1.0  0.08516  0.62924  0.31979000000000013  1.0000
  C   C66       1.0  0.10236999999999993  0.6262699999999998  0.37709  1.0000
  C   C67       1.0  0.02709999999999997  0.63637  0.41185000000000005  1.0000
  C   C68       1.0  0.03851999999999999  0.63076  0.4660800000000001  1.0000
  C   C69       1.0  0.12578000000000006  0.6132  0.4858500000000001  1.0000
  C   C70       1.0  0.20133000000000006  0.60228  0.45174000000000003  1.0000
  C   C71       1.0  0.18995  0.60984  0.3976  1.0000
  C   C72       1.0  0.08867000000000003  0.64298  0.5732300000000001  1.0000
  C   C73       1.0  0.003839999999999999  0.59631  0.60014  1.0000
  C   C74       1.0  0.9531400000000001  0.63658  0.6341300000000001  1.0000
  C   C75       1.0  0.9871400000000001  0.72246  0.64099  1.0000
  C   C76       1.0  0.07329  0.76795  0.6137500000000001  1.0000
  C   C77       1.0  0.12438000000000002  0.72836  0.5797600000000002  1.0000
  C   C78       1.0  0.93252  0.76582  0.67651  1.0000
  C   C79       1.0  0.29272  0.79525  0.34877000000000014  1.0000
  C   C80       1.0  0.30986  0.82098  0.40476  1.0000
  C   C81       1.0  0.24225000000000002  0.8568299999999999  0.43106000000000005  1.0000
  C   C82       1.0  0.26077000000000006  0.88528  0.48259  1.0000
  C   C83       1.0  0.34722  0.87677  0.50897  1.0000
  C   C84       1.0  0.4139299999999999  0.8388399999999998  0.4840300000000001  1.0000
  C   C85       1.0  0.39485  0.81171  0.43207  1.0000
  C   C86       1.0  0.44181000000000004  0.89567  0.58924  1.0000
  C   C87       1.0  0.42868  0.82178  0.61687  1.0000
  C   C88       1.0  0.50775  0.81109  0.64799  1.0000
  C   C89       1.0  0.5993400000000001  0.87346  0.6511200000000001  1.0000
  C   C90       1.0  0.6099300000000001  0.94785  0.62377  1.0000
  C   C91       1.0  0.53106  0.95938  0.5927800000000001  1.0000
  C   C92       1.0  0.68475  0.86041  0.68293  1.0000
  C   C93       1.0  0.9453100000000001  0.94881  0.24428000000000005  1.0000
  C   C94       1.0  0.89128  0.86704  0.23820000000000005  1.0000
  C   C95       1.0  0.92067  0.8061  0.26731  1.0000
  C   C96       1.0  0.0027500000000000046  0.83254  0.30248  1.0000
  C   C97       1.0  0.052250000000000026  0.91551  0.30630000000000007  1.0000
  C   C98       1.0  0.79645  0.68207  0.22991000000000006  1.0000
  C   C99       1.0  0.78341  0.58986  0.22807000000000005  1.0000
  C   C100      1.0  0.71107  0.54325  0.18568000000000007  1.0000
  C   C101      1.0  0.7096500000000001  0.45172  0.18552000000000005  1.0000
  C   C102      1.0  0.64604  0.40052  0.14132000000000003  1.0000
  C   C103      1.0  0.64601  0.30907  0.14235  1.0000
  C   C104      1.0  0.5963  0.2652  0.19283000000000006  1.0000
  C   C105      1.0  0.57464  0.17207  0.19065  1.0000
  C   C106      1.0  0.43167  0.04741  0.21093000000000006  1.0000
  C   C107      1.0  0.48608999999999997  0.98762  0.21448000000000006  1.0000
  C   C108      1.0  0.43345  0.90629  0.22536000000000006  1.0000
  C   C109      1.0  0.2804699999999999  0.93839  0.22858000000000006  1.0000
  C   C110      1.0  0.32618  0.02058  0.21789000000000006  1.0000
  C   C111      1.0  0.08507  0.12902  0.18016000000000004  1.0000
  C   C112      1.0  0.10235  0.12617  0.12287000000000002  1.0000
  C   C113      1.0  0.027079999999999993  0.13631  0.08810000000000003  1.0000
  C   C114      1.0  0.038540000000000005  0.13065  0.03388000000000001  1.0000
  C   C115      1.0  0.12576000000000007  0.11299  0.014140000000000003  1.0000
  C   C116      1.0  0.20133000000000006  0.10211  0.04829000000000001  1.0000
  C   C117      1.0  0.18989999999999999  0.1097  0.10242000000000001  1.0000
  C   C118      1.0  0.08897  0.14319  0.9268000000000002  1.0000
  C   C119      1.0  0.004019999999999999  0.09708  0.8996900000000002  1.0000
  C   C120      1.0  0.95369  0.13807  0.8659600000000002  1.0000
  C   C121      1.0  0.9881  0.22402  0.85956  1.0000
  C   C122      1.0  0.07443  0.26889  0.8869700000000001  1.0000
  C   C123      1.0  0.12527  0.22859  0.9206200000000002  1.0000
  C   C124      1.0  0.93352  0.2681  0.8245  1.0000
  C   C125      1.0  0.29144  0.2942  0.15115000000000003  1.0000
  C   C126      1.0  0.30921  0.3204  0.09528000000000003  1.0000
  C   C127      1.0  0.24189000000000002  0.3566  0.06898000000000001  1.0000
  C   C128      1.0  0.26064  0.3853  0.01752  1.0000
  C   C129      1.0  0.34712  0.37677  0.9912000000000002  1.0000
  C   C130      1.0  0.41372  0.33874  0.016170000000000004  1.0000
  C   C131      1.0  0.39434  0.31127  0.06805  1.0000
  C   C132      1.0  0.44173  0.3957  0.91092  1.0000
  C   C133      1.0  0.42854  0.32182  0.8832700000000001  1.0000
  C   C134      1.0  0.5076100000000001  0.31114  0.8521500000000002  1.0000
  C   C135      1.0  0.5992  0.37352  0.84898  1.0000
  C   C136      1.0  0.6098  0.44792  0.8763400000000001  1.0000
  C   C137      1.0  0.53094  0.45942  0.90734  1.0000
  C   C138      1.0  0.68451  0.36052  0.8170600000000001  1.0000
  C   C139      1.0  0.05469  0.55122  0.7443200000000002  1.0000
  C   C140      1.0  0.10878  0.63298  0.7383200000000002  1.0000
  C   C141      1.0  0.07941999999999999  0.69392  0.7674300000000002  1.0000
  C   C142      1.0  0.99728  0.66746  0.80254  1.0000
  C   C143      1.0  0.94772  0.5845  0.8063  1.0000
  C   C144      1.0  0.20354  0.81793  0.7299900000000001  1.0000
  C   C145      1.0  0.21661  0.91013  0.72811  1.0000
  C   C146      1.0  0.28887  0.95663  0.6856800000000002  1.0000
  C   C147      1.0  0.29027  0.04814  0.68547  1.0000
  C   C148      1.0  0.35377  0.09927  0.6412400000000001  1.0000
  C   C149      1.0  0.35362  0.19066  0.6422400000000003  1.0000
  C   C150      1.0  0.4030000000000001  0.23441  0.69282  1.0000
  C   C151      1.0  0.42489000000000005  0.3275  0.6906000000000002  1.0000
  C   C152      1.0  0.5678  0.45195  0.71089  1.0000
  C   C153      1.0  0.5133  0.51168  0.7144000000000003  1.0000
  C   C154      1.0  0.5658799999999998  0.59296  0.7254800000000001  1.0000
  C   C155      1.0  0.71882  0.56089  0.72887  1.0000
  C   C156      1.0  0.6732300000000002  0.47875  0.7179900000000002  1.0000
  C   C157      1.0  0.91475  0.3707499999999999  0.6801500000000003  1.0000
  C   C158      1.0  0.89747  0.37358  0.6228500000000001  1.0000
  C   C159      1.0  0.97281  0.36354  0.58811  1.0000
  C   C160      1.0  0.96139  0.36924  0.5339  1.0000
  C   C161      1.0  0.8741900000000002  0.3869  0.51413  1.0000
  C   C162      1.0  0.79858  0.39773  0.54824  1.0000
  C   C163      1.0  0.80995  0.39008  0.60236  1.0000
  C   C164      1.0  0.9111000000000001  0.35681  0.4268000000000001  1.0000
  C   C165      1.0  0.99603  0.40294  0.3997000000000001  1.0000
  C   C166      1.0  0.04637000000000001  0.36198  0.3659600000000001  1.0000
  C   C167      1.0  0.012010000000000007  0.27603  0.35955  1.0000
  C   C168      1.0  0.92568  0.23114  0.3869300000000001  1.0000
  C   C169      1.0  0.87482  0.2714  0.42060000000000003  1.0000
  C   C170      1.0  0.06657  0.23193  0.32448  1.0000
  C   C171      1.0  0.70733  0.20444  0.65127  1.0000
  C   C172      1.0  0.69016  0.17877  0.5952900000000001  1.0000
  C   C173      1.0  0.7578500000000002  0.14302  0.56899  1.0000
  C   C174      1.0  0.7394700000000001  0.11466  0.5174400000000001  1.0000
  C   C175      1.0  0.65299  0.12313  0.49106000000000005  1.0000
  C   C176      1.0  0.58627  0.16109  0.5159600000000001  1.0000
  C   C177      1.0  0.6052  0.18809  0.56795  1.0000
  C   C178      1.0  0.55845  0.10419  0.41081000000000006  1.0000
  C   C179      1.0  0.5715  0.17809  0.3832300000000001  1.0000
  C   C180      1.0  0.4923  0.18875  0.35221000000000013  1.0000
  C   C181      1.0  0.40073  0.12634  0.3491100000000001  1.0000
  C   C182      1.0  0.39023  0.05195  0.37645  1.0000
  C   C183      1.0  0.46922  0.04045  0.40737  1.0000
  C   C184      1.0  0.31547  0.1393  0.31712  1.0000
  N   N1        1.0  0.97465  0.02532  0.7225500000000002  1.0000
  N   N2        1.0  0.12203  0.27751  0.7383700000000002  1.0000
  N   N3        1.0  0.52538  0.86851  0.79733  1.0000
  N   N4        1.0  0.66759  0.11917  0.7676600000000001  1.0000
  N   N5        1.0  0.02533999999999998  0.4743  0.22253  1.0000
  N   N6        1.0  0.87776  0.2223  0.23836  1.0000
  N   N7        1.0  0.47447  0.63126  0.29738  1.0000
  N   N8        1.0  0.33243  0.38044  0.26737000000000005  1.0000
  N   N9        1.0  0.025270000000000018  0.97437  0.27752  1.0000
  N   N10       1.0  0.87788  0.72232  0.26159  1.0000
  N   N11       1.0  0.47446  0.13128  0.20258000000000007  1.0000
  N   N12       1.0  0.3322  0.88068  0.23235000000000006  1.0000
  N   N13       1.0  0.9746700000000001  0.52565  0.77751  1.0000
  N   N14       1.0  0.12224999999999997  0.7777  0.76174  1.0000
  N   N15       1.0  0.52511  0.36811  0.7024500000000002  1.0000
  N   N16       1.0  0.66707  0.61859  0.7326500000000001  1.0000
  O   O1        1.0  0.25709  0.28170999999999996  0.7937400000000002  1.0000
  O   O2        1.0  0.36169  0.86477  0.82009  1.0000
  O   O3        1.0  0.83809  0.86945  0.78833  1.0000
  O   O4        1.0  0.0004499999999999837  0.87331  0.8018200000000002  1.0000
  O   O5        1.0  0.8592800000000003  0.89688  0.03929  1.0000
  O   O6        1.0  0.03725999999999999  0.65221  0.17460000000000006  1.0000
  O   O7        1.0  0.13832000000000005  0.77411  0.20389000000000004  1.0000
  O   O8        1.0  0.64284  0.73096  0.8230200000000002  1.0000
  O   O9        1.0  0.7888400000000001  0.69868  0.8256200000000002  1.0000
  O   O10       1.0  0.6389900000000001  0.59135  0.05959  1.0000
  O   O11       1.0  0.22857  0.58717  0.17731000000000002  1.0000
  O   O12       1.0  0.33451  0.70173  0.21408  1.0000
  O   O13       1.0  0.7428100000000001  0.21824  0.29376  1.0000
  O   O14       1.0  0.63831  0.6351899999999999  0.32006  1.0000
  O   O15       1.0  0.16165  0.63045  0.28820000000000007  1.0000
  O   O16       1.0  0.99929  0.62681  0.30159  1.0000
  O   O17       1.0  0.14055  0.60333  0.53914  1.0000
  O   O18       1.0  0.9627500000000001  0.8451699999999998  0.6767700000000001  1.0000
  O   O19       1.0  0.8596  0.7227599999999997  0.7040500000000002  1.0000
  O   O20       1.0  0.35715  0.76869  0.32299000000000005  1.0000
  O   O21       1.0  0.21119  0.80107  0.32557000000000014  1.0000
  O   O22       1.0  0.36131  0.90855  0.5595000000000001  1.0000
  O   O23       1.0  0.77159  0.91269  0.6773500000000001  1.0000
  O   O24       1.0  0.66563  0.79795  0.71395  1.0000
  O   O25       1.0  0.7428  0.71822  0.20624  1.0000
  O   O26       1.0  0.6383  0.13521  0.17995  1.0000
  O   O27       1.0  0.16148  0.13007  0.21183  1.0000
  O   O28       1.0  0.9992500000000001  0.12674  0.19832  1.0000
  O   O29       1.0  0.14051  0.10315  0.96085  1.0000
  O   O30       1.0  0.9627  0.34749999999999986  0.8254500000000002  1.0000
  O   O31       1.0  0.8616  0.22574  0.7960500000000003  1.0000
  O   O32       1.0  0.35493  0.26629  0.17688000000000004  1.0000
  O   O33       1.0  0.21041  0.30097  0.17439  1.0000
  O   O34       1.0  0.36133000000000004  0.40864  0.9407200000000002  1.0000
  O   O35       1.0  0.77134  0.41278  0.8226600000000001  1.0000
  O   O36       1.0  0.66534  0.29818  0.7859300000000002  1.0000
  O   O37       1.0  0.25713  0.78175  0.70627  1.0000
  O   O38       1.0  0.36144  0.36458  0.6799000000000002  1.0000
  O   O39       1.0  0.83834  0.36955  0.7117900000000001  1.0000
  O   O40       1.0  0.0006599999999999998  0.37324  0.69832  1.0000
  O   O41       1.0  0.85959  0.39685  0.46083000000000013  1.0000
  O   O42       1.0  0.03732  0.15253  0.32544  1.0000
  O   O43       1.0  0.13852  0.27423  0.29604  1.0000
  O   O44       1.0  0.64281  0.23086  0.6770800000000002  1.0000
  O   O45       1.0  0.78898  0.19881  0.67444  1.0000
  O   O46       1.0  0.6389900000000001  0.09137  0.44053  1.0000
  O   O47       1.0  0.22857  0.08719  0.32270000000000004  1.0000
  O   O48       1.0  0.33482  0.20159  0.28596000000000005  1.0000
