data_image0
_chemical_formula_structural       Zn28H96C176N24O96
_chemical_formula_sum              "Zn28 H96 C176 N24 O96"
_cell_length_a       17.57
_cell_length_b       25.448089999999997
_cell_length_c       26.92734
_cell_angle_alpha    89.89505999999999
_cell_angle_beta     89.98514
_cell_angle_gamma    90.02072

_symmetry_space_group_name_H-M    'P 1'
_symmetry_Int_Tables_number       1

loop_
  _symmetry_equiv_pos_as_xyz
  'x,y,z'

loop_
  _atom_site_type_symbol
  _atom_site_label
  _atom_site_symmetry_multiplicity
  _atom_site_fract_x
  _atom_site_fract_y
  _atom_site_fract_z
  _atom_site_occupancy
  Zn  Zn1       1.0  0.77057  0.92784  0.84639  1.0000
  Zn  Zn2       1.0  0.28241  0.27748  0.79921  1.0000
  Zn  Zn3       1.0  0.43651  0.21055  0.83665  1.0000
  Zn  Zn4       1.0  0.9352999999999999  0.27876  0.9607  1.0000
  Zn  Zn5       1.0  0.8917899999999997  0.9533800000000001  0.90056  1.0000
  Zn  Zn6       1.0  0.77866  0.3503  0.92567  1.0000
  Zn  Zn7       1.0  0.3544  0.6072000000000001  0.85638  1.0000
  Zn  Zn8       1.0  0.27039  0.07213  0.15353  1.0000
  Zn  Zn9       1.0  0.7824299999999997  0.7227800000000001  0.20076  1.0000
  Zn  Zn10      1.0  0.9366199999999999  0.78939  0.16345  1.0000
  Zn  Zn11      1.0  0.43625  0.72131  0.03929  1.0000
  Zn  Zn12      1.0  0.3914799999999999  0.04665  0.09921  1.0000
  Zn  Zn13      1.0  0.27863  0.64968  0.07432  1.0000
  Zn  Zn14      1.0  0.8541  0.3927  0.1437  1.0000
  Zn  Zn15      1.0  0.7704499999999997  0.42915  0.65166  1.0000
  Zn  Zn16      1.0  0.28236999999999995  0.77712  0.70059  1.0000
  Zn  Zn17      1.0  0.43667  0.71065  0.6634100000000002  1.0000
  Zn  Zn18      1.0  0.93685  0.77912  0.53908  1.0000
  Zn  Zn19      1.0  0.8919999999999998  0.45351  0.59884  1.0000
  Zn  Zn20      1.0  0.77853  0.85041  0.57388  1.0000
  Zn  Zn21      1.0  0.35435  0.10729  0.6439100000000001  1.0000
  Zn  Zn22      1.0  0.27034  0.5707500000000001  0.34823999999999994  1.0000
  Zn  Zn23      1.0  0.78241  0.22151  0.29914  1.0000
  Zn  Zn24      1.0  0.93606  0.2893  0.3365  1.0000
  Zn  Zn25      1.0  0.4366099999999999  0.22088  0.46078  1.0000
  Zn  Zn26      1.0  0.39198  0.54641  0.40107  1.0000
  Zn  Zn27      1.0  0.27851  0.14959  0.42625  1.0000
  Zn  Zn28      1.0  0.85421  0.89273  0.35613  1.0000
  H   H1        1.0  0.3664  0.43385  0.83244  1.0000
  H   H2        1.0  0.57111  0.5034  0.89239  1.0000
  H   H3        1.0  0.5582  0.33636  0.8701  1.0000
  H   H4        1.0  0.16102  0.24333  0.92057  1.0000
  H   H5        1.0  0.14105  0.16675  0.062  1.0000
  H   H6        1.0  0.34866  0.15187  0.97576  1.0000
  H   H7        1.0  0.06165999999999999  0.3204800000000001  0.8437  1.0000
  H   H8        1.0  0.86426  0.39729  0.7839400000000001  1.0000
  H   H9        1.0  0.06804  0.3794  0.69425  1.0000
  H   H10       1.0  0.8542999999999997  0.12388000000000002  0.91735  1.0000
  H   H11       1.0  0.64134  0.05925000000000001  0.86337  1.0000
  H   H12       1.0  0.66177  0.22447000000000003  0.8907700000000001  1.0000
  H   H13       1.0  0.22835  0.25992  0.68918  1.0000
  H   H14       1.0  0.25869  0.21721  0.63999  1.0000
  H   H15       1.0  0.19028999999999993  0.19513  0.68385  1.0000
  H   H16       1.0  0.47148  0.10547000000000002  0.78709  1.0000
  H   H17       1.0  0.41991  0.06767  0.7424100000000001  1.0000
  H   H18       1.0  0.49534999999999996  0.10865  0.72225  1.0000
  H   H19       1.0  0.6851999999999998  0.4081  0.054220000000000004  1.0000
  H   H20       1.0  0.75729  0.45691  0.05825  1.0000
  H   H21       1.0  0.7239599999999999  0.43582  0.99867  1.0000
  H   H22       1.0  0.9638999999999999  0.26356  0.07072  1.0000
  H   H23       1.0  0.9898099999999999  0.32479  0.09861  1.0000
  H   H24       1.0  0.91624  0.28603  0.12543  1.0000
  H   H25       1.0  0.8657599999999999  0.56636  0.1679  1.0000
  H   H26       1.0  0.06992  0.49637000000000003  0.10781  1.0000
  H   H27       1.0  0.05794  0.66354  0.13019  1.0000
  H   H28       1.0  0.66075  0.75764  0.07957  1.0000
  H   H29       1.0  0.64234  0.83338  0.93779  1.0000
  H   H30       1.0  0.84984  0.84772  0.02417  1.0000
  H   H31       1.0  0.56174  0.6795200000000001  0.15627  1.0000
  H   H32       1.0  0.36426999999999987  0.60267  0.21614  1.0000
  H   H33       1.0  0.56801  0.6207200000000002  0.30575  1.0000
  H   H34       1.0  0.35405  0.87635  0.08258  1.0000
  H   H35       1.0  0.14134  0.93979  0.13821  1.0000
  H   H36       1.0  0.16275999999999996  0.77478  0.11003  1.0000
  H   H37       1.0  0.7284099999999999  0.7398400000000002  0.31050000000000005  1.0000
  H   H38       1.0  0.75869  0.78232  0.35987  1.0000
  H   H39       1.0  0.6901799999999999  0.80454  0.31618  1.0000
  H   H40       1.0  0.9731899999999999  0.8944900000000001  0.21418  1.0000
  H   H41       1.0  0.92014  0.93237  0.25811  1.0000
  H   H42       1.0  0.99485  0.8914800000000002  0.27938  1.0000
  H   H43       1.0  0.18546  0.59243  0.94621  1.0000
  H   H44       1.0  0.25718  0.5434  0.94186  1.0000
  H   H45       1.0  0.22439999999999993  0.5645  0.00158  1.0000
  H   H46       1.0  0.46533  0.73614  0.92912  1.0000
  H   H47       1.0  0.49005  0.6750400000000001  0.90053  1.0000
  H   H48       1.0  0.4164999999999999  0.71444  0.87462  1.0000
  H   H49       1.0  0.3661  0.93361  0.66807  1.0000
  H   H50       1.0  0.5698  0.0035  0.60672  1.0000
  H   H51       1.0  0.55795  0.83648  0.6298700000000002  1.0000
  H   H52       1.0  0.16095  0.74242  0.57945  1.0000
  H   H53       1.0  0.14247999999999994  0.66649  0.43805  1.0000
  H   H54       1.0  0.34979  0.65197  0.52462  1.0000
  H   H55       1.0  0.06427  0.82184  0.65539  1.0000
  H   H56       1.0  0.86529  0.8982400000000003  0.7131  1.0000
  H   H57       1.0  0.06647999999999998  0.87967  0.8050900000000001  1.0000
  H   H58       1.0  0.85415  0.62423  0.58303  1.0000
  H   H59       1.0  0.6396899999999999  0.56008  0.6355  1.0000
  H   H60       1.0  0.6622199999999999  0.72539  0.60934  1.0000
  H   H61       1.0  0.22825  0.7599800000000002  0.8102599999999999  1.0000
  H   H62       1.0  0.25848  0.7175700000000002  0.85982  1.0000
  H   H63       1.0  0.19021  0.6952000000000002  0.8160800000000001  1.0000
  H   H64       1.0  0.4736499999999999  0.60619  0.71439  1.0000
  H   H65       1.0  0.42034  0.56781  0.75791  1.0000
  H   H66       1.0  0.49497  0.60848  0.77967  1.0000
  H   H67       1.0  0.6853799999999999  0.9080400000000001  0.44517  1.0000
  H   H68       1.0  0.75793  0.9565300000000001  0.44103999999999993  1.0000
  H   H69       1.0  0.7241999999999997  0.93557  0.50068  1.0000
  H   H70       1.0  0.9647599999999998  0.7635900000000002  0.42895  1.0000
  H   H71       1.0  0.98933  0.8248600000000001  0.40043  1.0000
  H   H72       1.0  0.9160499999999999  0.78539  0.37434  1.0000
  H   H73       1.0  0.8662  0.06631  0.3324500000000001  1.0000
  H   H74       1.0  0.06880999999999998  0.99646  0.39506  1.0000
  H   H75       1.0  0.05754  0.16353000000000004  0.37147  1.0000
  H   H76       1.0  0.6601899999999999  0.25746  0.42038  1.0000
  H   H77       1.0  0.64118  0.33462  0.56125  1.0000
  H   H78       1.0  0.84949  0.3473200000000001  0.47532  1.0000
  H   H79       1.0  0.56354  0.17801000000000006  0.34451  1.0000
  H   H80       1.0  0.3648299999999999  0.1015  0.28643  1.0000
  H   H81       1.0  0.5664  0.12023000000000002  0.19479  1.0000
  H   H82       1.0  0.35422  0.3754700000000001  0.41643  1.0000
  H   H83       1.0  0.14033  0.43937  0.36291000000000007  1.0000
  H   H84       1.0  0.16265  0.2741  0.38955  1.0000
  H   H85       1.0  0.72803  0.2396  0.18908  1.0000
  H   H86       1.0  0.7586  0.28243  0.13989  1.0000
  H   H87       1.0  0.6898999999999998  0.30435000000000006  0.18352  1.0000
  H   H88       1.0  0.97222  0.39416  0.28579  1.0000
  H   H89       1.0  0.9190899999999999  0.43208  0.24184  1.0000
  H   H90       1.0  0.9940099999999998  0.39141  0.22060999999999997  1.0000
  H   H91       1.0  0.18556999999999996  0.0926  0.55641  1.0000
  H   H92       1.0  0.2578  0.04387  0.55966  1.0000
  H   H93       1.0  0.22274  0.06501  0.5004  1.0000
  H   H94       1.0  0.46448  0.23703000000000005  0.57062  1.0000
  H   H95       1.0  0.48986999999999997  0.17588  0.59908  1.0000
  H   H96       1.0  0.41654  0.21505  0.6255  1.0000
  C   C1        1.0  0.4160399999999999  0.33205  0.83162  1.0000
  C   C2        1.0  0.45815999999999996  0.38003  0.8486500000000001  1.0000
  C   C3        1.0  0.42409999999999987  0.42967  0.84645  1.0000
  C   C4        1.0  0.46445999999999993  0.4742  0.86235  1.0000
  C   C5        1.0  0.42679  0.52638  0.86004  1.0000
  C   C6        1.0  0.5392  0.46902000000000005  0.88039  1.0000
  C   C7        1.0  0.5730399999999998  0.41923  0.88355  1.0000
  C   C8        1.0  0.65298  0.41331  0.90372  1.0000
  C   C9        1.0  0.53217  0.37501000000000007  0.86767  1.0000
  C   C10       1.0  0.30349  0.21204  0.89751  1.0000
  C   C11       1.0  0.25941999999999993  0.19894  0.9437199999999999  1.0000
  C   C12       1.0  0.18541999999999995  0.21873  0.94955  1.0000
  C   C13       1.0  0.1425  0.20675  0.9919300000000001  1.0000
  C   C14       1.0  0.06135  0.22552  0.99728  1.0000
  C   C15       1.0  0.17474999999999993  0.17589000000000005  0.02924  1.0000
  C   C16       1.0  0.24918  0.15624  0.023790000000000002  1.0000
  C   C17       1.0  0.28115  0.12344  0.06357  1.0000
  C   C18       1.0  0.29142  0.16724  0.98064  1.0000
  C   C19       1.0  0.15327  0.32774000000000003  0.76169  1.0000
  C   C20       1.0  0.0731  0.34845000000000004  0.76837  1.0000
  C   C21       1.0  0.03376  0.34092  0.81322  1.0000
  C   C22       1.0  0.9587199999999999  0.35892  0.81908  1.0000
  C   C23       1.0  0.9161999999999999  0.34916  0.8668199999999999  1.0000
  C   C24       1.0  0.9226099999999999  0.38402  0.7795399999999999  1.0000
  C   C25       1.0  0.96152  0.39142  0.73432  1.0000
  C   C26       1.0  0.91985  0.4148  0.69261  1.0000
  C   C27       1.0  0.03712  0.3741000000000001  0.72892  1.0000
  C   C28       1.0  0.80639  0.22581  0.92335  1.0000
  C   C29       1.0  0.76209  0.17858000000000004  0.90656  1.0000
  C   C30       1.0  0.7954299999999997  0.12867  0.90574  1.0000
  C   C31       1.0  0.75224  0.08562  0.8891400000000002  1.0000
  C   C32       1.0  0.78484  0.03274  0.88482  1.0000
  C   C33       1.0  0.6758099999999998  0.09243  0.8751  1.0000
  C   C34       1.0  0.64293  0.14213  0.8758700000000001  1.0000
  C   C35       1.0  0.5611  0.14793  0.8601600000000001  1.0000
  C   C36       1.0  0.68654  0.18530000000000002  0.8909  1.0000
  C   C37       1.0  0.24202  0.21905  0.67926  1.0000
  C   C38       1.0  0.30374  0.19843000000000002  0.7115  1.0000
  C   C39       1.0  0.39338  0.14895  0.74238  1.0000
  C   C40       1.0  0.44846  0.10544000000000002  0.74912  1.0000
  C   C41       1.0  0.7374799999999998  0.42293  0.03666  1.0000
  C   C42       1.0  0.797  0.38156  0.03598  1.0000
  C   C43       1.0  0.88523  0.32667  0.05915  1.0000
  C   C44       1.0  0.9418599999999999  0.29844  0.09010999999999998  1.0000
  C   C45       1.0  0.91581  0.66794  0.1685  1.0000
  C   C46       1.0  0.9578299999999998  0.61992  0.15161  1.0000
  C   C47       1.0  0.9234799999999999  0.57037  0.15383  1.0000
  C   C48       1.0  0.96371  0.52584  0.13786  1.0000
  C   C49       1.0  0.9260999999999999  0.47364  0.14008  1.0000
  C   C50       1.0  0.03847  0.53093  0.1198  1.0000
  C   C51       1.0  0.07265999999999999  0.58065  0.11663  1.0000
  C   C52       1.0  0.15271  0.5865400000000001  0.09642  1.0000
  C   C53       1.0  0.03187999999999999  0.62487  0.13258  1.0000
  C   C54       1.0  0.80373  0.78809  0.10255  1.0000
  C   C55       1.0  0.75992  0.80132  0.05633  1.0000
  C   C56       1.0  0.6857  0.7819200000000001  0.05053  1.0000
  C   C57       1.0  0.6433699999999999  0.79385  0.00795  1.0000
  C   C58       1.0  0.5624599999999997  0.77536  0.00189  1.0000
  C   C59       1.0  0.6759499999999998  0.82436  0.9706000000000001  1.0000
  C   C60       1.0  0.75036  0.84377  0.9761299999999999  1.0000
  C   C61       1.0  0.7819499999999999  0.8766000000000002  0.9363400000000001  1.0000
  C   C62       1.0  0.79241  0.83269  0.01931  1.0000
  C   C63       1.0  0.6532799999999997  0.6723000000000001  0.23828  1.0000
  C   C64       1.0  0.57312  0.65158  0.23161  1.0000
  C   C65       1.0  0.53378  0.6591  0.18676  1.0000
  C   C66       1.0  0.45871999999999996  0.6411  0.18092  1.0000
  C   C67       1.0  0.41626  0.65087  0.13317  1.0000
  C   C68       1.0  0.4226299999999999  0.61597  0.22047  1.0000
  C   C69       1.0  0.46154999999999996  0.60857  0.26567  1.0000
  C   C70       1.0  0.41987999999999986  0.58519  0.30738  1.0000
  C   C71       1.0  0.5371299999999999  0.62594  0.27107  1.0000
  C   C72       1.0  0.30675  0.77407  0.07673  1.0000
  C   C73       1.0  0.26255  0.8211500000000002  0.09392  1.0000
  C   C74       1.0  0.2954399999999999  0.8712200000000002  0.09464  1.0000
  C   C75       1.0  0.25209  0.91405  0.11159  1.0000
  C   C76       1.0  0.28437  0.96713  0.11547  1.0000
  C   C77       1.0  0.17587  0.90681  0.12611  1.0000
  C   C78       1.0  0.14340999999999995  0.8569200000000002  0.12528  1.0000
  C   C79       1.0  0.06176999999999999  0.8501600000000001  0.14107  1.0000
  C   C80       1.0  0.18725999999999995  0.8140500000000002  0.1099  1.0000
  C   C81       1.0  0.74198  0.78069  0.3206  1.0000
  C   C82       1.0  0.8036699999999998  0.80156  0.28846  1.0000
  C   C83       1.0  0.89363  0.8511  0.25793  1.0000
  C   C84       1.0  0.9489299999999999  0.8946100000000001  0.25181  1.0000
  C   C85       1.0  0.23777  0.57741  0.9635600000000001  1.0000
  C   C86       1.0  0.29755999999999994  0.61861  0.96411  1.0000
  C   C87       1.0  0.38604  0.67332  0.9408  1.0000
  C   C88       1.0  0.44254  0.70152  0.90965  1.0000
  C   C89       1.0  0.41586  0.83204  0.66853  1.0000
  C   C90       1.0  0.45792999999999995  0.88006  0.6515400000000001  1.0000
  C   C91       1.0  0.42369  0.92962  0.6538  1.0000
  C   C92       1.0  0.4638399999999999  0.97419  0.6376599999999999  1.0000
  C   C93       1.0  0.4263599999999999  0.0264  0.6400500000000001  1.0000
  C   C94       1.0  0.5382799999999998  0.96907  0.61911  1.0000
  C   C95       1.0  0.57223  0.9193300000000001  0.6158100000000001  1.0000
  C   C96       1.0  0.65145  0.91353  0.59443  1.0000
  C   C97       1.0  0.53181  0.8751000000000001  0.63227  1.0000
  C   C98       1.0  0.30372  0.71186  0.60261  1.0000
  C   C99       1.0  0.25995  0.69856  0.55646  1.0000
  C   C100      1.0  0.18582  0.71804  0.55055  1.0000
  C   C101      1.0  0.1435  0.70607  0.50802  1.0000
  C   C102      1.0  0.0626  0.72456  0.50186  1.0000
  C   C103      1.0  0.17608  0.67553  0.47082000000000007  1.0000
  C   C104      1.0  0.25046  0.65608  0.47645  1.0000
  C   C105      1.0  0.28197  0.62335  0.4367  1.0000
  C   C106      1.0  0.29243  0.6671100000000002  0.51963  1.0000
  C   C107      1.0  0.15338  0.8279800000000003  0.7381899999999999  1.0000
  C   C108      1.0  0.07360999999999998  0.84923  0.73089  1.0000
  C   C109      1.0  0.03551  0.84215  0.68555  1.0000
  C   C110      1.0  0.96072  0.8602700000000001  0.67893  1.0000
  C   C111      1.0  0.9191399999999998  0.85058  0.63093  1.0000
  C   C112      1.0  0.9235599999999999  0.8850600000000002  0.71814  1.0000
  C   C113      1.0  0.96123  0.89213  0.7638  1.0000
  C   C114      1.0  0.91818  0.9149200000000001  0.80517  1.0000
  C   C115      1.0  0.03665  0.87468  0.77  1.0000
  C   C116      1.0  0.8067899999999999  0.72677  0.57757  1.0000
  C   C117      1.0  0.76237  0.67929  0.59373  1.0000
  C   C118      1.0  0.79517  0.62921  0.59432  1.0000
  C   C119      1.0  0.75121  0.58612  0.61017  1.0000
  C   C120      1.0  0.78308  0.53297  0.61412  1.0000
  C   C121      1.0  0.67467  0.59316  0.6240499999999999  1.0000
  C   C122      1.0  0.6425199999999998  0.6430900000000003  0.62361  1.0000
  C   C123      1.0  0.5611299999999998  0.64986  0.63972  1.0000
  C   C124      1.0  0.6867099999999998  0.68615  0.609  1.0000
  C   C125      1.0  0.24192  0.7191500000000001  0.82052  1.0000
  C   C126      1.0  0.30379  0.6984200000000003  0.78851  1.0000
  C   C127      1.0  0.3938999999999999  0.64905  0.75816  1.0000
  C   C128      1.0  0.44920999999999994  0.60564  0.7519800000000001  1.0000
  C   C129      1.0  0.7377599999999997  0.9226300000000001  0.46273000000000003  1.0000
  C   C130      1.0  0.7969699999999997  0.8810600000000002  0.46351  1.0000
  C   C131      1.0  0.88522  0.82621  0.44043000000000004  1.0000
  C   C132      1.0  0.9418999999999998  0.7982000000000001  0.40942  1.0000
  C   C133      1.0  0.9160499999999999  0.16781  0.33186  1.0000
  C   C134      1.0  0.95775  0.11993000000000001  0.34949  1.0000
  C   C135      1.0  0.9235399999999999  0.07036  0.3471  1.0000
  C   C136      1.0  0.96347  0.025820000000000006  0.36346  1.0000
  C   C137      1.0  0.9261899999999998  0.9735900000000002  0.36041  1.0000
  C   C138      1.0  0.03759999999999999  0.03096000000000001  0.3825  1.0000
  C   C139      1.0  0.07162999999999997  0.08068  0.38583000000000006  1.0000
  C   C140      1.0  0.15105  0.08655  0.40695  1.0000
  C   C141      1.0  0.03138  0.1249  0.36914  1.0000
  C   C142      1.0  0.80338  0.28713  0.3973999999999999  1.0000
  C   C143      1.0  0.75935  0.30102  0.44338  1.0000
  C   C144      1.0  0.68498  0.28198  0.4492  1.0000
  C   C145      1.0  0.64227  0.2944800000000001  0.49148  1.0000
  C   C146      1.0  0.5612699999999998  0.27584  0.49714  1.0000
  C   C147      1.0  0.67486  0.32517000000000007  0.52861  1.0000
  C   C148      1.0  0.74966  0.34413  0.52317  1.0000
  C   C149      1.0  0.78154  0.37667000000000006  0.56306  1.0000
  C   C150      1.0  0.7918599999999998  0.33258  0.48017  1.0000
  C   C151      1.0  0.65303  0.1719  0.2618  1.0000
  C   C152      1.0  0.57323  0.15068  0.26899  1.0000
  C   C153      1.0  0.53496  0.1577  0.31429  1.0000
  C   C154      1.0  0.4601599999999999  0.13953  0.32087  1.0000
  C   C155      1.0  0.41861  0.14929  0.36891  1.0000
  C   C156      1.0  0.42313999999999996  0.11474000000000002  0.2816  1.0000
  C   C157      1.0  0.46098999999999996  0.10773000000000002  0.23599  1.0000
  C   C158      1.0  0.41801  0.08495  0.19462000000000002  1.0000
  C   C159      1.0  0.53643  0.1252  0.22984  1.0000
  C   C160      1.0  0.30687999999999993  0.27316  0.42214  1.0000
  C   C161      1.0  0.26256  0.3204  0.40540000000000004  1.0000
  C   C162      1.0  0.29538  0.37048000000000003  0.40482  1.0000
  C   C163      1.0  0.25159  0.4134700000000001  0.3886  1.0000
  C   C164      1.0  0.2832  0.46673000000000003  0.38481  1.0000
  C   C165      1.0  0.1752  0.40631000000000006  0.37448  1.0000
  C   C166      1.0  0.14296  0.35638  0.37491  1.0000
  C   C167      1.0  0.06137999999999999  0.34992  0.359  1.0000
  C   C168      1.0  0.18704999999999994  0.31339  0.3898  1.0000
  C   C169      1.0  0.74169  0.28051000000000004  0.17912  1.0000
  C   C170      1.0  0.80323  0.3012  0.2114  1.0000
  C   C171      1.0  0.8929199999999999  0.35078  0.24198  1.0000
  C   C172      1.0  0.9480199999999999  0.39436  0.24815  1.0000
  C   C173      1.0  0.23734  0.07785999999999998  0.53821  1.0000
  C   C174      1.0  0.2968  0.11926000000000002  0.53689  1.0000
  C   C175      1.0  0.38534  0.17413  0.55956  1.0000
  C   C176      1.0  0.44215  0.20234  0.59031  1.0000
  N   N1        1.0  0.32530999999999993  0.21992000000000003  0.75448  1.0000
  N   N2        1.0  0.3822299999999999  0.1885  0.77393  1.0000
  N   N3        1.0  0.34546  0.15396  0.70258  1.0000
  N   N4        1.0  0.8211  0.35641000000000006  0.99543  1.0000
  N   N5        1.0  0.87709  0.32166  0.01024  1.0000
  N   N6        1.0  0.8355199999999998  0.36351000000000006  0.07666000000000002  1.0000
  N   N7        1.0  0.8254699999999999  0.78023  0.24546000000000004  1.0000
  N   N8        1.0  0.88259  0.81167  0.22623000000000001  1.0000
  N   N9        1.0  0.84539  0.8459900000000002  0.29758  1.0000
  N   N10       1.0  0.32185  0.64374  0.00463  1.0000
  N   N11       1.0  0.37803  0.67837  0.98973  1.0000
  N   N12       1.0  0.3360999999999999  0.6365500000000002  0.92337  1.0000
  N   N13       1.0  0.32562  0.71984  0.74549  1.0000
  N   N14       1.0  0.38285  0.68852  0.72637  1.0000
  N   N15       1.0  0.34559999999999996  0.6540500000000001  0.79778  1.0000
  N   N16       1.0  0.82106  0.85585  0.5041  1.0000
  N   N17       1.0  0.8770799999999999  0.8210800000000001  0.48936  1.0000
  N   N18       1.0  0.83546  0.8630300000000002  0.42288  1.0000
  N   N19       1.0  0.8247999999999999  0.27981  0.2545  1.0000
  N   N20       1.0  0.8817699999999998  0.3113  0.27375  1.0000
  N   N21       1.0  0.8449499999999999  0.34567  0.20223  1.0000
  N   N22       1.0  0.32066  0.14435000000000003  0.49616  1.0000
  N   N23       1.0  0.37686  0.17913  0.51065  1.0000
  N   N24       1.0  0.33566  0.13735  0.57735  1.0000
  O   O1        1.0  0.34838  0.3383900000000001  0.81489  1.0000
  O   O2        1.0  0.45106  0.28847  0.8349500000000001  1.0000
  O   O3        1.0  0.35533  0.52888  0.8475900000000001  1.0000
  O   O4        1.0  0.46242999999999995  0.56888  0.8697999999999999  1.0000
  O   O5        1.0  0.6740199999999997  0.36427  0.9098400000000001  1.0000
  O   O6        1.0  0.69296  0.45234  0.91321  1.0000
  O   O7        1.0  0.26864  0.2383  0.86458  1.0000
  O   O8        1.0  0.37203  0.19548000000000004  0.89527  1.0000
  O   O9        1.0  0.04206  0.26149  0.9652  1.0000
  O   O10       1.0  0.019399999999999994  0.20633000000000004  0.02995  1.0000
  O   O11       1.0  0.34107  0.09550000000000003  0.05483  1.0000
  O   O12       1.0  0.24622  0.12431000000000003  0.10594000000000002  1.0000
  O   O13       1.0  0.17796  0.30132  0.79987  1.0000
  O   O14       1.0  0.18886  0.33583  0.72243  1.0000
  O   O15       1.0  0.9511499999999999  0.32298  0.89976  1.0000
  O   O16       1.0  0.84868  0.3676900000000001  0.8699599999999998  1.0000
  O   O17       1.0  0.9539499999999999  0.42330000000000007  0.65074  1.0000
  O   O18       1.0  0.84861  0.42575  0.70001  1.0000
  O   O19       1.0  0.87387  0.21738  0.93953  1.0000
  O   O20       1.0  0.77293  0.26985  0.92015  1.0000
  O   O21       1.0  0.85341  0.02394  0.9002900000000001  1.0000
  O   O22       1.0  0.74199  0.9972700000000001  0.86511  1.0000
  O   O23       1.0  0.51907  0.10859000000000003  0.8576  1.0000
  O   O24       1.0  0.54197  0.19611  0.84994  1.0000
  O   O25       1.0  0.8480999999999999  0.66169  0.18517  1.0000
  O   O26       1.0  0.95096  0.7114600000000002  0.16509  1.0000
  O   O27       1.0  0.8545799999999998  0.47105  0.1524  1.0000
  O   O28       1.0  0.9619999999999999  0.43121  0.13036  1.0000
  O   O29       1.0  0.17389  0.63556  0.09018  1.0000
  O   O30       1.0  0.19272  0.54752  0.08701  1.0000
  O   O31       1.0  0.76867  0.7618200000000002  0.1354  1.0000
  O   O32       1.0  0.87233  0.80454  0.10482  1.0000
  O   O33       1.0  0.54178  0.74073  0.03489  1.0000
  O   O34       1.0  0.52249  0.79351  0.96773  1.0000
  O   O35       1.0  0.84171  0.9046400000000002  0.94508  1.0000
  O   O36       1.0  0.74661  0.87576  0.89412  1.0000
  O   O37       1.0  0.678  0.6987400000000001  0.20013  1.0000
  O   O38       1.0  0.6888499999999999  0.6641800000000001  0.27756  1.0000
  O   O39       1.0  0.4513099999999999  0.67703  0.10022  1.0000
  O   O40       1.0  0.3487299999999999  0.63234  0.13003  1.0000
  O   O41       1.0  0.45398  0.57668  0.34924  1.0000
  O   O42       1.0  0.34867  0.57425  0.29999  1.0000
  O   O43       1.0  0.37411  0.7825400000000002  0.06038  1.0000
  O   O44       1.0  0.27311  0.7300500000000002  0.07984000000000001  1.0000
  O   O45       1.0  0.35282999999999987  0.9760600000000003  0.09976  1.0000
  O   O46       1.0  0.24143  0.0026700000000000005  0.13495  1.0000
  O   O47       1.0  0.01916  0.8891  0.14477  1.0000
  O   O48       1.0  0.04277  0.8016600000000003  0.14997  1.0000
  O   O49       1.0  0.34815  0.8382900000000001  0.68518  1.0000
  O   O50       1.0  0.4509399999999999  0.78852  0.6651500000000001  1.0000
  O   O51       1.0  0.35489  0.02893  0.65247  1.0000
  O   O52       1.0  0.4622299999999999  0.06888  0.63036  1.0000
  O   O53       1.0  0.67414  0.8646300000000001  0.5904  1.0000
  O   O54       1.0  0.68932  0.9526800000000001  0.58201  1.0000
  O   O55       1.0  0.26869  0.73818  0.63536  1.0000
  O   O56       1.0  0.3723  0.69545  0.60489  1.0000
  O   O57       1.0  0.042  0.7591800000000002  0.53474  1.0000
  O   O58       1.0  0.02258  0.70644  0.46776  1.0000
  O   O59       1.0  0.3418099999999999  0.59529  0.44527  1.0000
  O   O60       1.0  0.2465  0.62417  0.39455  1.0000
  O   O61       1.0  0.17807  0.8013000000000002  0.70023  1.0000
  O   O62       1.0  0.18859999999999993  0.83585  0.77759  1.0000
  O   O63       1.0  0.95519  0.82555  0.5977999999999999  1.0000
  O   O64       1.0  0.85105  0.86798  0.62785  1.0000
  O   O65       1.0  0.9510099999999999  0.92322  0.8474100000000001  1.0000
  O   O66       1.0  0.84703  0.92537  0.7971200000000002  1.0000
  O   O67       1.0  0.8750099999999998  0.7191200000000002  0.56269  1.0000
  O   O68       1.0  0.77243  0.7704500000000002  0.57994  1.0000
  O   O69       1.0  0.85224  0.5239400000000001  0.59985  1.0000
  O   O70       1.0  0.7386699999999998  0.49742  0.63244  1.0000
  O   O71       1.0  0.5189399999999997  0.61083  0.64482  1.0000
  O   O72       1.0  0.5420699999999998  0.69846  0.64764  1.0000
  O   O73       1.0  0.84854  0.16134  0.31487  1.0000
  O   O74       1.0  0.95102  0.21138  0.33493  1.0000
  O   O75       1.0  0.85487  0.9710700000000002  0.34763000000000005  1.0000
  O   O76       1.0  0.9621299999999999  0.9311000000000003  0.36982  1.0000
  O   O77       1.0  0.17414  0.13543  0.40975  1.0000
  O   O78       1.0  0.18888999999999995  0.04759  0.42007000000000005  1.0000
  O   O79       1.0  0.7690799999999998  0.25971  0.36510000000000004  1.0000
  O   O80       1.0  0.87163  0.30434  0.39497  1.0000
  O   O81       1.0  0.54199  0.24041000000000007  0.46477  1.0000
  O   O82       1.0  0.51952  0.29421  0.53022  1.0000
  O   O83       1.0  0.8415799999999998  0.40463  0.5546  1.0000
  O   O84       1.0  0.74629  0.37573  0.60528  1.0000
  O   O85       1.0  0.67776  0.1985  0.29979  1.0000
  O   O86       1.0  0.6884299999999999  0.16407000000000002  0.22242  1.0000
  O   O87       1.0  0.45482  0.1743  0.40199  1.0000
  O   O88       1.0  0.35041  0.132  0.37204000000000004  1.0000
  O   O89       1.0  0.4509  0.07673  0.15238999999999997  1.0000
  O   O90       1.0  0.34687  0.07444  0.20272  1.0000
  O   O91       1.0  0.37495  0.28098  0.43724  1.0000
  O   O92       1.0  0.27255999999999997  0.22943  0.42003  1.0000
  O   O93       1.0  0.35182  0.4760700000000001  0.40005000000000007  1.0000
  O   O94       1.0  0.23900999999999997  0.50195  0.36567  1.0000
  O   O95       1.0  0.01906  0.38902000000000003  0.3552  1.0000
  O   O96       1.0  0.04222  0.30153  0.35000000000000003  1.0000
