data_image0
_chemical_formula_structural       Zn16H160C216N40O34
_chemical_formula_sum              "Zn16 H160 C216 N40 O34"
_cell_length_a       11.26633
_cell_length_b       32.47267
_cell_length_c       32.30444
_cell_angle_alpha    90.00213999999998
_cell_angle_beta     89.74321
_cell_angle_gamma    90.17568

_symmetry_space_group_name_H-M    'P 1'
_symmetry_Int_Tables_number       1

loop_
  _symmetry_equiv_pos_as_xyz
  'x,y,z'

loop_
  _atom_site_type_symbol
  _atom_site_label
  _atom_site_symmetry_multiplicity
  _atom_site_fract_x
  _atom_site_fract_y
  _atom_site_fract_z
  _atom_site_occupancy
  Zn  Zn1       1.0  0.60946  0.28813  0.7199000000000002  1.0000
  Zn  Zn2       1.0  0.6086  0.21349  0.78007  1.0000
  Zn  Zn3       1.0  0.39157000000000003  0.21336  0.71992  1.0000
  Zn  Zn4       1.0  0.39087  0.28766  0.78015  1.0000
  Zn  Zn5       1.0  0.39055000000000006  0.7118700000000002  0.2801  1.0000
  Zn  Zn6       1.0  0.39141  0.78651  0.21993000000000004  1.0000
  Zn  Zn7       1.0  0.60844  0.78664  0.28008  1.0000
  Zn  Zn8       1.0  0.60914  0.71234  0.21985  1.0000
  Zn  Zn9       1.0  0.99723  0.24918000000000004  0.8946500000000002  1.0000
  Zn  Zn10      1.0  0.0028399999999999996  0.24915999999999996  0.60522  1.0000
  Zn  Zn11      1.0  0.0027799999999999986  0.75082  0.10535  1.0000
  Zn  Zn12      1.0  0.9971700000000001  0.75084  0.39478  1.0000
  Zn  Zn13      1.0  0.0027599999999999977  0.40512  0.7492800000000002  1.0000
  Zn  Zn14      1.0  0.99726  0.09649  0.7493000000000002  1.0000
  Zn  Zn15      1.0  0.9972400000000001  0.59488  0.2507200000000001  1.0000
  Zn  Zn16      1.0  0.0027500000000000003  0.90351  0.2507  1.0000
  H   H1        1.0  0.044  0.3334300000000001  0.86067  1.0000
  H   H2        1.0  0.06413  0.37517  0.82586  1.0000
  H   H3        1.0  0.7607  0.21525  0.86355  1.0000
  H   H4        1.0  0.77831  0.36092  0.72779  1.0000
  H   H5        1.0  0.62756  0.59072  0.11333  1.0000
  H   H6        1.0  0.50875  0.55569  0.0586  1.0000
  H   H7        1.0  0.23273000000000002  0.64553  0.07434  1.0000
  H   H8        1.0  0.34954  0.67873  0.13032  1.0000
  H   H9        1.0  0.21737  0.42961  0.8605600000000002  1.0000
  H   H10       1.0  0.29338  0.46646  0.92296  1.0000
  H   H11       1.0  0.014940000000000004  0.5557600000000003  0.9111800000000002  1.0000
  H   H12       1.0  0.9367200000000001  0.5177  0.84956  1.0000
  H   H13       1.0  0.46331  0.5812  0.99182  1.0000
  H   H14       1.0  0.04699  0.53518  0.99111  1.0000
  H   H15       1.0  0.06107  0.60333  0.06358000000000003  1.0000
  H   H16       1.0  0.0241  0.55043  0.062110000000000005  1.0000
  H   H17       1.0  0.14452  0.5678  0.0928  1.0000
  H   H18       1.0  0.46421  0.51453  0.9234300000000001  1.0000
  H   H19       1.0  0.4803200000000001  0.56852  0.91979  1.0000
  H   H20       1.0  0.36801  0.5427  0.89099  1.0000
  H   H21       1.0  0.04439  0.16794  0.6394200000000002  1.0000
  H   H22       1.0  0.06291  0.12575  0.67378  1.0000
  H   H23       1.0  0.7652500000000001  0.28605  0.63679  1.0000
  H   H24       1.0  0.77287  0.13955  0.77163  1.0000
  H   H25       1.0  0.62305  0.90816  0.38419  1.0000
  H   H26       1.0  0.50741  0.94336  0.43982  1.0000
  H   H27       1.0  0.22790000000000002  0.85403  0.42602  1.0000
  H   H28       1.0  0.34143  0.8206  0.36929  1.0000
  H   H29       1.0  0.21994  0.07071  0.63927  1.0000
  H   H30       1.0  0.29631  0.03356  0.577  1.0000
  H   H31       1.0  0.014259999999999997  0.9448  0.58923  1.0000
  H   H32       1.0  0.93636  0.98321  0.6507500000000003  1.0000
  H   H33       1.0  0.46237000000000006  0.91807  0.50763  1.0000
  H   H34       1.0  0.04775  0.9651900000000002  0.50925  1.0000
  H   H35       1.0  0.06039  0.89672  0.43660000000000004  1.0000
  H   H36       1.0  0.025  0.94969  0.4381200000000001  1.0000
  H   H37       1.0  0.1458  0.93212  0.40748  1.0000
  H   H38       1.0  0.46435  0.98528  0.57614  1.0000
  H   H39       1.0  0.4803200000000001  0.93129  0.5794300000000002  1.0000
  H   H40       1.0  0.36787999999999993  0.95674  0.6086400000000002  1.0000
  H   H41       1.0  0.95339  0.16761  0.86005  1.0000
  H   H42       1.0  0.9347899999999999  0.12559  0.82546  1.0000
  H   H43       1.0  0.23569  0.28575  0.86325  1.0000
  H   H44       1.0  0.22463  0.13981  0.72778  1.0000
  H   H45       1.0  0.3769700000000001  0.90805  0.11583000000000003  1.0000
  H   H46       1.0  0.49277000000000004  0.94326  0.06004  1.0000
  H   H47       1.0  0.77153  0.8542600000000002  0.07393  1.0000
  H   H48       1.0  0.65798  0.82089  0.13089  1.0000
  H   H49       1.0  0.7811100000000001  0.0709  0.86079  1.0000
  H   H50       1.0  0.7046200000000002  0.03375  0.92313  1.0000
  H   H51       1.0  0.9855400000000001  0.94518  0.91086  1.0000
  H   H52       1.0  0.06379999999999998  0.98369  0.84927  1.0000
  H   H53       1.0  0.53736  0.9180000000000003  0.9923399999999999  1.0000
  H   H54       1.0  0.9525700000000001  0.96541  0.99059  1.0000
  H   H55       1.0  0.93941  0.89678  0.06308  1.0000
  H   H56       1.0  0.9755100000000001  0.94977  0.06164  1.0000
  H   H57       1.0  0.85469  0.93209  0.09235  1.0000
  H   H58       1.0  0.53604  0.98529  0.92385  1.0000
  H   H59       1.0  0.51942  0.93129  0.9205300000000002  1.0000
  H   H60       1.0  0.63215  0.95684  0.89133  1.0000
  H   H61       1.0  0.9591  0.33281  0.63865  1.0000
  H   H62       1.0  0.93852  0.37461  0.67332  1.0000
  H   H63       1.0  0.23903000000000002  0.21453  0.6366900000000002  1.0000
  H   H64       1.0  0.22508  0.36111  0.77143  1.0000
  H   H65       1.0  0.37271  0.59064  0.3868  1.0000
  H   H66       1.0  0.49151  0.55563  0.4413100000000001  1.0000
  H   H67       1.0  0.7680200000000001  0.64587  0.4257  1.0000
  H   H68       1.0  0.65123  0.67913  0.36998  1.0000
  H   H69       1.0  0.78056  0.4292  0.63909  1.0000
  H   H70       1.0  0.70489  0.46637  0.57683  1.0000
  H   H71       1.0  0.98462  0.55575  0.5891  1.0000
  H   H72       1.0  0.06191  0.51751  0.65064  1.0000
  H   H73       1.0  0.53705  0.58123  0.50821  1.0000
  H   H74       1.0  0.9525800000000001  0.53524  0.5089  1.0000
  H   H75       1.0  0.93923  0.60338  0.43622  1.0000
  H   H76       1.0  0.9756  0.5505  0.43778  1.0000
  H   H77       1.0  0.85506  0.56771  0.40721  1.0000
  H   H78       1.0  0.53507  0.51454  0.57664  1.0000
  H   H79       1.0  0.5198  0.56854  0.58019  1.0000
  H   H80       1.0  0.63167  0.54279  0.60903  1.0000
  H   H81       1.0  0.9560100000000001  0.66657  0.13933  1.0000
  H   H82       1.0  0.93588  0.6248300000000002  0.17414000000000004  1.0000
  H   H83       1.0  0.23931  0.78475  0.13645  1.0000
  H   H84       1.0  0.22170000000000004  0.6390800000000002  0.2722100000000001  1.0000
  H   H85       1.0  0.37245  0.40928  0.88667  1.0000
  H   H86       1.0  0.49126  0.44431  0.9414000000000002  1.0000
  H   H87       1.0  0.7672800000000001  0.35447  0.92566  1.0000
  H   H88       1.0  0.65047  0.32127  0.86968  1.0000
  H   H89       1.0  0.78264  0.5703900000000002  0.13944  1.0000
  H   H90       1.0  0.70663  0.5335400000000001  0.07704  1.0000
  H   H91       1.0  0.98507  0.44424  0.08882  1.0000
  H   H92       1.0  0.06329  0.4823  0.15044  1.0000
  H   H93       1.0  0.53669  0.4188000000000001  0.00818  1.0000
  H   H94       1.0  0.95302  0.46482  0.00889  1.0000
  H   H95       1.0  0.93893  0.39667  0.93641  1.0000
  H   H96       1.0  0.9759100000000002  0.44957  0.93789  1.0000
  H   H97       1.0  0.85549  0.4322  0.9072  1.0000
  H   H98       1.0  0.5358  0.4854700000000001  0.07657  1.0000
  H   H99       1.0  0.51969  0.43148  0.08021  1.0000
  H   H100      1.0  0.632  0.4573  0.10901  1.0000
  H   H101      1.0  0.9556100000000001  0.8320600000000002  0.36058  1.0000
  H   H102      1.0  0.9371  0.87425  0.32622  1.0000
  H   H103      1.0  0.23476  0.71395  0.3632100000000001  1.0000
  H   H104      1.0  0.22714000000000004  0.86045  0.22837  1.0000
  H   H105      1.0  0.37695  0.09184  0.61581  1.0000
  H   H106      1.0  0.49260000000000004  0.05664  0.56018  1.0000
  H   H107      1.0  0.77211  0.14597  0.57398  1.0000
  H   H108      1.0  0.65858  0.17940000000000006  0.63071  1.0000
  H   H109      1.0  0.7800700000000002  0.9292900000000002  0.36073  1.0000
  H   H110      1.0  0.7037  0.96644  0.423  1.0000
  H   H111      1.0  0.98575  0.0552  0.41077000000000014  1.0000
  H   H112      1.0  0.06364  0.01679  0.34925  1.0000
  H   H113      1.0  0.53763  0.08193  0.49237  1.0000
  H   H114      1.0  0.95226  0.03481  0.49075  1.0000
  H   H115      1.0  0.93962  0.10328  0.5634  1.0000
  H   H116      1.0  0.97501  0.05031  0.56188  1.0000
  H   H117      1.0  0.85421  0.06788  0.59252  1.0000
  H   H118      1.0  0.53566  0.014720000000000002  0.42386  1.0000
  H   H119      1.0  0.51969  0.06871  0.42057  1.0000
  H   H120      1.0  0.63213  0.04326  0.39136  1.0000
  H   H121      1.0  0.04661  0.83239  0.13995  1.0000
  H   H122      1.0  0.06522  0.87441  0.17454  1.0000
  H   H123      1.0  0.7643200000000001  0.71425  0.13675  1.0000
  H   H124      1.0  0.7753800000000001  0.86019  0.27222  1.0000
  H   H125      1.0  0.62304  0.09195  0.88417  1.0000
  H   H126      1.0  0.50724  0.05674  0.93996  1.0000
  H   H127      1.0  0.22848  0.14574  0.92607  1.0000
  H   H128      1.0  0.34203  0.17911  0.86911  1.0000
  H   H129      1.0  0.21890000000000004  0.9291000000000003  0.13921000000000006  1.0000
  H   H130      1.0  0.29539  0.96625  0.07687  1.0000
  H   H131      1.0  0.01447  0.05482  0.08914  1.0000
  H   H132      1.0  0.9362100000000001  0.01631  0.15073  1.0000
  H   H133      1.0  0.46264  0.082  0.00766  1.0000
  H   H134      1.0  0.04744  0.03459  0.00941  1.0000
  H   H135      1.0  0.06058999999999999  0.10322000000000003  0.93692  1.0000
  H   H136      1.0  0.0245  0.05023  0.9383600000000002  1.0000
  H   H137      1.0  0.14532  0.06791  0.9076500000000002  1.0000
  H   H138      1.0  0.46397  0.01471  0.07615  1.0000
  H   H139      1.0  0.48059  0.06871  0.07947  1.0000
  H   H140      1.0  0.36785  0.04316000000000001  0.10867  1.0000
  H   H141      1.0  0.04090000000000001  0.66719  0.3613500000000001  1.0000
  H   H142      1.0  0.06149000000000001  0.62539  0.32668000000000014  1.0000
  H   H143      1.0  0.76098  0.78547  0.36331  1.0000
  H   H144      1.0  0.7749300000000001  0.63889  0.22857  1.0000
  H   H145      1.0  0.62729  0.4093600000000001  0.6132  1.0000
  H   H146      1.0  0.5085  0.4443700000000001  0.55869  1.0000
  H   H147      1.0  0.23199000000000003  0.35413  0.5743  1.0000
  H   H148      1.0  0.34878  0.32087  0.6300200000000002  1.0000
  H   H149      1.0  0.21945  0.5708  0.36091  1.0000
  H   H150      1.0  0.29512  0.53363  0.42317  1.0000
  H   H151      1.0  0.015389999999999997  0.44425  0.4109  1.0000
  H   H152      1.0  0.9381  0.48249  0.34936  1.0000
  H   H153      1.0  0.46296  0.41877  0.49179  1.0000
  H   H154      1.0  0.04743  0.46476  0.4911  1.0000
  H   H155      1.0  0.06078  0.39662  0.56378  1.0000
  H   H156      1.0  0.02441  0.4495  0.56222  1.0000
  H   H157      1.0  0.14495  0.43229  0.5927900000000003  1.0000
  H   H158      1.0  0.4649400000000001  0.48546  0.42336000000000007  1.0000
  H   H159      1.0  0.48021  0.43146  0.41981  1.0000
  H   H160      1.0  0.36833999999999995  0.45721  0.39097  1.0000
  C   C1        1.0  0.7789700000000002  0.24292000000000005  0.8456800000000002  1.0000
  C   C2        1.0  0.56849  0.65725  0.15815  1.0000
  C   C3        1.0  0.9262500000000001  0.3349  0.81274  1.0000
  C   C4        1.0  0.8594100000000001  0.29935  0.82281  1.0000
  C   C5        1.0  0.76515  0.28804  0.79691  1.0000
  C   C6        1.0  0.80019  0.34298  0.75523  1.0000
  C   C7        1.0  0.54073  0.60221  0.10474000000000003  1.0000
  C   C8        1.0  0.47444000000000003  0.58294  0.07414  1.0000
  C   C9        1.0  0.36225  0.59793  0.062430000000000006  1.0000
  C   C10       1.0  0.31773  0.63265  0.08337  1.0000
  C   C11       1.0  0.38338000000000005  0.65161  0.11455  1.0000
  C   C12       1.0  0.49589000000000005  0.63677  0.12542000000000006  1.0000
  C   C13       1.0  0.029769999999999998  0.4495400000000001  0.8137600000000003  1.0000
  C   C14       1.0  0.07293  0.47154  0.85123  1.0000
  C   C15       1.0  0.17348999999999998  0.4571400000000001  0.87213  1.0000
  C   C16       1.0  0.21589  0.47792  0.9067100000000002  1.0000
  C   C17       1.0  0.16036  0.51394  0.92112  1.0000
  C   C18       1.0  0.05818  0.52777  0.90047  1.0000
  C   C19       1.0  0.014860000000000002  0.50687  0.86591  1.0000
  C   C20       1.0  0.30166  0.5781  0.02697  1.0000
  C   C21       1.0  0.21064000000000002  0.53678  0.95676  1.0000
  C   C22       1.0  0.33056  0.54971  0.95676  1.0000
  C   C23       1.0  0.18111  0.56585  0.026740000000000007  1.0000
  C   C24       1.0  0.37202  0.57017  0.99185  1.0000
  C   C25       1.0  0.13893  0.54567  0.99133  1.0000
  C   C26       1.0  0.09882999999999997  0.57213  0.06319  1.0000
  C   C27       1.0  0.41451  0.5435400000000001  0.9207200000000002  1.0000
  C   C28       1.0  0.78217  0.25829  0.65456  1.0000
  C   C29       1.0  0.56191  0.84176  0.34007  1.0000
  C   C30       1.0  0.9248  0.16581  0.687  1.0000
  C   C31       1.0  0.8596600000000001  0.20155  0.67715  1.0000
  C   C32       1.0  0.76561  0.21307  0.7032  1.0000
  C   C33       1.0  0.79674  0.15768  0.7444200000000002  1.0000
  C   C34       1.0  0.5364  0.89674  0.39356  1.0000
  C   C35       1.0  0.4719400000000001  0.91604  0.42472  1.0000
  C   C36       1.0  0.35988  0.90116  0.43729  1.0000
  C   C37       1.0  0.31341  0.8666  0.41655  1.0000
  C   C38       1.0  0.37728  0.84758  0.3848100000000001  1.0000
  C   C39       1.0  0.48996  0.86229  0.37313000000000013  1.0000
  C   C40       1.0  0.0302  0.05106  0.68609  1.0000
  C   C41       1.0  0.07397  0.02907  0.64871  1.0000
  C   C42       1.0  0.17552  0.04322  0.62779  1.0000
  C   C43       1.0  0.21811  0.02222  0.59329  1.0000
  C   C44       1.0  0.16159  0.98627  0.579  1.0000
  C   C45       1.0  0.05852  0.97269  0.59977  1.0000
  C   C46       1.0  0.015170000000000001  0.9937899999999998  0.63426  1.0000
  C   C47       1.0  0.30073  0.92131  0.47299  1.0000
  C   C48       1.0  0.21123000000000003  0.96325  0.54324  1.0000
  C   C49       1.0  0.33066  0.9500100000000002  0.54294  1.0000
  C   C50       1.0  0.18080000000000002  0.93398  0.47347  1.0000
  C   C51       1.0  0.37147  0.9292900000000002  0.50781  1.0000
  C   C52       1.0  0.13925  0.95443  0.5088800000000002  1.0000
  C   C53       1.0  0.09905000000000001  0.92786  0.4370700000000001  1.0000
  C   C54       1.0  0.41457000000000005  0.95615  0.57878  1.0000
  C   C55       1.0  0.21810000000000002  0.25804  0.84543  1.0000
  C   C56       1.0  0.43779  0.84178  0.15995  1.0000
  C   C57       1.0  0.07291  0.1659  0.81239  1.0000
  C   C58       1.0  0.13917  0.20145  0.82256  1.0000
  C   C59       1.0  0.23384  0.2129  0.79667  1.0000
  C   C60       1.0  0.20117  0.15782  0.75508  1.0000
  C   C61       1.0  0.46351  0.89673  0.10643  1.0000
  C   C62       1.0  0.52804  0.91603  0.07521000000000003  1.0000
  C   C63       1.0  0.63992  0.9012  0.06264  1.0000
  C   C64       1.0  0.6862  0.86676  0.08344000000000003  1.0000
  C   C65       1.0  0.62232  0.84776  0.11526  1.0000
  C   C66       1.0  0.50978  0.86237  0.12689  1.0000
  C   C67       1.0  0.9703600000000001  0.05111  0.81371  1.0000
  C   C68       1.0  0.92656  0.02935  0.8513  1.0000
  C   C69       1.0  0.82534  0.04346  0.87226  1.0000
  C   C70       1.0  0.7826200000000001  0.02247  0.90681  1.0000
  C   C71       1.0  0.8387400000000002  0.9865500000000001  0.92104  1.0000
  C   C72       1.0  0.94166  0.97305  0.90029  1.0000
  C   C73       1.0  0.98515  0.9941600000000002  0.86579  1.0000
  C   C74       1.0  0.69918  0.9213400000000002  0.02692  1.0000
  C   C75       1.0  0.7888700000000001  0.96344  0.95673  1.0000
  C   C76       1.0  0.66932  0.9501  0.95702  1.0000
  C   C77       1.0  0.8192900000000001  0.93406  0.0264  1.0000
  C   C78       1.0  0.62839  0.9293  0.9921300000000001  1.0000
  C   C79       1.0  0.8609300000000001  0.9546  0.9910099999999998  1.0000
  C   C80       1.0  0.90118  0.92791  0.06272  1.0000
  C   C81       1.0  0.58546  0.9562  0.92119  1.0000
  C   C82       1.0  0.22125  0.24232  0.65437  1.0000
  C   C83       1.0  0.43176  0.65729  0.34197  1.0000
  C   C84       1.0  0.07656  0.3347  0.68659  1.0000
  C   C85       1.0  0.14237  0.29898  0.67683  1.0000
  C   C86       1.0  0.23624  0.28775  0.7028400000000002  1.0000
  C   C87       1.0  0.20277  0.34301  0.74409  1.0000
  C   C88       1.0  0.45966  0.60224  0.39533  1.0000
  C   C89       1.0  0.52595  0.58298  0.42585  1.0000
  C   C90       1.0  0.63828  0.59807  0.43758  1.0000
  C   C91       1.0  0.68285  0.63291  0.4166900000000001  1.0000
  C   C92       1.0  0.61714  0.65189  0.38559  1.0000
  C   C93       1.0  0.50448  0.63691  0.37468  1.0000
  C   C94       1.0  0.96767  0.44933  0.68603  1.0000
  C   C95       1.0  0.92515  0.47131  0.64861  1.0000
  C   C96       1.0  0.82456  0.45685  0.6276300000000002  1.0000
  C   C97       1.0  0.7825200000000001  0.47779  0.59315  1.0000
  C   C98       1.0  0.83865  0.51389  0.5789  1.0000
  C   C99       1.0  0.9409  0.52771  0.59966  1.0000
  C   C100      1.0  0.98374  0.50672  0.63416  1.0000
  C   C101      1.0  0.69862  0.57819  0.47304  1.0000
  C   C102      1.0  0.78895  0.53681  0.54325  1.0000
  C   C103      1.0  0.66927  0.54974  0.54325  1.0000
  C   C104      1.0  0.8189400000000001  0.5659  0.47327  1.0000
  C   C105      1.0  0.62817  0.57022  0.50816  1.0000
  C   C106      1.0  0.8608  0.54572  0.50868  1.0000
  C   C107      1.0  0.90111  0.57215  0.43675  1.0000
  C   C108      1.0  0.58522  0.54357  0.57929  1.0000
  C   C109      1.0  0.22104  0.75708  0.15432  1.0000
  C   C110      1.0  0.43152000000000007  0.34275  0.84185  1.0000
  C   C111      1.0  0.07376  0.6651  0.18726  1.0000
  C   C112      1.0  0.1406  0.70065  0.17719000000000004  1.0000
  C   C113      1.0  0.23486  0.71196  0.20309000000000005  1.0000
  C   C114      1.0  0.19982  0.65702  0.24477  1.0000
  C   C115      1.0  0.45928  0.39779  0.89526  1.0000
  C   C116      1.0  0.52557  0.41706  0.92586  1.0000
  C   C117      1.0  0.63776  0.40207  0.93757  1.0000
  C   C118      1.0  0.68228  0.36735  0.91663  1.0000
  C   C119      1.0  0.61663  0.34839  0.88545  1.0000
  C   C120      1.0  0.50412  0.36323  0.87458  1.0000
  C   C121      1.0  0.97024  0.55046  0.18624  1.0000
  C   C122      1.0  0.92708  0.52846  0.14877  1.0000
  C   C123      1.0  0.8265200000000001  0.54286  0.12787  1.0000
  C   C124      1.0  0.7841200000000002  0.52208  0.09329  1.0000
  C   C125      1.0  0.83965  0.48606  0.07888  1.0000
  C   C126      1.0  0.94183  0.47223  0.09953  1.0000
  C   C127      1.0  0.98515  0.49312999999999996  0.13409  1.0000
  C   C128      1.0  0.69835  0.4219  0.9730300000000002  1.0000
  C   C129      1.0  0.78937  0.46322  0.04324  1.0000
  C   C130      1.0  0.66945  0.45029000000000013  0.04324  1.0000
  C   C131      1.0  0.8189  0.43415  0.97326  1.0000
  C   C132      1.0  0.62799  0.42983  0.00815  1.0000
  C   C133      1.0  0.86108  0.45433  0.00867  1.0000
  C   C134      1.0  0.90118  0.42787  0.9368100000000003  1.0000
  C   C135      1.0  0.5855  0.45646  0.07928  1.0000
  C   C136      1.0  0.21784  0.74171  0.34544000000000014  1.0000
  C   C137      1.0  0.43810000000000004  0.15824  0.6599300000000002  1.0000
  C   C138      1.0  0.0752  0.83419  0.313  1.0000
  C   C139      1.0  0.14035  0.79845  0.32285000000000014  1.0000
  C   C140      1.0  0.2344  0.78693  0.2968  1.0000
  C   C141      1.0  0.20327  0.84232  0.25558  1.0000
  C   C142      1.0  0.46361  0.10326  0.6064400000000002  1.0000
  C   C143      1.0  0.52807  0.08396000000000003  0.57528  1.0000
  C   C144      1.0  0.64013  0.09884  0.5627100000000003  1.0000
  C   C145      1.0  0.6866  0.1334  0.58345  1.0000
  C   C146      1.0  0.62273  0.15242  0.61519  1.0000
  C   C147      1.0  0.51005  0.13771  0.62687  1.0000
  C   C148      1.0  0.96981  0.94894  0.31391  1.0000
  C   C149      1.0  0.92603  0.97093  0.35129  1.0000
  C   C150      1.0  0.82449  0.95678  0.3722100000000001  1.0000
  C   C151      1.0  0.7819  0.97778  0.40671  1.0000
  C   C152      1.0  0.8384200000000002  0.013730000000000003  0.421  1.0000
  C   C153      1.0  0.94149  0.027310000000000008  0.40023  1.0000
  C   C154      1.0  0.9848400000000002  0.00621  0.36574  1.0000
  C   C155      1.0  0.69928  0.07869  0.52701  1.0000
  C   C156      1.0  0.78878  0.03675  0.4567600000000001  1.0000
  C   C157      1.0  0.66935  0.049990000000000014  0.45706  1.0000
  C   C158      1.0  0.8192100000000001  0.06602  0.52653  1.0000
  C   C159      1.0  0.62853  0.07071  0.49219  1.0000
  C   C160      1.0  0.8607600000000001  0.04557  0.49112  1.0000
  C   C161      1.0  0.90096  0.07214  0.56293  1.0000
  C   C162      1.0  0.58544  0.04385  0.4212200000000001  1.0000
  C   C163      1.0  0.78191  0.74196  0.15457000000000007  1.0000
  C   C164      1.0  0.56222  0.15822  0.8400500000000002  1.0000
  C   C165      1.0  0.9271000000000001  0.8341  0.18761000000000003  1.0000
  C   C166      1.0  0.8608400000000002  0.7985500000000002  0.17744  1.0000
  C   C167      1.0  0.7661700000000001  0.7871  0.20333  1.0000
  C   C168      1.0  0.79883  0.84217  0.24492  1.0000
  C   C169      1.0  0.5365  0.10327  0.89357  1.0000
  C   C170      1.0  0.47197  0.08397  0.92479  1.0000
  C   C171      1.0  0.36009  0.0988  0.93736  1.0000
  C   C172      1.0  0.3138  0.13324  0.91656  1.0000
  C   C173      1.0  0.3776900000000001  0.15224  0.88473  1.0000
  C   C174      1.0  0.49023000000000005  0.13763  0.87311  1.0000
  C   C175      1.0  0.02965  0.9488900000000002  0.18629  1.0000
  C   C176      1.0  0.07345  0.97065  0.1487  1.0000
  C   C177      1.0  0.17467  0.95654  0.12773  1.0000
  C   C178      1.0  0.21738  0.97753  0.09319  1.0000
  C   C179      1.0  0.16127  0.01345  0.07896  1.0000
  C   C180      1.0  0.058350000000000006  0.02695  0.09971  1.0000
  C   C181      1.0  0.014860000000000002  0.00584  0.13421  1.0000
  C   C182      1.0  0.30082999999999993  0.07866  0.9730800000000001  1.0000
  C   C183      1.0  0.21114  0.03656  0.04327  1.0000
  C   C184      1.0  0.33069  0.0499  0.04298  1.0000
  C   C185      1.0  0.18072  0.06594  0.9736  1.0000
  C   C186      1.0  0.37162000000000006  0.0707  0.00787  1.0000
  C   C187      1.0  0.13908  0.0454  0.00899  1.0000
  C   C188      1.0  0.09883  0.07209  0.93728  1.0000
  C   C189      1.0  0.41455  0.0438  0.07881000000000003  1.0000
  C   C190      1.0  0.77876  0.75768  0.34563  1.0000
  C   C191      1.0  0.56825  0.34271  0.65803  1.0000
  C   C192      1.0  0.92345  0.6653  0.31341  1.0000
  C   C193      1.0  0.85764  0.70102  0.32317  1.0000
  C   C194      1.0  0.76377  0.7122500000000002  0.29716  1.0000
  C   C195      1.0  0.79724  0.65699  0.25591  1.0000
  C   C196      1.0  0.54035  0.39776  0.60467  1.0000
  C   C197      1.0  0.4740599999999999  0.41702  0.57415  1.0000
  C   C198      1.0  0.36173  0.40193  0.5624200000000003  1.0000
  C   C199      1.0  0.31716  0.36709  0.58331  1.0000
  C   C200      1.0  0.38287  0.34811  0.61441  1.0000
  C   C201      1.0  0.49552  0.36309  0.62532  1.0000
  C   C202      1.0  0.03234  0.55067  0.31397  1.0000
  C   C203      1.0  0.07486  0.52869  0.35139  1.0000
  C   C204      1.0  0.17545  0.54315  0.37237  1.0000
  C   C205      1.0  0.21749000000000002  0.52221  0.40685  1.0000
  C   C206      1.0  0.16136  0.48611  0.4211000000000001  1.0000
  C   C207      1.0  0.05911  0.47229  0.40034  1.0000
  C   C208      1.0  0.01627  0.49327999999999994  0.36584  1.0000
  C   C209      1.0  0.30139  0.42181  0.52696  1.0000
  C   C210      1.0  0.21106000000000003  0.46319  0.45675000000000004  1.0000
  C   C211      1.0  0.33074  0.45026  0.45675000000000004  1.0000
  C   C212      1.0  0.18106999999999998  0.4341  0.52673  1.0000
  C   C213      1.0  0.37184  0.42978  0.4918400000000001  1.0000
  C   C214      1.0  0.13921  0.45428  0.49132  1.0000
  C   C215      1.0  0.09890000000000002  0.42785  0.56325  1.0000
  C   C216      1.0  0.41479000000000005  0.45643  0.42071  1.0000
  N   N1        1.0  0.86673  0.27006  0.85417  1.0000
  N   N2        1.0  0.7158400000000001  0.2523200000000001  0.81156  1.0000
  N   N3        1.0  0.02002  0.34815  0.8344  1.0000
  N   N4        1.0  0.7328800000000001  0.30962  0.76256  1.0000
  N   N5        1.0  0.8928900000000001  0.35604  0.77788  1.0000
  N   N6        1.0  0.8689500000000001  0.2309  0.6459200000000003  1.0000
  N   N7        1.0  0.71808  0.24899000000000002  0.6887300000000002  1.0000
  N   N8        1.0  0.018720000000000007  0.15258  0.66524  1.0000
  N   N9        1.0  0.73197  0.19146  0.73747  1.0000
  N   N10       1.0  0.8894  0.14444  0.7215900000000002  1.0000
  N   N11       1.0  0.13047  0.23074  0.85388  1.0000
  N   N12       1.0  0.2822  0.24871  0.8113000000000002  1.0000
  N   N13       1.0  0.9781800000000002  0.15274  0.83387  1.0000
  N   N14       1.0  0.26732  0.19138  0.76237  1.0000
  N   N15       1.0  0.10773000000000002  0.1447  0.77765  1.0000
  N   N16       1.0  0.13415  0.26947  0.64572  1.0000
  N   N17       1.0  0.2846  0.25191  0.68841  1.0000
  N   N18       1.0  0.9832  0.34784  0.66477  1.0000
  N   N19       1.0  0.26882  0.30945  0.73711  1.0000
  N   N20       1.0  0.11067000000000002  0.35612  0.72123  1.0000
  N   N21       1.0  0.13327  0.72994  0.14583000000000004  1.0000
  N   N22       1.0  0.28416  0.74768  0.18844  1.0000
  N   N23       1.0  0.97999  0.6518500000000003  0.1656  1.0000
  N   N24       1.0  0.26712  0.69038  0.23744000000000007  1.0000
  N   N25       1.0  0.10712000000000002  0.64396  0.22212  1.0000
  N   N26       1.0  0.13106  0.7691000000000002  0.35408  1.0000
  N   N27       1.0  0.28192  0.75101  0.31127  1.0000
  N   N28       1.0  0.98129  0.84742  0.33476  1.0000
  N   N29       1.0  0.26804  0.80854  0.26253  1.0000
  N   N30       1.0  0.11061000000000001  0.85556  0.27841  1.0000
  N   N31       1.0  0.8695400000000001  0.76926  0.14612000000000006  1.0000
  N   N32       1.0  0.7178099999999998  0.75129  0.1887  1.0000
  N   N33       1.0  0.021820000000000003  0.8472600000000001  0.16612  1.0000
  N   N34       1.0  0.73269  0.80861  0.23763  1.0000
  N   N35       1.0  0.89228  0.8553  0.22235  1.0000
  N   N36       1.0  0.86586  0.73053  0.35428  1.0000
  N   N37       1.0  0.71541  0.74809  0.31159  1.0000
  N   N38       1.0  0.01681  0.65216  0.33523  1.0000
  N   N39       1.0  0.7311900000000001  0.69055  0.26289  1.0000
  N   N40       1.0  0.8893400000000001  0.64388  0.27877000000000013  1.0000
  O   O1        1.0  0.0974  0.41912  0.79998  1.0000
  O   O2        1.0  0.67858  0.65194  0.16041  1.0000
  O   O3        1.0  0.50846  0.68095  0.18328  1.0000
  O   O4        1.0  0.93513  0.45847  0.7959300000000002  1.0000
  O   O5        1.0  0.09728  0.08162  0.6998  1.0000
  O   O6        1.0  0.67268  0.84616  0.33781  1.0000
  O   O7        1.0  0.50159  0.81878  0.31455  1.0000
  O   O8        1.0  0.93522  0.04178  0.7040000000000002  1.0000
  O   O9        1.0  0.9027400000000001  0.08144  0.79989  1.0000
  O   O10       1.0  0.32709  0.84609  0.16226  1.0000
  O   O11       1.0  0.49802  0.81882  0.18543  1.0000
  O   O12       1.0  0.06489000000000003  0.04181  0.79588  1.0000
  O   O13       1.0  0.90158  0.41847  0.6996  1.0000
  O   O14       1.0  0.32162  0.65189  0.3397  1.0000
  O   O15       1.0  0.49189  0.681  0.31676  1.0000
  O   O16       1.0  0.06167  0.45872  0.70426  1.0000
  O   O17       1.0  0.90261  0.58088  0.20001000000000005  1.0000
  O   O18       1.0  0.32143  0.34805  0.8395900000000002  1.0000
  O   O19       1.0  0.49155000000000004  0.31905  0.81672  1.0000
  O   O20       1.0  0.06488  0.54153  0.20407  1.0000
  O   O21       1.0  0.9027300000000001  0.9183800000000001  0.30020000000000013  1.0000
  O   O22       1.0  0.32733  0.15384  0.66219  1.0000
  O   O23       1.0  0.49842000000000003  0.18122  0.68545  1.0000
  O   O24       1.0  0.06478999999999999  0.95822  0.296  1.0000
  O   O25       1.0  0.09727000000000001  0.91856  0.20011  1.0000
  O   O26       1.0  0.67292  0.15391  0.83774  1.0000
  O   O27       1.0  0.50199  0.18118  0.81457  1.0000
  O   O28       1.0  0.9351200000000001  0.9581900000000002  0.20412  1.0000
  O   O29       1.0  0.09843  0.58153  0.3004  1.0000
  O   O30       1.0  0.67839  0.34811  0.6603  1.0000
  O   O31       1.0  0.50812  0.3189900000000001  0.68323  1.0000
  O   O32       1.0  0.9383400000000001  0.54128  0.29574  1.0000
  O   O33       1.0  0.50038  0.2506500000000001  0.74997  1.0000
  O   O34       1.0  0.4996300000000001  0.74935  0.25003  1.0000
