data_image0
_chemical_formula_structural       La6H156C252N12O72
_chemical_formula_sum              "La6 H156 C252 N12 O72"
_cell_length_a       16.24413
_cell_length_b       16.23987
_cell_length_c       30.54141
_cell_angle_alpha    89.99691
_cell_angle_beta     90.00459
_cell_angle_gamma    120.01799000000001

_symmetry_space_group_name_H-M    'P 1'
_symmetry_Int_Tables_number       1

loop_
  _symmetry_equiv_pos_as_xyz
  'x,y,z'

loop_
  _atom_site_type_symbol
  _atom_site_label
  _atom_site_symmetry_multiplicity
  _atom_site_fract_x
  _atom_site_fract_y
  _atom_site_fract_z
  _atom_site_occupancy
  La  La1       1.0  0.6430099999999999  0.6430399999999997  0.5  1.0000
  La  La2       1.0  0.9999000000000001  0.35675999999999997  0.8333600000000002  1.0000
  La  La3       1.0  0.35704  0.99996  0.16668  1.0000
  La  La4       1.0  0.35700999999999994  0.3569099999999999  0.49993  1.0000
  La  La5       1.0  4.999999999994677e-05  0.6429799999999999  0.83329  1.0000
  La  La6       1.0  0.64302  3.999999999999999e-05  0.16665  1.0000
  H   H1        1.0  0.16527000000000006  0.72937  0.72528  1.0000
  H   H2        1.0  0.5091  0.75906  0.54061  1.0000
  H   H3        1.0  0.3142399999999999  0.8367899999999998  0.49885  1.0000
  H   H4        1.0  0.4532199999999999  0.8734799999999998  0.55635  1.0000
  H   H5        1.0  0.23875999999999994  0.5257499999999999  0.57978  1.0000
  H   H6        1.0  0.9960499999999999  0.7900199999999997  0.63736  1.0000
  H   H7        1.0  0.2881399999999999  0.7717099999999998  0.6670300000000002  1.0000
  H   H8        1.0  0.29996999999999996  0.9933899999999998  0.6100700000000002  1.0000
  H   H9        1.0  0.33387999999999995  0.9680399999999999  0.44961  1.0000
  H   H10       1.0  0.11872999999999997  0.83568  0.57944  1.0000
  H   H11       1.0  0.8701300000000001  0.69571  0.7367600000000002  1.0000
  H   H12       1.0  0.18021999999999994  0.63901  0.5953500000000002  1.0000
  H   H13       1.0  0.31684999999999997  0.12231999999999997  0.5596900000000002  1.0000
  H   H14       1.0  0.5640899999999999  0.8347199999999998  0.05856  1.0000
  H   H15       1.0  0.24982999999999997  0.49084  0.8739200000000003  1.0000
  H   H16       1.0  0.52286  0.68586  0.8320900000000001  1.0000
  H   H17       1.0  0.42018  0.5468  0.88963  1.0000
  H   H18       1.0  0.2869899999999999  0.76122  0.9131  1.0000
  H   H19       1.0  0.7940599999999998  0.00392  0.97069  1.0000
  H   H20       1.0  0.48356999999999994  0.71178  0.00032  1.0000
  H   H21       1.0  0.69294  0.7  0.94367  1.0000
  H   H22       1.0  0.63485  0.6661199999999998  0.78308  1.0000
  H   H23       1.0  0.71696  0.88122  0.91277  1.0000
  H   H24       1.0  0.82569  0.12993  0.07006  1.0000
  H   H25       1.0  0.45878999999999986  0.8197999999999998  0.92866  1.0000
  H   H26       1.0  0.80528  0.683  0.89349  1.0000
  H   H27       1.0  0.2706  0.43592  0.39197  1.0000
  H   H28       1.0  0.24093999999999993  0.7500999999999998  0.20729  1.0000
  H   H29       1.0  0.16326  0.47734  0.16553  1.0000
  H   H30       1.0  0.12653  0.57977  0.22307  1.0000
  H   H31       1.0  0.47422  0.7130599999999999  0.24644  1.0000
  H   H32       1.0  0.20992  0.20596999999999993  0.30407  1.0000
  H   H33       1.0  0.22828000000000007  0.51642  0.3337  1.0000
  H   H34       1.0  0.006819999999999989  0.30678  0.27686  1.0000
  H   H35       1.0  0.03182999999999995  0.36559999999999987  0.11635  1.0000
  H   H36       1.0  0.16431  0.28301  0.24614000000000005  1.0000
  H   H37       1.0  0.30423  0.17408999999999997  0.4033  1.0000
  H   H38       1.0  0.36095  0.54121  0.26207  1.0000
  H   H39       1.0  0.8777399999999999  0.19463999999999995  0.22653  1.0000
  H   H40       1.0  0.83464  0.27054  0.72529  1.0000
  H   H41       1.0  0.4908799999999999  0.24086999999999995  0.54059  1.0000
  H   H42       1.0  0.68585  0.16308999999999996  0.49880000000000013  1.0000
  H   H43       1.0  0.54678  0.12649  0.55637  1.0000
  H   H44       1.0  0.7612299999999999  0.47424999999999995  0.57972  1.0000
  H   H45       1.0  0.003899999999999976  0.20988999999999994  0.6374  1.0000
  H   H46       1.0  0.71184  0.22828999999999994  0.66702  1.0000
  H   H47       1.0  0.69996  0.0068499999999999985  0.61024  1.0000
  H   H48       1.0  0.66617  0.03156  0.4497  1.0000
  H   H49       1.0  0.88131  0.16431999999999994  0.5794500000000001  1.0000
  H   H50       1.0  0.12984999999999994  0.3042199999999999  0.73679  1.0000
  H   H51       1.0  0.8197699999999996  0.3610199999999999  0.59534  1.0000
  H   H52       1.0  0.6830899999999998  0.8777199999999997  0.55995  1.0000
  H   H53       1.0  0.43585999999999997  0.16527  0.058580000000000014  1.0000
  H   H54       1.0  0.7501300000000001  0.50912  0.87391  1.0000
  H   H55       1.0  0.47712  0.31413  0.8321  1.0000
  H   H56       1.0  0.57982  0.4532099999999999  0.88966  1.0000
  H   H57       1.0  0.71292  0.23867999999999995  0.91308  1.0000
  H   H58       1.0  0.20589  0.99605  0.97068  1.0000
  H   H59       1.0  0.5164  0.28817  0.00033  1.0000
  H   H60       1.0  0.30700999999999995  0.2999899999999999  0.9436500000000002  1.0000
  H   H61       1.0  0.36515  0.33385  0.78308  1.0000
  H   H62       1.0  0.28303  0.11874999999999997  0.91276  1.0000
  H   H63       1.0  0.17433999999999997  0.87015  0.07013  1.0000
  H   H64       1.0  0.54115  0.18017  0.92868  1.0000
  H   H65       1.0  0.19469  0.31697  0.89346  1.0000
  H   H66       1.0  0.72936  0.56411  0.39196  1.0000
  H   H67       1.0  0.75907  0.24992999999999996  0.20728  1.0000
  H   H68       1.0  0.83693  0.5228599999999999  0.1655  1.0000
  H   H69       1.0  0.87344  0.4203  0.22304  1.0000
  H   H70       1.0  0.52572  0.28686  0.24643  1.0000
  H   H71       1.0  0.79012  0.79406  0.30404  1.0000
  H   H72       1.0  0.77172  0.4835899999999999  0.33371  1.0000
  H   H73       1.0  0.99299  0.69302  0.27702  1.0000
  H   H74       1.0  0.9685999999999998  0.6348299999999999  0.11647000000000002  1.0000
  H   H75       1.0  0.83569  0.7169499999999998  0.24613  1.0000
  H   H76       1.0  0.6957499999999999  0.8256299999999998  0.40344  1.0000
  H   H77       1.0  0.63893  0.4586999999999999  0.26205  1.0000
  H   H78       1.0  0.1222799999999999  0.8053399999999997  0.22682000000000005  1.0000
  H   H79       1.0  0.43581  0.27055  0.60801  1.0000
  H   H80       1.0  0.74999  0.24086999999999995  0.79269  1.0000
  H   H81       1.0  0.47734  0.1632  0.8344800000000001  1.0000
  H   H82       1.0  0.5796600000000001  0.12653  0.77692  1.0000
  H   H83       1.0  0.7131399999999998  0.4743099999999999  0.7535700000000002  1.0000
  H   H84       1.0  0.20595999999999995  0.2099  0.69595  1.0000
  H   H85       1.0  0.5164  0.22832  0.66627  1.0000
  H   H86       1.0  0.30693  0.006959999999999998  0.72308  1.0000
  H   H87       1.0  0.36552  0.031709999999999995  0.88361  1.0000
  H   H88       1.0  0.28306  0.16433999999999996  0.75388  1.0000
  H   H89       1.0  0.17421  0.304  0.59652  1.0000
  H   H90       1.0  0.54131  0.36109999999999987  0.7379700000000002  1.0000
  H   H91       1.0  0.1946899999999999  0.8777799999999998  0.77335  1.0000
  H   H92       1.0  0.72933  0.16525999999999993  0.27472  1.0000
  H   H93       1.0  0.7590400000000002  0.50915  0.4594  1.0000
  H   H94       1.0  0.83684  0.31419  0.50117  1.0000
  H   H95       1.0  0.8734199999999999  0.45323999999999987  0.4436400000000001  1.0000
  H   H96       1.0  0.5257599999999999  0.2388  0.42021  1.0000
  H   H97       1.0  0.7900899999999998  0.9960699999999998  0.36262  1.0000
  H   H98       1.0  0.77166  0.28813  0.33298  1.0000
  H   H99       1.0  0.99298  0.29997  0.38974  1.0000
  H   H100      1.0  0.96833  0.3338599999999999  0.55029  1.0000
  H   H101      1.0  0.83568  0.11874999999999997  0.42054  1.0000
  H   H102      1.0  0.6957499999999999  0.8701099999999998  0.2632  1.0000
  H   H103      1.0  0.63901  0.18023999999999996  0.40461  1.0000
  H   H104      1.0  0.12215999999999992  0.3169799999999999  0.44  1.0000
  H   H105      1.0  0.83472  0.56418  0.9414100000000002  1.0000
  H   H106      1.0  0.49086  0.24984  0.12606  1.0000
  H   H107      1.0  0.6859  0.52288  0.16788  1.0000
  H   H108      1.0  0.54683  0.42022  0.11035000000000003  1.0000
  H   H109      1.0  0.7612200000000001  0.28697  0.08691  1.0000
  H   H110      1.0  0.00397999999999994  0.7940999999999998  0.02932  1.0000
  H   H111      1.0  0.71182  0.4836  0.99965  1.0000
  H   H112      1.0  0.70002  0.6930399999999998  0.05636  1.0000
  H   H113      1.0  0.66614  0.63477  0.21691  1.0000
  H   H114      1.0  0.88129  0.71699  0.08723  1.0000
  H   H115      1.0  0.12982999999999992  0.8256999999999998  0.9299  1.0000
  H   H116      1.0  0.8198299999999998  0.4588199999999999  0.07135  1.0000
  H   H117      1.0  0.68298  0.80529  0.10656  1.0000
  H   H118      1.0  0.56408  0.72939  0.60807  1.0000
  H   H119      1.0  0.2500199999999999  0.7590999999999998  0.79274  1.0000
  H   H120      1.0  0.52266  0.8367799999999997  0.83449  1.0000
  H   H121      1.0  0.42031  0.87352  0.77694  1.0000
  H   H122      1.0  0.28701  0.52577  0.75356  1.0000
  H   H123      1.0  0.7940299999999999  0.7901099999999998  0.69597  1.0000
  H   H124      1.0  0.48362999999999995  0.77183  0.66631  1.0000
  H   H125      1.0  0.69332  0.99335  0.72321  1.0000
  H   H126      1.0  0.6343799999999998  0.9681699999999998  0.88369  1.0000
  H   H127      1.0  0.71701  0.8357899999999998  0.75389  1.0000
  H   H128      1.0  0.82557  0.69577  0.59655  1.0000
  H   H129      1.0  0.4587999999999998  0.6390599999999999  0.73792  1.0000
  H   H130      1.0  0.80548  0.12235999999999998  0.77355  1.0000
  H   H131      1.0  0.27068999999999993  0.8347399999999999  0.27474  1.0000
  H   H132      1.0  0.24104999999999993  0.49092999999999987  0.4594500000000001  1.0000
  H   H133      1.0  0.16298999999999988  0.6858699999999998  0.50122  1.0000
  H   H134      1.0  0.12663  0.54679  0.44363  1.0000
  H   H135      1.0  0.4743  0.76129  0.4202200000000001  1.0000
  H   H136      1.0  0.20989999999999995  0.00392  0.36261  1.0000
  H   H137      1.0  0.2282599999999999  0.7118199999999998  0.33298  1.0000
  H   H138      1.0  0.007029999999999864  0.6999599999999998  0.38964  1.0000
  H   H139      1.0  0.031279999999999905  0.6661999999999998  0.5502200000000002  1.0000
  H   H140      1.0  0.1643099999999999  0.8812399999999998  0.4205300000000001  1.0000
  H   H141      1.0  0.30431  0.12992  0.2632  1.0000
  H   H142      1.0  0.36104999999999987  0.8197999999999998  0.40458  1.0000
  H   H143      1.0  0.8777499999999998  0.6830499999999998  0.43981  1.0000
  H   H144      1.0  0.16530999999999998  0.43582999999999994  0.9414100000000002  1.0000
  H   H145      1.0  0.50915  0.75016  0.12607  1.0000
  H   H146      1.0  0.3141599999999999  0.4771899999999999  0.16787000000000002  1.0000
  H   H147      1.0  0.45321  0.57981  0.11031  1.0000
  H   H148      1.0  0.23877  0.71301  0.08693  1.0000
  H   H149      1.0  0.9960299999999999  0.20588999999999993  0.02932  1.0000
  H   H150      1.0  0.28816  0.51639  0.99967  1.0000
  H   H151      1.0  0.29997  0.30697999999999986  0.05639  1.0000
  H   H152      1.0  0.33387999999999995  0.3652899999999999  0.21693  1.0000
  H   H153      1.0  0.11869999999999994  0.28299999999999986  0.08724  1.0000
  H   H154      1.0  0.86987  0.17425  0.93001  1.0000
  H   H155      1.0  0.18019999999999994  0.5411699999999999  0.07132  1.0000
  H   H156      1.0  0.31695  0.19467999999999994  0.10660000000000003  1.0000
  C   C1        1.0  0.37808  0.63579  0.56024  1.0000
  C   C2        1.0  0.3128999999999999  0.7635799999999998  0.57723  1.0000
  C   C3        1.0  0.1568999999999999  0.7534299999999998  0.6932200000000002  1.0000
  C   C4        1.0  0.4375199999999999  0.7338199999999998  0.55294  1.0000
  C   C5        1.0  0.31569999999999987  0.8994799999999997  0.51227  1.0000
  C   C6        1.0  0.4060699999999999  0.7976299999999997  0.56147  1.0000
  C   C7        1.0  0.2112999999999999  0.80645  0.61944  1.0000
  C   C8        1.0  0.28496  0.60211  0.57542  1.0000
  C   C9        1.0  0.30228999999999995  0.90506  0.55756  1.0000
  C   C10       1.0  0.06106999999999986  0.7884899999999998  0.6439900000000002  1.0000
  C   C11       1.0  0.22479  0.77647  0.66071  1.0000
  C   C12       1.0  0.30668  0.9876  0.57493  1.0000
  C   C13       1.0  0.32685  0.97268  0.48481  1.0000
  C   C14       1.0  0.41341  0.56748  0.5513  1.0000
  C   C15       1.0  0.12949999999999992  0.8132699999999998  0.61144  1.0000
  C   C16       1.0  0.004290000000000036  0.73223  0.7216  1.0000
  C   C17       1.0  0.32458999999999993  0.12623  0.4721  1.0000
  C   C18       1.0  0.25252999999999987  0.66507  0.584  1.0000
  C   C19       1.0  0.07456999999999991  0.7588199999999998  0.68521  1.0000
  C   C20       1.0  0.31673  0.05953999999999999  0.54707  1.0000
  C   C21       1.0  0.32462  0.051939999999999986  0.50158  1.0000
  C   C22       1.0  0.25763  0.62185  0.89356  1.0000
  C   C23       1.0  0.45063  0.68714  0.91052  1.0000
  C   C24       1.0  0.59648  0.84308  0.0265  1.0000
  C   C25       1.0  0.29623  0.56245  0.8862500000000002  1.0000
  C   C26       1.0  0.5838999999999998  0.6842699999999998  0.84564  1.0000
  C   C27       1.0  0.39147  0.59393  0.89475  1.0000
  C   C28       1.0  0.5950899999999999  0.7887099999999998  0.95274  1.0000
  C   C29       1.0  0.3171299999999999  0.7150299999999998  0.90875  1.0000
  C   C30       1.0  0.6026899999999998  0.6976499999999998  0.8909700000000003  1.0000
  C   C31       1.0  0.72746  0.9389199999999998  0.97731  1.0000
  C   C32       1.0  0.55163  0.7751799999999998  0.9940000000000002  1.0000
  C   C33       1.0  0.68066  0.69323  0.90851  1.0000
  C   C34       1.0  0.64609  0.67307  0.8183200000000003  1.0000
  C   C35       1.0  0.15398999999999993  0.58654  0.88463  1.0000
  C   C36       1.0  0.68375  0.8704799999999998  0.94475  1.0000
  C   C37       1.0  0.7275899999999998  0.9957599999999998  0.05488000000000001  1.0000
  C   C38       1.0  0.80196  0.6753399999999998  0.8061  1.0000
  C   C39       1.0  0.41249  0.74747  0.9173  1.0000
  C   C40       1.0  0.6841899999999999  0.9253999999999998  0.0185  1.0000
  C   C41       1.0  0.74266  0.6831199999999997  0.88081  1.0000
  C   C42       1.0  0.72734  0.67523  0.8353  1.0000
  C   C43       1.0  0.3641799999999999  0.7423499999999997  0.2269  1.0000
  C   C44       1.0  0.23646999999999999  0.54935  0.24392000000000003  1.0000
  C   C45       1.0  0.24658  0.4035  0.35991  1.0000
  C   C46       1.0  0.2661999999999999  0.7037299999999997  0.21960000000000002  1.0000
  C   C47       1.0  0.10053999999999995  0.4161699999999999  0.17897  1.0000
  C   C48       1.0  0.20236999999999994  0.6084499999999999  0.22815  1.0000
  C   C49       1.0  0.19357999999999995  0.4048599999999999  0.28612  1.0000
  C   C50       1.0  0.39790999999999993  0.6828999999999998  0.24208  1.0000
  C   C51       1.0  0.09498  0.39727  0.22428  1.0000
  C   C52       1.0  0.21147999999999997  0.27256  0.31067  1.0000
  C   C53       1.0  0.22353  0.4483  0.32739  1.0000
  C   C54       1.0  0.01250999999999993  0.3192099999999999  0.24172  1.0000
  C   C55       1.0  0.027249999999999937  0.3540599999999999  0.15156  1.0000
  C   C56       1.0  0.4326299999999999  0.8460199999999998  0.21801  1.0000
  C   C57       1.0  0.18671999999999994  0.3162099999999999  0.27812  1.0000
  C   C58       1.0  0.26788  0.27215999999999996  0.38827  1.0000
  C   C59       1.0  0.8735599999999998  0.19813999999999996  0.13913  1.0000
  C   C60       1.0  0.33492  0.58749  0.25067  1.0000
  C   C61       1.0  0.24118999999999996  0.31575999999999993  0.35186000000000006  1.0000
  C   C62       1.0  0.94052  0.25729  0.21392  1.0000
  C   C63       1.0  0.9480500000000001  0.27269  0.16843  1.0000
  C   C64       1.0  0.6218499999999997  0.3641399999999999  0.56021  1.0000
  C   C65       1.0  0.68711  0.23644999999999994  0.57722  1.0000
  C   C66       1.0  0.84307  0.24651999999999993  0.69323  1.0000
  C   C67       1.0  0.56247  0.26613  0.55289  1.0000
  C   C68       1.0  0.68434  0.10045  0.5123  1.0000
  C   C69       1.0  0.5939499999999998  0.20234999999999995  0.56145  1.0000
  C   C70       1.0  0.7887299999999999  0.19360999999999998  0.61943  1.0000
  C   C71       1.0  0.7150199999999998  0.39789999999999986  0.57536  1.0000
  C   C72       1.0  0.69771  0.09498  0.5576  1.0000
  C   C73       1.0  0.9388899999999997  0.21144999999999994  0.64401  1.0000
  C   C74       1.0  0.7752  0.22352999999999998  0.6607  1.0000
  C   C75       1.0  0.69327  0.012519999999999998  0.5751  1.0000
  C   C76       1.0  0.67316  0.027139999999999994  0.48491  1.0000
  C   C77       1.0  0.5863999999999998  0.43238  0.5513400000000002  1.0000
  C   C78       1.0  0.8705  0.18673  0.61144  1.0000
  C   C79       1.0  0.9956499999999999  0.26754  0.72161  1.0000
  C   C80       1.0  0.67552  0.8735099999999999  0.47263  1.0000
  C   C81       1.0  0.74748  0.33497  0.58396  1.0000
  C   C82       1.0  0.92537  0.24109  0.68522  1.0000
  C   C83       1.0  0.6832099999999999  0.9404999999999999  0.54732  1.0000
  C   C84       1.0  0.67537  0.9480099999999998  0.50184  1.0000
  C   C85       1.0  0.74232  0.37811  0.89355  1.0000
  C   C86       1.0  0.54933  0.31283999999999995  0.91053  1.0000
  C   C87       1.0  0.40347  0.15689  0.026520000000000005  1.0000
  C   C88       1.0  0.70372  0.4375  0.88623  1.0000
  C   C89       1.0  0.41607  0.3157  0.84564  1.0000
  C   C90       1.0  0.6084899999999999  0.40604  0.89475  1.0000
  C   C91       1.0  0.40487  0.21125999999999995  0.95275  1.0000
  C   C92       1.0  0.68281  0.2849099999999999  0.90872  1.0000
  C   C93       1.0  0.39728  0.3023299999999999  0.89096  1.0000
  C   C94       1.0  0.2724999999999999  0.06103999999999998  0.97731  1.0000
  C   C95       1.0  0.44833  0.22476999999999994  0.9940000000000002  1.0000
  C   C96       1.0  0.3193  0.30674  0.9085  1.0000
  C   C97       1.0  0.35388999999999987  0.3269  0.81831  1.0000
  C   C98       1.0  0.84597  0.41342  0.88466  1.0000
  C   C99       1.0  0.31622  0.12947  0.94475  1.0000
  C   C100      1.0  0.27226  0.00428  0.05492  1.0000
  C   C101      1.0  0.198  0.32459  0.80609  1.0000
  C   C102      1.0  0.58746  0.25249  0.9173  1.0000
  C   C103      1.0  0.31575  0.07456  0.01851  1.0000
  C   C104      1.0  0.2573  0.31685  0.88078  1.0000
  C   C105      1.0  0.27264  0.32473  0.8352800000000002  1.0000
  C   C106      1.0  0.63582  0.25765999999999994  0.22688  1.0000
  C   C107      1.0  0.7634699999999999  0.45062999999999986  0.24392000000000003  1.0000
  C   C108      1.0  0.7533899999999998  0.5965  0.35989  1.0000
  C   C109      1.0  0.7338  0.29628  0.21960000000000002  1.0000
  C   C110      1.0  0.89958  0.58393  0.17902000000000004  1.0000
  C   C111      1.0  0.79761  0.3915599999999999  0.22815  1.0000
  C   C112      1.0  0.80635  0.59511  0.28612  1.0000
  C   C113      1.0  0.60204  0.31705  0.24208  1.0000
  C   C114      1.0  0.90502  0.60272  0.22434  1.0000
  C   C115      1.0  0.7885299999999997  0.72746  0.31066  1.0000
  C   C116      1.0  0.77645  0.55168  0.32738  1.0000
  C   C117      1.0  0.98743  0.68071  0.24187000000000003  1.0000
  C   C118      1.0  0.9729399999999999  0.6461199999999998  0.1517  1.0000
  C   C119      1.0  0.56742  0.15402  0.21797  1.0000
  C   C120      1.0  0.81326  0.68377  0.27812  1.0000
  C   C121      1.0  0.73187  0.7276499999999998  0.3882300000000001  1.0000
  C   C122      1.0  0.12651999999999994  0.8020499999999999  0.13947  1.0000
  C   C123      1.0  0.66502  0.41246  0.25068  1.0000
  C   C124      1.0  0.75878  0.6842199999999999  0.35186000000000006  1.0000
  C   C125      1.0  0.05951999999999987  0.7427099999999998  0.21416  1.0000
  C   C126      1.0  0.05203999999999999  0.72739  0.16866000000000006  1.0000
  C   C127      1.0  0.74234  0.3642  0.7731000000000002  1.0000
  C   C128      1.0  0.54937  0.23651999999999995  0.7560800000000002  1.0000
  C   C129      1.0  0.40341  0.24655999999999995  0.64008  1.0000
  C   C130      1.0  0.7036699999999999  0.26615999999999995  0.78037  1.0000
  C   C131      1.0  0.41619  0.10054  0.8210000000000002  1.0000
  C   C132      1.0  0.60844  0.2024  0.7718300000000002  1.0000
  C   C133      1.0  0.40488  0.19365999999999994  0.71388  1.0000
  C   C134      1.0  0.68292  0.3979399999999999  0.75791  1.0000
  C   C135      1.0  0.39731999999999995  0.09504999999999997  0.7757  1.0000
  C   C136      1.0  0.27254  0.2115  0.68932  1.0000
  C   C137      1.0  0.4483099999999998  0.22359  0.6726  1.0000
  C   C138      1.0  0.3193  0.01259  0.75822  1.0000
  C   C139      1.0  0.35405  0.02723  0.84839  1.0000
  C   C140      1.0  0.8459999999999996  0.4324699999999999  0.78201  1.0000
  C   C141      1.0  0.31624  0.18679  0.72188  1.0000
  C   C142      1.0  0.27177  0.26747  0.6117  1.0000
  C   C143      1.0  0.19805999999999996  0.8735399999999998  0.86069  1.0000
  C   C144      1.0  0.58756  0.33502999999999994  0.74933  1.0000
  C   C145      1.0  0.31568  0.24113  0.6481  1.0000
  C   C146      1.0  0.2573499999999998  0.9405499999999998  0.7859900000000002  1.0000
  C   C147      1.0  0.27271999999999985  0.9480799999999998  0.83148  1.0000
  C   C148      1.0  0.63582  0.37816  0.43976  1.0000
  C   C149      1.0  0.7634799999999999  0.31286  0.42277000000000003  1.0000
  C   C150      1.0  0.75337  0.15689  0.30677  1.0000
  C   C151      1.0  0.7338  0.43753  0.44706  1.0000
  C   C152      1.0  0.89951  0.31573  0.48769  1.0000
  C   C153      1.0  0.7975999999999999  0.4060999999999999  0.43854  1.0000
  C   C154      1.0  0.8063399999999997  0.21127999999999997  0.38055  1.0000
  C   C155      1.0  0.60207  0.28496  0.42457000000000006  1.0000
  C   C156      1.0  0.90498  0.30233999999999994  0.44237  1.0000
  C   C157      1.0  0.7885  0.06109  0.356  1.0000
  C   C158      1.0  0.77638  0.22475  0.3393  1.0000
  C   C159      1.0  0.9873899999999999  0.3067599999999999  0.4248800000000001  1.0000
  C   C160      1.0  0.9728199999999999  0.3268699999999999  0.51507  1.0000
  C   C161      1.0  0.56743  0.41338999999999987  0.4486700000000001  1.0000
  C   C162      1.0  0.8132299999999998  0.1295  0.38856  1.0000
  C   C163      1.0  0.73219  0.004329999999999999  0.2783700000000001  1.0000
  C   C164      1.0  0.12649999999999992  0.3244399999999999  0.52728  1.0000
  C   C165      1.0  0.6650400000000001  0.25256  0.416  1.0000
  C   C166      1.0  0.75881  0.07457  0.3148  1.0000
  C   C167      1.0  0.059409999999999914  0.3168299999999999  0.45264  1.0000
  C   C168      1.0  0.05190999999999997  0.32462999999999986  0.49814  1.0000
  C   C169      1.0  0.62191  0.25767999999999996  0.10646000000000003  1.0000
  C   C170      1.0  0.68714  0.45065  0.08945  1.0000
  C   C171      1.0  0.8431  0.59656  0.97348  1.0000
  C   C172      1.0  0.56247  0.29623  0.11375  1.0000
  C   C173      1.0  0.68431  0.58393  0.15435  1.0000
  C   C174      1.0  0.5939499999999998  0.39151999999999987  0.10521000000000003  1.0000
  C   C175      1.0  0.7887599999999999  0.5951299999999998  0.04725  1.0000
  C   C176      1.0  0.71504  0.31713  0.09126  1.0000
  C   C177      1.0  0.69769  0.6027299999999998  0.10903000000000003  1.0000
  C   C178      1.0  0.9389599999999997  0.7274899999999997  0.0227  1.0000
  C   C179      1.0  0.7752199999999999  0.5516999999999999  0.00598  1.0000
  C   C180      1.0  0.69326  0.68071  0.0915  1.0000
  C   C181      1.0  0.67311  0.64608  0.18169000000000005  1.0000
  C   C182      1.0  0.5866599999999998  0.15404999999999994  0.11537  1.0000
  C   C183      1.0  0.87053  0.6837999999999997  0.05525  1.0000
  C   C184      1.0  0.9957399999999998  0.72785  0.94509  1.0000
  C   C185      1.0  0.6754499999999999  0.8020399999999998  0.19386  1.0000
  C   C186      1.0  0.74749  0.41254  0.08268  1.0000
  C   C187      1.0  0.9254499999999998  0.6842699999999998  0.98149  1.0000
  C   C188      1.0  0.68313  0.74268  0.11922  1.0000
  C   C189      1.0  0.6752799999999999  0.7273399999999998  0.16471  1.0000
  C   C190      1.0  0.25774  0.6358299999999999  0.7731300000000002  1.0000
  C   C191      1.0  0.4507  0.7636  0.7560800000000002  1.0000
  C   C192      1.0  0.59652  0.75345  0.64013  1.0000
  C   C193      1.0  0.29638  0.73386  0.78044  1.0000
  C   C194      1.0  0.5838499999999999  0.8994799999999997  0.8210600000000002  1.0000
  C   C195      1.0  0.3915999999999999  0.7976499999999997  0.77187  1.0000
  C   C196      1.0  0.5952  0.8065099999999998  0.7139000000000002  1.0000
  C   C197      1.0  0.31719999999999987  0.6021299999999998  0.75794  1.0000
  C   C198      1.0  0.6027799999999999  0.9050799999999998  0.77575  1.0000
  C   C199      1.0  0.72747  0.7885499999999998  0.68934  1.0000
  C   C200      1.0  0.55172  0.77654  0.67264  1.0000
  C   C201      1.0  0.6808899999999999  0.9876099999999998  0.7583500000000002  1.0000
  C   C202      1.0  0.64593  0.97275  0.84848  1.0000
  C   C203      1.0  0.15404  0.5675  0.78196  1.0000
  C   C204      1.0  0.6838199999999999  0.8133399999999997  0.7219  1.0000
  C   C205      1.0  0.72769  0.7319599999999998  0.61176  1.0000
  C   C206      1.0  0.8016399999999999  0.12632999999999997  0.86112  1.0000
  C   C207      1.0  0.41255  0.66509  0.74933  1.0000
  C   C208      1.0  0.68421  0.7588099999999998  0.64814  1.0000
  C   C209      1.0  0.74281  0.05959  0.78618  1.0000
  C   C210      1.0  0.72734  0.05201  0.83167  1.0000
  C   C211      1.0  0.36423  0.62192  0.4398  1.0000
  C   C212      1.0  0.23653999999999986  0.6871799999999998  0.42277000000000003  1.0000
  C   C213      1.0  0.24663999999999991  0.8430899999999998  0.3067900000000001  1.0000
  C   C214      1.0  0.26625999999999994  0.5625499999999999  0.44713  1.0000
  C   C215      1.0  0.10036999999999999  0.68431  0.48767  1.0000
  C   C216      1.0  0.20244999999999988  0.5939699999999998  0.43857  1.0000
  C   C217      1.0  0.19363999999999995  0.7887199999999998  0.38056  1.0000
  C   C218      1.0  0.3979799999999999  0.7151299999999998  0.42461  1.0000
  C   C219      1.0  0.0949699999999999  0.6976599999999997  0.44234  1.0000
  C   C220      1.0  0.21149  0.93891  0.356  1.0000
  C   C221      1.0  0.22358000000000006  0.77521  0.3393100000000001  1.0000
  C   C222      1.0  0.012580000000000023  0.69325  0.42479  1.0000
  C   C223      1.0  0.026990000000000035  0.67314  0.51498  1.0000
  C   C224      1.0  0.43259  0.58661  0.44863  1.0000
  C   C225      1.0  0.1867599999999999  0.8704899999999998  0.38856  1.0000
  C   C226      1.0  0.26821999999999996  0.9957599999999998  0.27842  1.0000
  C   C227      1.0  0.8734499999999996  0.6754999999999998  0.52718  1.0000
  C   C228      1.0  0.3349999999999998  0.7475099999999998  0.416  1.0000
  C   C229      1.0  0.24124999999999983  0.9254099999999997  0.31481  1.0000
  C   C230      1.0  0.9404799999999999  0.6831799999999998  0.4525  1.0000
  C   C231      1.0  0.9479299999999999  0.6753399999999998  0.498  1.0000
  C   C232      1.0  0.37814  0.74238  0.10644  1.0000
  C   C233      1.0  0.31285  0.54935  0.08947  1.0000
  C   C234      1.0  0.15688999999999995  0.4034299999999999  0.97348  1.0000
  C   C235      1.0  0.43755  0.70379  0.11375  1.0000
  C   C236      1.0  0.3157099999999999  0.4160999999999999  0.15436  1.0000
  C   C237      1.0  0.40604  0.60848  0.10523  1.0000
  C   C238      1.0  0.21123999999999996  0.4048599999999999  0.04726  1.0000
  C   C239      1.0  0.2849899999999999  0.6828999999999998  0.09128000000000003  1.0000
  C   C240      1.0  0.3023199999999999  0.3972899999999999  0.10905  1.0000
  C   C241      1.0  0.06105000000000003  0.2725  0.02271  1.0000
  C   C242      1.0  0.22477999999999995  0.4482799999999999  0.00598  1.0000
  C   C243      1.0  0.30673  0.3192899999999999  0.09152  1.0000
  C   C244      1.0  0.3269  0.35394999999999993  0.18171  1.0000
  C   C245      1.0  0.41344  0.84605  0.11534  1.0000
  C   C246      1.0  0.12948  0.31619  0.05525  1.0000
  C   C247      1.0  0.004239999999999925  0.2720999999999999  0.94511  1.0000
  C   C248      1.0  0.32461  0.19802  0.19393  1.0000
  C   C249      1.0  0.25251  0.58747  0.08270000000000002  1.0000
  C   C250      1.0  0.07453999999999997  0.3157099999999999  0.9815  1.0000
  C   C251      1.0  0.31683  0.25732  0.11926  1.0000
  C   C252      1.0  0.32471  0.27265999999999996  0.16474  1.0000
  N   N1        1.0  0.2790599999999999  0.8271199999999999  0.5855000000000002  1.0000
  N   N2        1.0  0.54797  0.72098  0.9188  1.0000
  N   N3        1.0  0.17292999999999994  0.45195999999999986  0.25219  1.0000
  N   N4        1.0  0.7209999999999998  0.17298  0.58549  1.0000
  N   N5        1.0  0.452  0.27901  0.91881  1.0000
  N   N6        1.0  0.8269699999999996  0.5480099999999999  0.25219  1.0000
  N   N7        1.0  0.45201  0.17304  0.74781  1.0000
  N   N8        1.0  0.82699  0.27904  0.41449  1.0000
  N   N9        1.0  0.7210399999999999  0.5480399999999997  0.08119  1.0000
  N   N10       1.0  0.5480699999999998  0.8271299999999999  0.74783  1.0000
  N   N11       1.0  0.17301999999999995  0.72098  0.41449  1.0000
  N   N12       1.0  0.279  0.45197999999999994  0.08118  1.0000
  O   O1        1.0  0.35358  0.47937  0.55191  1.0000
  O   O2        1.0  0.02961999999999999  0.72829  0.7596500000000003  1.0000
  O   O3        1.0  0.50191  0.6043599999999998  0.5431700000000002  1.0000
  O   O4        1.0  0.32567  0.11527999999999997  0.43083  1.0000
  O   O5        1.0  0.32046  0.19308  0.49147000000000013  1.0000
  O   O6        1.0  0.9198999999999999  0.7158899999999998  0.70998  1.0000
  O   O7        1.0  0.12581999999999993  0.6464399999999998  0.88524  1.0000
  O   O8        1.0  0.69755  0.9706199999999998  0.09286  1.0000
  O   O9        1.0  0.10223999999999991  0.4980099999999999  0.87649  1.0000
  O   O10       1.0  0.7905699999999999  0.6744399999999998  0.7648  1.0000
  O   O11       1.0  0.87239  0.67932  0.82601  1.0000
  O   O12       1.0  0.79612  0.07997  0.0433  1.0000
  O   O13       1.0  0.52059  0.87413  0.21862000000000006  1.0000
  O   O14       1.0  0.27221  0.30173  0.42626  1.0000
  O   O15       1.0  0.3958199999999998  0.8977799999999998  0.2099  1.0000
  O   O16       1.0  0.88412  0.20963  0.09783  1.0000
  O   O17       1.0  0.8069299999999999  0.12746  0.15879  1.0000
  O   O18       1.0  0.28387  0.20384999999999995  0.37663  1.0000
  O   O19       1.0  0.64635  0.5205  0.55194  1.0000
  O   O20       1.0  0.9702699999999997  0.27107999999999993  0.75972  1.0000
  O   O21       1.0  0.49789  0.39561  0.5432600000000002  1.0000
  O   O22       1.0  0.67454  0.88384  0.43132  1.0000
  O   O23       1.0  0.6797  0.80706  0.49248  1.0000
  O   O24       1.0  0.08009999999999995  0.28415999999999997  0.70997  1.0000
  O   O25       1.0  0.87409  0.35351  0.88528  1.0000
  O   O26       1.0  0.30196  0.02954  0.09294  1.0000
  O   O27       1.0  0.89776  0.50197  0.87653  1.0000
  O   O28       1.0  0.20922  0.32535  0.76479  1.0000
  O   O29       1.0  0.12765  0.3207  0.82605  1.0000
  O   O30       1.0  0.2039599999999999  0.9199499999999998  0.043330000000000014  1.0000
  O   O31       1.0  0.47946  0.12584999999999996  0.21862000000000006  1.0000
  O   O32       1.0  0.7270799999999998  0.6977199999999998  0.42623  1.0000
  O   O33       1.0  0.6043199999999999  0.10230999999999997  0.20985  1.0000
  O   O34       1.0  0.11606999999999996  0.7908199999999999  0.09816000000000003  1.0000
  O   O35       1.0  0.193  0.87244  0.15942000000000006  1.0000
  O   O36       1.0  0.7160899999999999  0.7960899999999997  0.37665  1.0000
  O   O37       1.0  0.87429  0.52058  0.78138  1.0000
  O   O38       1.0  0.3005399999999999  0.2709  0.5735800000000001  1.0000
  O   O39       1.0  0.8976299999999998  0.39557  0.7901500000000002  1.0000
  O   O40       1.0  0.20925999999999984  0.8840099999999997  0.90199  1.0000
  O   O41       1.0  0.1276299999999999  0.8069499999999997  0.84082  1.0000
  O   O42       1.0  0.20399  0.28413999999999995  0.62338  1.0000
  O   O43       1.0  0.47946999999999995  0.3536699999999999  0.44806  1.0000
  O   O44       1.0  0.72819  0.0296  0.24036  1.0000
  O   O45       1.0  0.60438  0.50204  0.45684000000000013  1.0000
  O   O46       1.0  0.11596999999999998  0.325  0.5686  1.0000
  O   O47       1.0  0.19304  0.32077  0.50732  1.0000
  O   O48       1.0  0.71588  0.91989  0.29003  1.0000
  O   O49       1.0  0.6465499999999998  0.12591  0.11472  1.0000
  O   O50       1.0  0.9705299999999998  0.6983399999999997  0.90705  1.0000
  O   O51       1.0  0.49817999999999996  0.10238999999999998  0.12352000000000003  1.0000
  O   O52       1.0  0.67469  0.79085  0.2352  1.0000
  O   O53       1.0  0.6793799999999998  0.8723999999999997  0.17392  1.0000
  O   O54       1.0  0.08004999999999995  0.79608  0.9567  1.0000
  O   O55       1.0  0.12587999999999996  0.4794399999999999  0.78141  1.0000
  O   O56       1.0  0.69786  0.72737  0.57374  1.0000
  O   O57       1.0  0.10224999999999994  0.6042899999999999  0.7899700000000002  1.0000
  O   O58       1.0  0.78968  0.11560999999999998  0.90239  1.0000
  O   O59       1.0  0.87266  0.19308  0.8417  1.0000
  O   O60       1.0  0.79601  0.71601  0.62332  1.0000
  O   O61       1.0  0.5205799999999999  0.6465299999999999  0.4480800000000001  1.0000
  O   O62       1.0  0.27313  0.9706099999999998  0.24044000000000004  1.0000
  O   O63       1.0  0.39581  0.49795  0.45666  1.0000
  O   O64       1.0  0.88388  0.67463  0.56849  1.0000
  O   O65       1.0  0.80702  0.67949  0.50724  1.0000
  O   O66       1.0  0.28395  0.08  0.28999  1.0000
  O   O67       1.0  0.3535  0.87415  0.11471  1.0000
  O   O68       1.0  0.029529999999999994  0.30165  0.90708  1.0000
  O   O69       1.0  0.5018999999999998  0.8977799999999998  0.12348  1.0000
  O   O70       1.0  0.32548  0.20925999999999995  0.23524  1.0000
  O   O71       1.0  0.32059  0.12753999999999996  0.17403  1.0000
  O   O72       1.0  0.9199199999999998  0.20388999999999993  0.95671  1.0000
