data_image0
_chemical_formula_structural       Cu6P12H162C210Br6N6
_chemical_formula_sum              "Cu6 P12 H162 C210 Br6 N6"
_cell_length_a       18.70533
_cell_length_b       18.70497
_cell_length_c       21.01388
_cell_angle_alpha    90.02364
_cell_angle_beta     89.97637000000002
_cell_angle_gamma    120.04902999999999

_symmetry_space_group_name_H-M    'P 1'
_symmetry_Int_Tables_number       1

loop_
  _symmetry_equiv_pos_as_xyz
  'x,y,z'

loop_
  _atom_site_type_symbol
  _atom_site_label
  _atom_site_symmetry_multiplicity
  _atom_site_fract_x
  _atom_site_fract_y
  _atom_site_fract_z
  _atom_site_occupancy
  Cu  Cu1       1.0  0.15886  0.66543  0.00783  1.0000
  Cu  Cu2       1.0  0.3345399999999999  0.4933399999999999  0.67437  1.0000
  Cu  Cu3       1.0  0.50649  0.8412  0.34107999999999994  1.0000
  Cu  Cu4       1.0  0.66543  0.15885999999999995  0.9921799999999998  1.0000
  Cu  Cu5       1.0  0.4933399999999999  0.3345399999999999  0.32563  1.0000
  Cu  Cu6       1.0  0.8411900000000001  0.5065  0.65892  1.0000
  P   P1        1.0  0.26507  0.6524  0.97211  1.0000
  P   P2        1.0  0.33168999999999993  0.47754999999999986  0.7807599999999999  1.0000
  P   P3        1.0  0.34766  0.61264  0.63869  1.0000
  P   P4        1.0  0.52251  0.8542399999999998  0.44742  1.0000
  P   P5        1.0  0.38724  0.73483  0.30538999999999994  1.0000
  P   P6        1.0  0.14565999999999998  0.6680499999999998  0.11417  1.0000
  P   P7        1.0  0.65239  0.26508  0.02789  1.0000
  P   P8        1.0  0.47754  0.3317  0.21925  1.0000
  P   P9        1.0  0.61264  0.34767  0.36131  1.0000
  P   P10       1.0  0.8542400000000001  0.52251  0.55258  1.0000
  P   P11       1.0  0.7348199999999999  0.38724999999999987  0.69462  1.0000
  P   P12       1.0  0.66805  0.14567  0.8858299999999999  1.0000
  H   H1        1.0  0.3458500000000001  0.57341  0.90004  1.0000
  H   H2        1.0  0.18875  0.47622  0.7356099999999999  1.0000
  H   H3        1.0  0.14471999999999993  0.62003  0.8746899999999999  1.0000
  H   H4        1.0  0.047840000000000014  0.41586  0.72653  1.0000
  H   H5        1.0  0.9269500000000002  0.40649  0.6693799999999999  1.0000
  H   H6        1.0  0.98088  0.6386  0.73028  1.0000
  H   H7        1.0  0.10725999999999998  0.6602  0.7878199999999999  1.0000
  H   H8        1.0  0.36831  0.68281  0.08573999999999998  1.0000
  H   H9        1.0  0.38223  0.5891999999999997  0.16109  1.0000
  H   H10       1.0  0.30708  0.43775  0.14253  1.0000
  H   H11       1.0  0.21693  0.37976  0.04699999999999999  1.0000
  H   H12       1.0  0.20261999999999997  0.4731599999999999  0.97108  1.0000
  H   H13       1.0  0.30418  0.81364  0.9349899999999999  1.0000
  H   H14       1.0  0.43417999999999984  0.9413899999999997  0.9054499999999999  1.0000
  H   H15       1.0  0.5688800000000002  0.94637  0.9150699999999999  1.0000
  H   H16       1.0  0.57357  0.82216  0.95117  1.0000
  H   H17       1.0  0.4442999999999999  0.6933799999999998  0.9781899999999999  1.0000
  H   H18       1.0  0.24941  0.40042  0.90399  1.0000
  H   H19       1.0  0.18794000000000005  0.25684  0.94431  1.0000
  H   H20       1.0  0.18328999999999998  0.14660999999999993  0.8747699999999999  1.0000
  H   H21       1.0  0.23841000000000004  0.1804  0.76416  1.0000
  H   H22       1.0  0.2956  0.32348  0.7228999999999999  1.0000
  H   H23       1.0  0.47096000000000005  0.64279  0.77887  1.0000
  H   H24       1.0  0.6035600000000001  0.71439  0.8362699999999997  1.0000
  H   H25       1.0  0.63892  0.6385699999999997  0.91688  1.0000
  H   H26       1.0  0.53845  0.49048  0.9394799999999999  1.0000
  H   H27       1.0  0.40466000000000013  0.41954  0.88347  1.0000
  H   H28       1.0  0.42676  0.77251  0.56677  1.0000
  H   H29       1.0  0.5236599999999998  0.7126399999999998  0.40216999999999997  1.0000
  H   H30       1.0  0.38003  0.5246899999999998  0.54123  1.0000
  H   H31       1.0  0.58405  0.63212  0.39307999999999993  1.0000
  H   H32       1.0  0.59345  0.5204999999999999  0.3359599999999999  1.0000
  H   H33       1.0  0.36141  0.34208  0.39696  1.0000
  H   H34       1.0  0.33976  0.44688  0.45448999999999995  1.0000
  H   H35       1.0  0.3173699999999999  0.6854699999999998  0.75236  1.0000
  H   H36       1.0  0.41101  0.79306  0.8277599999999999  1.0000
  H   H37       1.0  0.56245  0.86955  0.8091399999999999  1.0000
  H   H38       1.0  0.62038  0.83741  0.7135499999999999  1.0000
  H   H39       1.0  0.52694  0.7296  0.63761  1.0000
  H   H40       1.0  0.18637  0.49034  0.60166  1.0000
  H   H41       1.0  0.05859999999999997  0.49247999999999986  0.5722  1.0000
  H   H42       1.0  0.053799999999999855  0.6223199999999998  0.58179  1.0000
  H   H43       1.0  0.1780099999999999  0.7513499999999997  0.6178999999999999  1.0000
  H   H44       1.0  0.30681  0.75096  0.6448499999999999  1.0000
  H   H45       1.0  0.59958  0.84911  0.57061  1.0000
  H   H46       1.0  0.7431999999999999  0.9311699999999998  0.61091  1.0000
  H   H47       1.0  0.8534  0.03701  0.5415  1.0000
  H   H48       1.0  0.81973  0.05817  0.43082999999999994  1.0000
  H   H49       1.0  0.6765900000000001  0.97228  0.38960999999999996  1.0000
  H   H50       1.0  0.35733  0.82822  0.4454  1.0000
  H   H51       1.0  0.28577  0.88924  0.5029  1.0000
  H   H52       1.0  0.36163  0.00036  0.58365  1.0000
  H   H53       1.0  0.50968  0.04799  0.60633  1.0000
  H   H54       1.0  0.5805399999999998  0.9851399999999998  0.5502  1.0000
  H   H55       1.0  0.22734000000000001  0.65399  0.23346  1.0000
  H   H56       1.0  0.28737  0.8109699999999997  0.06906  1.0000
  H   H57       1.0  0.47528000000000004  0.8551499999999997  0.208  1.0000
  H   H58       1.0  0.3680300000000001  0.9519  0.05991  1.0000
  H   H59       1.0  0.47959  0.07289  0.00279  1.0000
  H   H60       1.0  0.65797  0.01944  0.06362  1.0000
  H   H61       1.0  0.55325  0.893  0.12115999999999999  1.0000
  H   H62       1.0  0.31437000000000004  0.63163  0.41901  1.0000
  H   H63       1.0  0.20684999999999998  0.6177299999999999  0.49445999999999996  1.0000
  H   H64       1.0  0.1304899999999999  0.6927499999999998  0.4759399999999999  1.0000
  H   H65       1.0  0.16277  0.7829  0.38043  1.0000
  H   H66       1.0  0.2704500000000001  0.79716  0.3043699999999999  1.0000
  H   H67       1.0  0.50948  0.69594  0.26834  1.0000
  H   H68       1.0  0.5073  0.56596  0.23887999999999998  1.0000
  H   H69       1.0  0.37749  0.43125  0.24841  1.0000
  H   H70       1.0  0.24844999999999992  0.4263299999999999  0.28452  1.0000
  H   H71       1.0  0.2488699999999999  0.5555299999999997  0.3115299999999999  1.0000
  H   H72       1.0  0.15074999999999988  0.7502399999999998  0.2375  1.0000
  H   H73       1.0  0.06878999999999988  0.8119299999999998  0.27773  1.0000
  H   H74       1.0  0.9633000000000002  0.81655  0.20819  1.0000
  H   H75       1.0  0.9422300000000001  0.7616799999999998  0.09751  1.0000
  H   H76       1.0  0.027959999999999922  0.7042599999999998  0.05631  1.0000
  H   H77       1.0  0.17163999999999985  0.5288399999999998  0.11223  1.0000
  H   H78       1.0  0.11054  0.3963  0.16972  1.0000
  H   H79       1.0  0.99925  0.3609  0.25034  1.0000
  H   H80       1.0  0.95188  0.4614899999999999  0.27309  1.0000
  H   H81       1.0  0.014779999999999963  0.59518  0.21697  1.0000
  H   H82       1.0  0.57341  0.3458599999999999  0.09996  1.0000
  H   H83       1.0  0.4762200000000001  0.18875  0.26439  1.0000
  H   H84       1.0  0.62002  0.14472  0.12531  1.0000
  H   H85       1.0  0.4158500000000001  0.04784  0.27347  1.0000
  H   H86       1.0  0.4064899999999999  0.92696  0.33062  1.0000
  H   H87       1.0  0.6386  0.98089  0.26972  1.0000
  H   H88       1.0  0.6602  0.10726  0.21219  1.0000
  H   H89       1.0  0.6828  0.36831999999999987  0.91426  1.0000
  H   H90       1.0  0.5891900000000001  0.38224  0.83892  1.0000
  H   H91       1.0  0.43775  0.3070799999999999  0.8574799999999999  1.0000
  H   H92       1.0  0.37976  0.21693999999999994  0.953  1.0000
  H   H93       1.0  0.4731600000000001  0.20263  0.02892  1.0000
  H   H94       1.0  0.81363  0.30418  0.06501  1.0000
  H   H95       1.0  0.9413900000000001  0.43419  0.09455  1.0000
  H   H96       1.0  0.94636  0.56889  0.08494  1.0000
  H   H97       1.0  0.82215  0.5735799999999998  0.04884  1.0000
  H   H98       1.0  0.6933800000000003  0.44431  0.02181  1.0000
  H   H99       1.0  0.40041  0.24941  0.09602  1.0000
  H   H100      1.0  0.25683000000000006  0.18794  0.05569999999999999  1.0000
  H   H101      1.0  0.14660000000000004  0.18329  0.12523  1.0000
  H   H102      1.0  0.18039  0.23842  0.23584999999999998  1.0000
  H   H103      1.0  0.32348  0.2956  0.2771  1.0000
  H   H104      1.0  0.6427899999999999  0.4709699999999999  0.22113  1.0000
  H   H105      1.0  0.71439  0.6035699999999998  0.16374  1.0000
  H   H106      1.0  0.63857  0.63892  0.08313  1.0000
  H   H107      1.0  0.4904700000000001  0.53845  0.06052  1.0000
  H   H108      1.0  0.41954  0.40467  0.11653  1.0000
  H   H109      1.0  0.7724999999999999  0.42676999999999987  0.43323  1.0000
  H   H110      1.0  0.71264  0.52367  0.59784  1.0000
  H   H111      1.0  0.52468  0.38002999999999987  0.4587799999999999  1.0000
  H   H112      1.0  0.6321099999999997  0.5840499999999997  0.60692  1.0000
  H   H113      1.0  0.5205  0.59345  0.66404  1.0000
  H   H114      1.0  0.3420799999999999  0.3614099999999999  0.6030399999999999  1.0000
  H   H115      1.0  0.44688  0.33977  0.5455099999999999  1.0000
  H   H116      1.0  0.6854699999999999  0.31738  0.24764999999999998  1.0000
  H   H117      1.0  0.79305  0.41101  0.17223999999999998  1.0000
  H   H118      1.0  0.8695500000000002  0.56245  0.19087  1.0000
  H   H119      1.0  0.8374  0.62039  0.28646  1.0000
  H   H120      1.0  0.7296  0.52694  0.36239  1.0000
  H   H121      1.0  0.49034000000000005  0.18638  0.3983499999999999  1.0000
  H   H122      1.0  0.49247  0.05860999999999999  0.4278  1.0000
  H   H123      1.0  0.6223100000000001  0.05380999999999998  0.41821  1.0000
  H   H124      1.0  0.75134  0.17802  0.3821  1.0000
  H   H125      1.0  0.75095  0.30681  0.35515  1.0000
  H   H126      1.0  0.84911  0.59959  0.42939  1.0000
  H   H127      1.0  0.9311700000000002  0.7432  0.38908999999999994  1.0000
  H   H128      1.0  0.03701000000000002  0.8534  0.45851  1.0000
  H   H129      1.0  0.05816999999999997  0.81973  0.56917  1.0000
  H   H130      1.0  0.97227  0.6766  0.61039  1.0000
  H   H131      1.0  0.82821  0.35734  0.5546  1.0000
  H   H132      1.0  0.88923  0.28578  0.4971  1.0000
  H   H133      1.0  0.0003600000000000098  0.36164  0.41634999999999994  1.0000
  H   H134      1.0  0.04799000000000003  0.50968  0.39366999999999996  1.0000
  H   H135      1.0  0.9851300000000001  0.58054  0.4498  1.0000
  H   H136      1.0  0.65398  0.22735  0.7665399999999999  1.0000
  H   H137      1.0  0.8109700000000002  0.28738  0.93094  1.0000
  H   H138      1.0  0.8551499999999999  0.4752899999999999  0.792  1.0000
  H   H139      1.0  0.9518900000000002  0.36804  0.9401  1.0000
  H   H140      1.0  0.07288  0.4796  0.9972099999999998  1.0000
  H   H141      1.0  0.01942999999999994  0.6579799999999999  0.9363899999999998  1.0000
  H   H142      1.0  0.89299  0.55326  0.8788399999999998  1.0000
  H   H143      1.0  0.6316200000000001  0.31438  0.581  1.0000
  H   H144      1.0  0.6177300000000001  0.20684999999999995  0.50554  1.0000
  H   H145      1.0  0.69274  0.1305  0.5240699999999999  1.0000
  H   H146      1.0  0.7829000000000002  0.16278  0.6195799999999999  1.0000
  H   H147      1.0  0.7971600000000001  0.27046  0.69563  1.0000
  H   H148      1.0  0.69594  0.50949  0.73166  1.0000
  H   H149      1.0  0.56596  0.50731  0.76112  1.0000
  H   H150      1.0  0.43124000000000007  0.37749  0.75159  1.0000
  H   H151      1.0  0.42632  0.24844999999999998  0.7154899999999998  1.0000
  H   H152      1.0  0.55552  0.24888  0.68847  1.0000
  H   H153      1.0  0.75023  0.15075  0.7625  1.0000
  H   H154      1.0  0.8119200000000002  0.06879  0.72227  1.0000
  H   H155      1.0  0.8165399999999999  0.9632999999999998  0.7918099999999999  1.0000
  H   H156      1.0  0.7616699999999997  0.9422399999999997  0.90249  1.0000
  H   H157      1.0  0.70426  0.02796999999999999  0.94369  1.0000
  H   H158      1.0  0.52883  0.17164  0.88778  1.0000
  H   H159      1.0  0.39629000000000003  0.11054  0.8302899999999998  1.0000
  H   H160      1.0  0.36088999999999993  0.9992499999999999  0.74966  1.0000
  H   H161      1.0  0.46148  0.95188  0.7269099999999998  1.0000
  H   H162      1.0  0.5951700000000001  0.014779999999999996  0.78303  1.0000
  C   C1        1.0  0.24607  0.60047  0.89449  1.0000
  C   C2        1.0  0.29336  0.56611  0.8725199999999999  1.0000
  C   C3        1.0  0.27244  0.52154  0.81551  1.0000
  C   C4        1.0  0.20404999999999995  0.5109399999999997  0.78014  1.0000
  C   C5        1.0  0.1584  0.54743  0.8003799999999999  1.0000
  C   C6        1.0  0.18055  0.59272  0.85759  1.0000
  C   C7        1.0  0.08759999999999994  0.5387999999999997  0.7634599999999999  1.0000
  C   C8        1.0  0.03590999999999998  0.4671299999999999  0.72854  1.0000
  C   C9        1.0  0.9681500000000001  0.4613799999999999  0.69672  1.0000
  C   C10       1.0  0.99933  0.59171  0.7303  1.0000
  C   C11       1.0  0.0684  0.60238  0.76293  1.0000
  C   C12       1.0  0.28557999999999995  0.58492  0.02222  1.0000
  C   C13       1.0  0.33574  0.61668  0.07652  1.0000
  C   C14       1.0  0.3433300000000001  0.56379  0.1193  1.0000
  C   C15       1.0  0.30095999999999995  0.4784899999999999  0.10884  1.0000
  C   C16       1.0  0.25038  0.44613  0.05530999999999999  1.0000
  C   C17       1.0  0.2424900000000001  0.4988600000000001  0.012419999999999997  1.0000
  C   C18       1.0  0.36336  0.81554  0.9382199999999999  1.0000
  C   C19       1.0  0.43646000000000007  0.88757  0.9222699999999999  1.0000
  C   C20       1.0  0.5121399999999999  0.8902199999999998  0.92748  1.0000
  C   C21       1.0  0.51465  0.82032  0.9478  1.0000
  C   C22       1.0  0.44175000000000003  0.74766  0.9630499999999999  1.0000
  C   C23       1.0  0.36556  0.74519  0.9587  1.0000
  C   C24       1.0  0.27864  0.3716299999999999  0.81124  1.0000
  C   C25       1.0  0.24666000000000002  0.35216  0.87334  1.0000
  C   C26       1.0  0.21240000000000006  0.27141  0.8960999999999999  1.0000
  C   C27       1.0  0.20998  0.20949  0.8570699999999999  1.0000
  C   C28       1.0  0.24087  0.22835  0.79498  1.0000
  C   C29       1.0  0.2743  0.30893  0.77192  1.0000
  C   C30       1.0  0.42785  0.52599  0.82713  1.0000
  C   C31       1.0  0.48533000000000004  0.60932  0.8141799999999999  1.0000
  C   C32       1.0  0.5603900000000002  0.64979  0.8467799999999999  1.0000
  C   C33       1.0  0.57996  0.60735  0.89207  1.0000
  C   C34       1.0  0.52367  0.52434  0.90477  1.0000
  C   C35       1.0  0.44792  0.4839499999999999  0.87276  1.0000
  C   C36       1.0  0.3995700000000001  0.64562  0.56108  1.0000
  C   C37       1.0  0.43395000000000006  0.7273  0.53916  1.0000
  C   C38       1.0  0.47849  0.75096  0.48212999999999995  1.0000
  C   C39       1.0  0.48899000000000004  0.69315  0.44671  1.0000
  C   C40       1.0  0.45255000000000006  0.61099  0.46692  1.0000
  C   C41       1.0  0.4073  0.5878399999999998  0.52416  1.0000
  C   C42       1.0  0.46116  0.54877  0.43005999999999994  1.0000
  C   C43       1.0  0.53283  0.56882  0.39511  1.0000
  C   C44       1.0  0.53859  0.50679  0.36334  1.0000
  C   C45       1.0  0.40826999999999997  0.4074899999999999  0.39699  1.0000
  C   C46       1.0  0.39758999999999994  0.46589999999999987  0.42958999999999997  1.0000
  C   C47       1.0  0.4152099999999999  0.7007299999999997  0.6888  1.0000
  C   C48       1.0  0.38350000000000006  0.7191  0.7431299999999998  1.0000
  C   C49       1.0  0.4363899999999999  0.7796099999999998  0.78594  1.0000
  C   C50       1.0  0.5217  0.8226199999999998  0.7754499999999999  1.0000
  C   C51       1.0  0.55402  0.8044299999999998  0.7219  1.0000
  C   C52       1.0  0.50127  0.74376  0.67898  1.0000
  C   C53       1.0  0.1845  0.54763  0.60488  1.0000
  C   C54       1.0  0.11248999999999998  0.54868  0.5889799999999998  1.0000
  C   C55       1.0  0.10990999999999987  0.6217299999999998  0.59419  1.0000
  C   C56       1.0  0.17985999999999988  0.6942599999999998  0.6145  1.0000
  C   C57       1.0  0.2525  0.69405  0.6297  1.0000
  C   C58       1.0  0.25491  0.62031  0.62532  1.0000
  C   C59       1.0  0.6283899999999999  0.9072499999999998  0.4779399999999999  1.0000
  C   C60       1.0  0.64784  0.89469  0.5399999999999999  1.0000
  C   C61       1.0  0.7286000000000001  0.94119  0.56276  1.0000
  C   C62       1.0  0.79053  0.00076  0.52377  1.0000
  C   C63       1.0  0.7717200000000002  0.01277  0.46168999999999993  1.0000
  C   C64       1.0  0.6911200000000001  0.96561  0.43862999999999996  1.0000
  C   C65       1.0  0.47409000000000007  0.90193  0.49379  1.0000
  C   C66       1.0  0.39077  0.87605  0.48079  1.0000
  C   C67       1.0  0.35034999999999994  0.9106299999999998  0.51343  1.0000
  C   C68       1.0  0.39282000000000017  0.97263  0.55881  1.0000
  C   C69       1.0  0.47582  0.9993699999999999  0.57155  1.0000
  C   C70       1.0  0.51615  0.96402  0.53949  1.0000
  C   C71       1.0  0.35429  0.7537399999999997  0.22780999999999998  1.0000
  C   C72       1.0  0.27258  0.70645  0.2059  1.0000
  C   C73       1.0  0.24895000000000003  0.72735  0.14892  1.0000
  C   C74       1.0  0.30683  0.79574  0.11356  1.0000
  C   C75       1.0  0.38903  0.8414499999999998  0.13374  1.0000
  C   C76       1.0  0.41213  0.8193  0.19092  1.0000
  C   C77       1.0  0.45128  0.91233  0.09686  1.0000
  C   C78       1.0  0.43129  0.96394  0.06195  1.0000
  C   C79       1.0  0.4933  0.03176  0.03014  1.0000
  C   C80       1.0  0.5925700000000003  0.00086  0.06369  1.0000
  C   C81       1.0  0.5341700000000001  0.9317299999999997  0.09632  1.0000
  C   C82       1.0  0.29917000000000005  0.71424  0.3555  1.0000
  C   C83       1.0  0.28079000000000004  0.66414  0.40981  1.0000
  C   C84       1.0  0.22030000000000002  0.65655  0.45264  1.0000
  C   C85       1.0  0.17736999999999997  0.69887  0.44221  1.0000
  C   C86       1.0  0.19562  0.74943  0.38869  1.0000
  C   C87       1.0  0.25625000000000003  0.75731  0.34573  1.0000
  C   C88       1.0  0.4522  0.6367  0.27158  1.0000
  C   C89       1.0  0.45113  0.56364  0.25565  1.0000
  C   C90       1.0  0.37806  0.4879399999999999  0.26083  1.0000
  C   C91       1.0  0.30555  0.48532  0.28115  1.0000
  C   C92       1.0  0.30577  0.55816  0.29638  1.0000
  C   C93       1.0  0.37954  0.63439  0.29201  1.0000
  C   C94       1.0  0.09279000000000003  0.72101  0.14473  1.0000
  C   C95       1.0  0.10527999999999997  0.75299  0.20682999999999999  1.0000
  C   C96       1.0  0.05886999999999996  0.7873399999999999  0.22956  1.0000
  C   C97       1.0  0.9994599999999999  0.7898299999999998  0.1905  1.0000
  C   C98       1.0  0.9875200000000001  0.759  0.1284  1.0000
  C   C99       1.0  0.03458000000000003  0.72548  0.10536  1.0000
  C   C100      1.0  0.09789999999999992  0.5718899999999998  0.16048999999999997  1.0000
  C   C101      1.0  0.12373999999999998  0.51444  0.14754999999999996  1.0000
  C   C102      1.0  0.08909000000000006  0.43942  0.18018  1.0000
  C   C103      1.0  0.027030000000000005  0.41985  0.22551999999999997  1.0000
  C   C104      1.0  0.00042999999999999847  0.47618  0.23826  1.0000
  C   C105      1.0  0.035820000000000074  0.55188  0.20621  1.0000
  C   C106      1.0  0.60046  0.24607  0.10551  1.0000
  C   C107      1.0  0.5661  0.29336  0.12748  1.0000
  C   C108      1.0  0.52153  0.27244  0.18449  1.0000
  C   C109      1.0  0.5109400000000001  0.20406  0.21985999999999994  1.0000
  C   C110      1.0  0.54743  0.15840999999999994  0.19962999999999997  1.0000
  C   C111      1.0  0.59272  0.18056  0.14240999999999998  1.0000
  C   C112      1.0  0.53879  0.08760999999999997  0.23654  1.0000
  C   C113      1.0  0.4671300000000001  0.03591  0.27146999999999993  1.0000
  C   C114      1.0  0.46137000000000006  0.96817  0.30328  1.0000
  C   C115      1.0  0.5917  0.9993399999999999  0.2697  1.0000
  C   C116      1.0  0.60237  0.0684  0.23707  1.0000
  C   C117      1.0  0.58492  0.28559  0.9777799999999998  1.0000
  C   C118      1.0  0.61667  0.33574  0.9234899999999999  1.0000
  C   C119      1.0  0.56379  0.34334  0.8807  1.0000
  C   C120      1.0  0.47848000000000007  0.3009599999999999  0.8911699999999999  1.0000
  C   C121      1.0  0.4461300000000001  0.25039  0.94469  1.0000
  C   C122      1.0  0.4988600000000001  0.24248999999999996  0.98758  1.0000
  C   C123      1.0  0.81554  0.3633599999999999  0.06177999999999999  1.0000
  C   C124      1.0  0.88756  0.43647  0.07772999999999998  1.0000
  C   C125      1.0  0.8902200000000001  0.51213  0.07252999999999998  1.0000
  C   C126      1.0  0.8203100000000002  0.51466  0.0522  1.0000
  C   C127      1.0  0.7476600000000002  0.44174999999999986  0.03696  1.0000
  C   C128      1.0  0.74518  0.36557  0.0413  1.0000
  C   C129      1.0  0.37163  0.27864  0.18875999999999998  1.0000
  C   C130      1.0  0.3521599999999999  0.24665999999999993  0.12667  1.0000
  C   C131      1.0  0.27141  0.21240999999999993  0.1039  1.0000
  C   C132      1.0  0.20949  0.20999  0.14294  1.0000
  C   C133      1.0  0.22833999999999993  0.24086999999999995  0.20502  1.0000
  C   C134      1.0  0.30893  0.2743  0.22808999999999996  1.0000
  C   C135      1.0  0.52598  0.42785  0.17287  1.0000
  C   C136      1.0  0.60932  0.48534  0.18582  1.0000
  C   C137      1.0  0.64978  0.56039  0.15322999999999998  1.0000
  C   C138      1.0  0.60735  0.5799699999999998  0.10793  1.0000
  C   C139      1.0  0.52432  0.52367  0.09523999999999999  1.0000
  C   C140      1.0  0.48395  0.44793  0.12724  1.0000
  C   C141      1.0  0.64561  0.39958  0.43892  1.0000
  C   C142      1.0  0.7273000000000001  0.43396  0.46083999999999997  1.0000
  C   C143      1.0  0.7509599999999998  0.4784899999999999  0.51787  1.0000
  C   C144      1.0  0.69314  0.48899  0.5532899999999998  1.0000
  C   C145      1.0  0.61098  0.45255  0.53308  1.0000
  C   C146      1.0  0.58784  0.40731  0.47584999999999994  1.0000
  C   C147      1.0  0.54877  0.46117  0.56995  1.0000
  C   C148      1.0  0.56881  0.53283  0.60488  1.0000
  C   C149      1.0  0.50679  0.5386  0.63667  1.0000
  C   C150      1.0  0.40749  0.40829  0.60302  1.0000
  C   C151      1.0  0.4658900000000001  0.39759  0.57041  1.0000
  C   C152      1.0  0.70072  0.41522  0.3112  1.0000
  C   C153      1.0  0.71909  0.3835  0.25688  1.0000
  C   C154      1.0  0.7796  0.4363999999999999  0.21406  1.0000
  C   C155      1.0  0.82261  0.5217  0.22455  1.0000
  C   C156      1.0  0.80443  0.55403  0.27811  1.0000
  C   C157      1.0  0.7437500000000002  0.5012699999999998  0.32102  1.0000
  C   C158      1.0  0.54763  0.18449999999999994  0.39511999999999997  1.0000
  C   C159      1.0  0.54867  0.11249999999999998  0.41103  1.0000
  C   C160      1.0  0.62173  0.10991  0.40582  1.0000
  C   C161      1.0  0.69425  0.17986999999999995  0.3855  1.0000
  C   C162      1.0  0.69404  0.2525  0.3703099999999999  1.0000
  C   C163      1.0  0.6203  0.25491  0.37468  1.0000
  C   C164      1.0  0.90724  0.6284  0.52206  1.0000
  C   C165      1.0  0.89469  0.64785  0.45999999999999996  1.0000
  C   C166      1.0  0.9411800000000001  0.7286  0.43723999999999996  1.0000
  C   C167      1.0  0.0007599999999999995  0.79054  0.47623999999999994  1.0000
  C   C168      1.0  0.012760000000000025  0.77173  0.5383199999999999  1.0000
  C   C169      1.0  0.96561  0.69113  0.5613699999999999  1.0000
  C   C170      1.0  0.9019200000000002  0.4740799999999999  0.50622  1.0000
  C   C171      1.0  0.87605  0.39079  0.51922  1.0000
  C   C172      1.0  0.91062  0.35035  0.48657999999999996  1.0000
  C   C173      1.0  0.9726300000000001  0.39283  0.44119  1.0000
  C   C174      1.0  0.99936  0.47581  0.42844999999999994  1.0000
  C   C175      1.0  0.96402  0.5161599999999997  0.46051  1.0000
  C   C176      1.0  0.75374  0.35429  0.7721899999999999  1.0000
  C   C177      1.0  0.70644  0.27259  0.7940999999999999  1.0000
  C   C178      1.0  0.72734  0.24894999999999998  0.8510799999999998  1.0000
  C   C179      1.0  0.7957299999999998  0.3068399999999999  0.8864399999999999  1.0000
  C   C180      1.0  0.84144  0.38904  0.8662699999999999  1.0000
  C   C181      1.0  0.8192900000000002  0.4121399999999999  0.8090799999999999  1.0000
  C   C182      1.0  0.91232  0.4513  0.9031399999999999  1.0000
  C   C183      1.0  0.96394  0.4312899999999999  0.9380599999999999  1.0000
  C   C184      1.0  0.03175999999999992  0.49331999999999987  0.96986  1.0000
  C   C185      1.0  0.000859999999999902  0.5925799999999998  0.93632  1.0000
  C   C186      1.0  0.93173  0.5341699999999998  0.90368  1.0000
  C   C187      1.0  0.71424  0.29918  0.6444999999999999  1.0000
  C   C188      1.0  0.66413  0.28079  0.5901899999999999  1.0000
  C   C189      1.0  0.65655  0.22031  0.54737  1.0000
  C   C190      1.0  0.69886  0.17736999999999994  0.55779  1.0000
  C   C191      1.0  0.7494200000000001  0.19562999999999994  0.61132  1.0000
  C   C192      1.0  0.75731  0.25625  0.6542699999999999  1.0000
  C   C193      1.0  0.63669  0.4522  0.72842  1.0000
  C   C194      1.0  0.56363  0.4511399999999999  0.74435  1.0000
  C   C195      1.0  0.48793  0.37806  0.73917  1.0000
  C   C196      1.0  0.4853100000000001  0.30556  0.71886  1.0000
  C   C197      1.0  0.55816  0.30577  0.70362  1.0000
  C   C198      1.0  0.6343799999999999  0.3795499999999999  0.70799  1.0000
  C   C199      1.0  0.72101  0.09279  0.85527  1.0000
  C   C200      1.0  0.7529800000000002  0.10529  0.7931699999999999  1.0000
  C   C201      1.0  0.78733  0.05887  0.77045  1.0000
  C   C202      1.0  0.7898199999999999  0.99947  0.8095  1.0000
  C   C203      1.0  0.759  0.98752  0.8716099999999999  1.0000
  C   C204      1.0  0.72547  0.03459  0.89464  1.0000
  C   C205      1.0  0.57188  0.0979  0.83951  1.0000
  C   C206      1.0  0.51444  0.12375  0.8524599999999999  1.0000
  C   C207      1.0  0.43941  0.08907999999999998  0.8198199999999999  1.0000
  C   C208      1.0  0.41985000000000006  0.02704  0.77448  1.0000
  C   C209      1.0  0.47617  0.00043  0.76174  1.0000
  C   C210      1.0  0.55187  0.03582999999999999  0.7937899999999999  1.0000
  Br  Br1       1.0  0.16365  0.79247  0.96593  1.0000
  Br  Br2       1.0  0.20764000000000002  0.37102  0.63227  1.0000
  Br  Br3       1.0  0.62895  0.83705  0.29879  1.0000
  Br  Br4       1.0  0.79246  0.16366  0.03407  1.0000
  Br  Br5       1.0  0.37100999999999995  0.20763999999999994  0.36774  1.0000
  Br  Br6       1.0  0.8370499999999998  0.62896  0.70121  1.0000
  N   N1        1.0  0.94875  0.5219299999999998  0.6978799999999998  1.0000
  N   N2        1.0  0.47805  0.42676  0.36456  1.0000
  N   N3        1.0  0.57333  0.05134  0.03128  1.0000
  N   N4        1.0  0.52192  0.94876  0.30212  1.0000
  N   N5        1.0  0.42674  0.47804999999999986  0.6354399999999999  1.0000
  N   N6        1.0  0.05133000000000003  0.57333  0.9687299999999999  1.0000
