data_image0
_chemical_formula_structural       Co8H160C212N16O56
_chemical_formula_sum              "Co8 H160 C212 N16 O56"
_cell_length_a       10.71393
_cell_length_b       23.89002
_cell_length_c       22.819699999999997
_cell_angle_alpha    94.66804000000002
_cell_angle_beta     103.34441
_cell_angle_gamma    90.16306

_symmetry_space_group_name_H-M    'P 1'
_symmetry_Int_Tables_number       1

loop_
  _symmetry_equiv_pos_as_xyz
  'x,y,z'

loop_
  _atom_site_type_symbol
  _atom_site_label
  _atom_site_symmetry_multiplicity
  _atom_site_fract_x
  _atom_site_fract_y
  _atom_site_fract_z
  _atom_site_occupancy
  Co  Co1       1.0  0.12906  0.41951999999999995  0.5693  1.0000
  Co  Co2       1.0  0.6534599999999999  0.43037  0.9872899999999999  1.0000
  Co  Co3       1.0  0.5574599999999998  0.07984999999999999  0.43045999999999995  1.0000
  Co  Co4       1.0  0.66764  0.06975  0.01677  1.0000
  Co  Co5       1.0  0.87068  0.58037  0.43188  1.0000
  Co  Co6       1.0  0.34152  0.56965  0.0132  1.0000
  Co  Co7       1.0  0.44271999999999995  0.92103  0.56971  1.0000
  Co  Co8       1.0  0.3316999999999999  0.93034  0.9825  1.0000
  H   H1        1.0  0.1617099999999999  0.53253  0.77097  1.0000
  H   H2        1.0  0.83849  0.57295  0.62858  1.0000
  H   H3        1.0  0.8096  0.46128  0.80945  1.0000
  H   H4        1.0  0.61169  0.3598  0.31278  1.0000
  H   H5        1.0  0.9194199999999998  0.24343  0.31956  1.0000
  H   H6        1.0  0.11603  0.3568799999999999  0.77549  1.0000
  H   H7        1.0  0.58069  0.5027  0.77537  1.0000
  H   H8        1.0  0.39106999999999986  0.8301  0.63956  1.0000
  H   H9        1.0  0.029830000000000044  0.68085  0.82856  1.0000
  H   H10       1.0  0.9893399999999998  0.72411  0.76682  1.0000
  H   H11       1.0  0.73972  0.41583  0.4044  1.0000
  H   H12       1.0  0.55055  0.43532  0.849  1.0000
  H   H13       1.0  0.51444  0.21432  0.17755  1.0000
  H   H14       1.0  0.18726999999999994  0.74468  0.85238  1.0000
  H   H15       1.0  0.22964999999999997  0.46646  0.69418  1.0000
  H   H16       1.0  0.7663999999999999  0.60081  0.71284  1.0000
  H   H17       1.0  0.8654399999999999  0.65112  0.68937  1.0000
  H   H18       1.0  0.34215  0.81764  0.90918  1.0000
  H   H19       1.0  0.63401  0.48765  0.62191  1.0000
  H   H20       1.0  0.50928  0.75708  0.70024  1.0000
  H   H21       1.0  0.8455599999999999  0.45221  0.6788  1.0000
  H   H22       1.0  0.9668299999999999  0.52156  0.88707  1.0000
  H   H23       1.0  0.42617  0.24771999999999997  0.07477  1.0000
  H   H24       1.0  0.7572299999999998  0.36265  0.22645  1.0000
  H   H25       1.0  0.66808  0.39563999999999994  0.12415999999999999  1.0000
  H   H26       1.0  0.27427  0.41815  0.85489  1.0000
  H   H27       1.0  0.7017999999999999  0.8680899999999998  0.5698  1.0000
  H   H28       1.0  0.63418  0.6828399999999999  0.72878  1.0000
  H   H29       1.0  0.6995199999999999  0.74054  0.78228  1.0000
  H   H30       1.0  0.9141399999999997  0.50257  0.5606  1.0000
  H   H31       1.0  0.8770899999999999  0.62412  0.85714  1.0000
  H   H32       1.0  0.75848  0.67631  0.85957  1.0000
  H   H33       1.0  0.8851599999999998  0.8431  0.90515  1.0000
  H   H34       1.0  0.6453099999999999  0.33334  0.75732  1.0000
  H   H35       1.0  0.73696  0.62155  0.9292  1.0000
  H   H36       1.0  0.8356599999999998  0.7952599999999999  0.62687  1.0000
  H   H37       1.0  0.43526  0.36550999999999995  0.69657  1.0000
  H   H38       1.0  0.051520000000000045  0.30161  0.40975  1.0000
  H   H39       1.0  0.6869999999999999  0.55237  0.9943799999999999  1.0000
  H   H40       1.0  0.055210000000000016  0.91323  0.95906  1.0000
  H   H41       1.0  0.3930699999999998  0.96767  0.22831999999999997  1.0000
  H   H42       1.0  0.20708999999999997  0.92596  0.3695  1.0000
  H   H43       1.0  0.004859999999999983  0.03652  0.18980999999999998  1.0000
  H   H44       1.0  0.29545999999999994  0.14171  0.68905  1.0000
  H   H45       1.0  0.59994  0.25585  0.67936  1.0000
  H   H46       1.0  0.34488  0.14171  0.22505  1.0000
  H   H47       1.0  0.80982  0.9967299999999998  0.22753999999999996  1.0000
  H   H48       1.0  0.7499699999999998  0.67221  0.36183  1.0000
  H   H49       1.0  0.19993  0.81997  0.16836  1.0000
  H   H50       1.0  0.22248  0.77659  0.23007  1.0000
  H   H51       1.0  0.32899  0.08434  0.59753  1.0000
  H   H52       1.0  0.7061099999999998  0.06501000000000001  0.15528  1.0000
  H   H53       1.0  0.3342999999999999  0.28568  0.82341  1.0000
  H   H54       1.0  0.33474  0.7548699999999999  0.14517  1.0000
  H   H55       1.0  0.53578  0.03362  0.30588  1.0000
  H   H56       1.0  0.05337000000000002  0.89849  0.28588  1.0000
  H   H57       1.0  0.17607  0.8484599999999999  0.30846  1.0000
  H   H58       1.0  0.4304599999999999  0.68165  0.08739  1.0000
  H   H59       1.0  0.01389  0.011790000000000005  0.37971  1.0000
  H   H60       1.0  0.80911  0.7429599999999998  0.29878  1.0000
  H   H61       1.0  0.16945999999999997  0.046689999999999995  0.32242  1.0000
  H   H62       1.0  0.08535  0.9777499999999998  0.11125999999999998  1.0000
  H   H63       1.0  0.35023999999999983  0.25172  0.9261599999999999  1.0000
  H   H64       1.0  0.5319199999999998  0.13922999999999996  0.7733199999999999  1.0000
  H   H65       1.0  0.54749  0.10603  0.87581  1.0000
  H   H66       1.0  0.42519999999999997  0.08169999999999998  0.14524  1.0000
  H   H67       1.0  0.12840999999999994  0.63227  0.42954  1.0000
  H   H68       1.0  0.9071  0.8159699999999998  0.27062  1.0000
  H   H69       1.0  0.9167200000000001  0.75911  0.21576  1.0000
  H   H70       1.0  0.34880999999999995  0.9963999999999998  0.43823999999999996  1.0000
  H   H71       1.0  0.019170000000000003  0.8773799999999999  0.14226  1.0000
  H   H72       1.0  0.8987699999999998  0.82435  0.13898  1.0000
  H   H73       1.0  0.9771699999999999  0.65808  0.09264999999999998  1.0000
  H   H74       1.0  0.8932699999999998  0.16515  0.24322999999999997  1.0000
  H   H75       1.0  0.80032  0.8782  0.07193  1.0000
  H   H76       1.0  0.20697  0.70278  0.36986  1.0000
  H   H77       1.0  0.7428799999999999  0.13353  0.30447  1.0000
  H   H78       1.0  0.6388899999999998  0.19629  0.58926  1.0000
  H   H79       1.0  0.68533  0.9482199999999997  0.00842  1.0000
  H   H80       1.0  0.09062  0.58782  0.03738  1.0000
  H   H81       1.0  0.83596  0.4678099999999999  0.22955  1.0000
  H   H82       1.0  0.15963999999999992  0.42663  0.37126999999999993  1.0000
  H   H83       1.0  0.18802999999999997  0.53827  0.1893  1.0000
  H   H84       1.0  0.39076  0.64016  0.68675  1.0000
  H   H85       1.0  0.08405999999999998  0.75697  0.68034  1.0000
  H   H86       1.0  0.88556  0.64411  0.2251  1.0000
  H   H87       1.0  0.4186199999999999  0.49751  0.22505  1.0000
  H   H88       1.0  0.60895  0.171  0.36018  1.0000
  H   H89       1.0  0.9693099999999999  0.31912  0.17013  1.0000
  H   H90       1.0  0.008409999999999994  0.27623  0.23219  1.0000
  H   H91       1.0  0.26133  0.58383  0.59567  1.0000
  H   H92       1.0  0.44696  0.56513  0.1513  1.0000
  H   H93       1.0  0.49037  0.78495  0.82217  1.0000
  H   H94       1.0  0.8124899999999999  0.25529  0.14643  1.0000
  H   H95       1.0  0.77005  0.53438  0.30661  1.0000
  H   H96       1.0  0.22966999999999999  0.4001  0.28624  1.0000
  H   H97       1.0  0.13355  0.34900999999999993  0.31036  1.0000
  H   H98       1.0  0.6582  0.18224999999999997  0.08945  1.0000
  H   H99       1.0  0.36428  0.51227  0.3785299999999999  1.0000
  H   H100      1.0  0.48955  0.24331  0.29892  1.0000
  H   H101      1.0  0.15372  0.54785  0.32096  1.0000
  H   H102      1.0  0.027909999999999997  0.47823  0.11273  1.0000
  H   H103      1.0  0.5758299999999998  0.7515  0.9251699999999999  1.0000
  H   H104      1.0  0.2436999999999999  0.63775  0.77261  1.0000
  H   H105      1.0  0.33055  0.60472  0.87508  1.0000
  H   H106      1.0  0.7242899999999998  0.58314  0.14693  1.0000
  H   H107      1.0  0.29910999999999993  0.13273  0.43043999999999993  1.0000
  H   H108      1.0  0.36374999999999996  0.31791  0.27141  1.0000
  H   H109      1.0  0.29973  0.26016  0.21773  1.0000
  H   H110      1.0  0.08568999999999996  0.49721999999999994  0.43955999999999995  1.0000
  H   H111      1.0  0.12256999999999997  0.37669  0.14282  1.0000
  H   H112      1.0  0.23997  0.32399  0.14017  1.0000
  H   H113      1.0  0.11585  0.15661  0.09524  1.0000
  H   H114      1.0  0.3564999999999999  0.66546  0.24216  1.0000
  H   H115      1.0  0.26463999999999993  0.3782  0.0713  1.0000
  H   H116      1.0  0.16389  0.20475  0.37264  1.0000
  H   H117      1.0  0.56579  0.63293  0.30326  1.0000
  H   H118      1.0  0.95044  0.69836  0.59068  1.0000
  H   H119      1.0  0.31244  0.44784  0.006039999999999999  1.0000
  H   H120      1.0  0.9462199999999997  0.08641  0.04098  1.0000
  H   H121      1.0  0.60906  0.031740000000000004  0.7724200000000001  1.0000
  H   H122      1.0  0.79152  0.07512  0.63059  1.0000
  H   H123      1.0  0.9954599999999999  0.9639299999999998  0.8108499999999998  1.0000
  H   H124      1.0  0.70698  0.8607799999999999  0.31172  1.0000
  H   H125      1.0  0.40647  0.74484  0.32224  1.0000
  H   H126      1.0  0.65663  0.85795  0.77509  1.0000
  H   H127      1.0  0.19182999999999997  0.005069999999999989  0.7723299999999998  1.0000
  H   H128      1.0  0.24831  0.32828  0.63845  1.0000
  H   H129      1.0  0.80103  0.17957  0.83308  1.0000
  H   H130      1.0  0.77718  0.22402999999999998  0.77225  1.0000
  H   H131      1.0  0.6720399999999999  0.91817  0.403  1.0000
  H   H132      1.0  0.29251  0.93597  0.8442  1.0000
  H   H133      1.0  0.6679199999999998  0.71507  0.17794  1.0000
  H   H134      1.0  0.66541  0.24491999999999997  0.85653  1.0000
  H   H135      1.0  0.4655299999999999  0.96621  0.6948  1.0000
  H   H136      1.0  0.9469599999999999  0.10252999999999998  0.71475  1.0000
  H   H137      1.0  0.82389  0.15243  0.69238  1.0000
  H   H138      1.0  0.5681799999999999  0.3181  0.91364  1.0000
  H   H139      1.0  0.98846  0.98874  0.62075  1.0000
  H   H140      1.0  0.18945  0.25761  0.70177  1.0000
  H   H141      1.0  0.83257  0.9543299999999999  0.67828  1.0000
  H   H142      1.0  0.91401  0.022210000000000004  0.88955  1.0000
  H   H143      1.0  0.64902  0.74801  0.07443  1.0000
  H   H144      1.0  0.47088  0.8618599999999998  0.22777  1.0000
  H   H145      1.0  0.45245  0.89398  0.12455  1.0000
  H   H146      1.0  0.5753099999999999  0.91743  0.8550799999999998  1.0000
  H   H147      1.0  0.8697099999999998  0.36739  0.57  1.0000
  H   H148      1.0  0.09351  0.18558  0.73096  1.0000
  H   H149      1.0  0.08102999999999992  0.24253999999999995  0.78521  1.0000
  H   H150      1.0  0.64921  0.0049599999999999905  0.56185  1.0000
  H   H151      1.0  0.9831399999999998  0.12265  0.8580399999999999  1.0000
  H   H152      1.0  0.10090999999999992  0.17697  0.86197  1.0000
  H   H153      1.0  0.02098000000000005  0.34309  0.90823  1.0000
  H   H154      1.0  0.10822999999999995  0.83591  0.7579899999999999  1.0000
  H   H155      1.0  0.20106  0.12269999999999998  0.9285899999999999  1.0000
  H   H156      1.0  0.79132  0.29671  0.62963  1.0000
  H   H157      1.0  0.25881999999999994  0.86699  0.69659  1.0000
  H   H158      1.0  0.3657999999999999  0.80455  0.41206999999999994  1.0000
  H   H159      1.0  0.31333999999999995  0.05188000000000001  0.99178  1.0000
  H   H160      1.0  0.9062499999999999  0.41322  0.96298  1.0000
  C   C1        1.0  0.7595699999999997  0.29893  0.31123  1.0000
  C   C2        1.0  0.10632  0.52793  0.72442  1.0000
  C   C3        1.0  0.9245999999999999  0.55021  0.64635  1.0000
  C   C4        1.0  0.91128  0.45241999999999993  0.81896  1.0000
  C   C5        1.0  0.70754  0.34708  0.33454  1.0000
  C   C6        1.0  0.8309399999999999  0.67168  0.778  1.0000
  C   C7        1.0  0.48187  0.34452  0.03203  1.0000
  C   C8        1.0  0.9551499999999999  0.4058  0.7890299999999999  1.0000
  C   C9        1.0  0.88276  0.2818  0.33782  1.0000
  C   C10       1.0  0.0855  0.39289999999999997  0.80053  1.0000
  C   C11       1.0  0.60768  0.51469  0.82376  1.0000
  C   C12       1.0  0.49014  0.82114  0.63864  1.0000
  C   C13       1.0  0.9548999999999997  0.7069699999999999  0.80364  1.0000
  C   C14       1.0  0.9950199999999999  0.55901  0.70633  1.0000
  C   C15       1.0  0.021479999999999968  0.7886999999999998  0.87305  1.0000
  C   C16       1.0  0.77944  0.3784  0.38553  1.0000
  C   C17       1.0  0.54009  0.32429  0.09324999999999999  1.0000
  C   C18       1.0  0.59022  0.47729  0.86482  1.0000
  C   C19       1.0  0.5455199999999999  0.2545  0.1658  1.0000
  C   C20       1.0  0.15195  0.7813499999999999  0.87437  1.0000
  C   C21       1.0  0.22177  0.50718  0.92277  1.0000
  C   C22       1.0  0.9795299999999999  0.39379  0.46815  1.0000
  C   C23       1.0  0.14326999999999995  0.49081  0.6821  1.0000
  C   C24       1.0  0.85141  0.62877  0.7276000000000001  1.0000
  C   C25       1.0  0.7550899999999999  0.39057  0.71987  1.0000
  C   C26       1.0  0.2398399999999999  0.82243  0.90616  1.0000
  C   C27       1.0  0.63807  0.45376  0.65138  1.0000
  C   C28       1.0  0.55723  0.78038  0.67251  1.0000
  C   C29       1.0  0.75484  0.43424  0.68269  1.0000
  C   C30       1.0  0.9987399999999999  0.48591  0.86199  1.0000
  C   C31       1.0  0.66779  0.56703  0.84621  1.0000
  C   C32       1.0  0.49636999999999987  0.27321  0.10880999999999999  1.0000
  C   C33       1.0  0.6840199999999999  0.3379499999999999  0.19346  1.0000
  C   C34       1.0  0.6342099999999999  0.35608  0.13611  1.0000
  C   C35       1.0  0.52249  0.42858  0.65583  1.0000
  C   C36       1.0  0.17223000000000002  0.42686  0.84371  1.0000
  C   C37       1.0  0.12946999999999997  0.47327  0.87484  1.0000
  C   C38       1.0  0.66414  0.84229  0.59922  1.0000
  C   C39       1.0  0.72095  0.70878  0.7486299999999999  1.0000
  C   C40       1.0  0.9673499999999999  0.51122  0.60718  1.0000
  C   C41       1.0  0.6389299999999999  0.28704  0.2081  1.0000
  C   C42       1.0  0.7932999999999998  0.6442199999999998  0.8302299999999999  1.0000
  C   C43       1.0  0.98537  0.83644  0.90478  1.0000
  C   C44       1.0  0.64155  0.36613  0.72661  1.0000
  C   C45       1.0  0.69825  0.5807  0.9086599999999999  1.0000
  C   C46       1.0  0.7372699999999999  0.80194  0.63049  1.0000
  C   C47       1.0  0.9040599999999999  0.36202  0.41238  1.0000
  C   C48       1.0  0.5252499999999999  0.38481  0.69346  1.0000
  C   C49       1.0  0.68481  0.77165  0.66952  1.0000
  C   C50       1.0  0.9551899999999999  0.31388  0.38809999999999995  1.0000
  C   C51       1.0  0.3972899999999999  0.44756  0.61907  1.0000
  C   C52       1.0  0.67143  0.54159  0.94606  1.0000
  C   C53       1.0  0.0791999999999998  0.8753999999999998  0.9344399999999999  1.0000
  C   C54       1.0  0.44624999999999987  0.20169  0.68885  1.0000
  C   C55       1.0  0.3823699999999999  0.97207  0.2747  1.0000
  C   C56       1.0  0.2762  0.94901  0.35216  1.0000
  C   C57       1.0  0.09721  0.046  0.18049  1.0000
  C   C58       1.0  0.36936  0.15373  0.66651  1.0000
  C   C59       1.0  0.05278  0.82819  0.22016  1.0000
  C   C60       1.0  0.4540799999999999  0.15551  0.9682499999999999  1.0000
  C   C61       1.0  0.17048  0.09264  0.21094  1.0000
  C   C62       1.0  0.54334  0.21774999999999997  0.66162  1.0000
  C   C63       1.0  0.28967  0.10575999999999999  0.19954999999999998  1.0000
  C   C64       1.0  0.78548  0.9850199999999999  0.17907  1.0000
  C   C65       1.0  0.85002  0.6803  0.36194  1.0000
  C   C66       1.0  0.15070999999999996  0.79356  0.19363999999999998  1.0000
  C   C67       1.0  0.28794  0.9408199999999998  0.29217  1.0000
  C   C68       1.0  0.14700999999999997  0.71171  0.12432  1.0000
  C   C69       1.0  0.3887999999999999  0.12163999999999998  0.61563  1.0000
  C   C70       1.0  0.44825999999999994  0.17629  0.90701  1.0000
  C   C71       1.0  0.72698  0.022859999999999995  0.13879  1.0000
  C   C72       1.0  0.37874  0.24587999999999996  0.83487  1.0000
  C   C73       1.0  0.27632  0.71857  0.12285  1.0000
  C   C74       1.0  0.3048199999999999  0.99314  0.07515  1.0000
  C   C75       1.0  0.5039  0.10480999999999999  0.53177  1.0000
  C   C76       1.0  0.46066  0.009090000000000004  0.31746  1.0000
  C   C77       1.0  0.12351999999999999  0.87092  0.27058  1.0000
  C   C78       1.0  0.03914999999999999  0.10803  0.28067  1.0000
  C   C79       1.0  0.33096999999999993  0.67739  0.09051  1.0000
  C   C80       1.0  0.989  0.04544  0.34994  1.0000
  C   C81       1.0  0.88426  0.7199499999999999  0.32676  1.0000
  C   C82       1.0  0.07510999999999997  0.06468  0.31833  1.0000
  C   C83       1.0  0.14214  0.01325  0.13686  1.0000
  C   C84       1.0  0.8199999999999998  0.93264  0.15546  1.0000
  C   C85       1.0  0.3871999999999999  0.22682999999999998  0.89188  1.0000
  C   C86       1.0  0.49174999999999996  0.16354  0.80661  1.0000
  C   C87       1.0  0.5004  0.14519  0.86391  1.0000
  C   C88       1.0  0.86898  0.07034000000000001  0.34532  1.0000
  C   C89       1.0  0.33382999999999996  0.07246  0.15596  1.0000
  C   C90       1.0  0.26002  0.02629  0.12388  1.0000
  C   C91       1.0  0.06222999999999996  0.6580599999999999  0.40011  1.0000
  C   C92       1.0  0.9728399999999999  0.7904  0.24959999999999996  1.0000
  C   C93       1.0  0.3570999999999999  0.9880199999999999  0.39177  1.0000
  C   C94       1.0  0.43086999999999986  0.21405999999999997  0.79233  1.0000
  C   C95       1.0  0.9626499999999998  0.85616  0.16885  1.0000
  C   C96       1.0  0.07770999999999999  0.66434  0.09254  1.0000
  C   C97       1.0  0.9193399999999999  0.13253  0.27418  1.0000
  C   C98       1.0  0.7843599999999998  0.9191  0.09306999999999999  1.0000
  C   C99       1.0  0.10511999999999996  0.69724  0.36751999999999996  1.0000
  C   C100      1.0  0.48651  0.13708  0.58787  1.0000
  C   C101      1.0  0.8355699999999999  0.11411  0.3076  1.0000
  C   C102      1.0  0.01477  0.72767  0.3286  1.0000
  C   C103      1.0  0.56395  0.18487  0.61144  1.0000
  C   C104      1.0  0.7786399999999998  0.05052999999999999  0.38129  1.0000
  C   C105      1.0  0.7203  0.9586399999999999  0.05662999999999999  1.0000
  C   C106      1.0  0.14032999999999998  0.62534  0.06221999999999999  1.0000
  C   C107      1.0  0.24331999999999998  0.70122  0.68838  1.0000
  C   C108      1.0  0.8916100000000001  0.4723  0.27605  1.0000
  C   C109      1.0  0.07373  0.44957  0.3537  1.0000
  C   C110      1.0  0.0865  0.54741  0.18051  1.0000
  C   C111      1.0  0.29485  0.65292  0.66516  1.0000
  C   C112      1.0  0.16726999999999995  0.32866  0.22164999999999999  1.0000
  C   C113      1.0  0.5137999999999999  0.65434  0.9670699999999999  1.0000
  C   C114      1.0  0.04446000000000001  0.59434  0.21071  1.0000
  C   C115      1.0  0.12006  0.71845  0.6621  1.0000
  C   C116      1.0  0.9144299999999999  0.60773  0.19994999999999996  1.0000
  C   C117      1.0  0.3917399999999999  0.4854799999999999  0.17667  1.0000
  C   C118      1.0  0.50984  0.17979999999999996  0.36117  1.0000
  C   C119      1.0  0.043890000000000005  0.29318  0.19557  1.0000
  C   C120      1.0  0.002289999999999997  0.44083  0.29387  1.0000
  C   C121      1.0  0.9788199999999999  0.21119999999999997  0.1265  1.0000
  C   C122      1.0  0.22231999999999996  0.62147  0.61448  1.0000
  C   C123      1.0  0.4598199999999999  0.67537  0.90602  1.0000
  C   C124      1.0  0.40812  0.52303  0.13554  1.0000
  C   C125      1.0  0.45758  0.74508  0.83393  1.0000
  C   C126      1.0  0.84816  0.2186  0.12467  1.0000
  C   C127      1.0  0.77319  0.49302  0.07868  1.0000
  C   C128      1.0  0.02084000000000004  0.6062  0.53256  1.0000
  C   C129      1.0  0.8558699999999998  0.50966  0.31849  1.0000
  C   C130      1.0  0.14574999999999996  0.3714799999999999  0.27191  1.0000
  C   C131      1.0  0.24541  0.60894  0.27963  1.0000
  C   C132      1.0  0.7605799999999999  0.17749  0.09273  1.0000
  C   C133      1.0  0.3611  0.54586  0.34876  1.0000
  C   C134      1.0  0.44205999999999995  0.22027  0.32705  1.0000
  C   C135      1.0  0.24472  0.56557  0.31713  1.0000
  C   C136      1.0  0.99746  0.51409  0.13805  1.0000
  C   C137      1.0  0.33243  0.433  0.15418  1.0000
  C   C138      1.0  0.50557  0.7261899999999999  0.8909600000000001  1.0000
  C   C139      1.0  0.3168599999999999  0.66229  0.8057399999999999  1.0000
  C   C140      1.0  0.36543  0.6439899999999998  0.86297  1.0000
  C   C141      1.0  0.4774299999999999  0.57029  0.34427  1.0000
  C   C142      1.0  0.82608  0.57389  0.15734  1.0000
  C   C143      1.0  0.8669199999999999  0.52706  0.126  1.0000
  C   C144      1.0  0.33633999999999986  0.15847  0.4008399999999999  1.0000
  C   C145      1.0  0.27741  0.29177  0.2513  1.0000
  C   C146      1.0  0.03199000000000003  0.48873999999999995  0.39304  1.0000
  C   C147      1.0  0.3636299999999999  0.7129699999999999  0.79145  1.0000
  C   C148      1.0  0.20575  0.35614  0.16967  1.0000
  C   C149      1.0  0.015419999999999982  0.16334  0.09513999999999999  1.0000
  C   C150      1.0  0.35968  0.63291  0.27313  1.0000
  C   C151      1.0  0.3024  0.41922  0.09178  1.0000
  C   C152      1.0  0.26259  0.19847  0.36933000000000005  1.0000
  C   C153      1.0  0.09762999999999997  0.6379400000000001  0.58796  1.0000
  C   C154      1.0  0.47553999999999996  0.61395  0.30648  1.0000
  C   C155      1.0  0.31441  0.22881999999999997  0.33016  1.0000
  C   C156      1.0  0.04698999999999997  0.68623  0.61214  1.0000
  C   C157      1.0  0.60232  0.55047  0.3808599999999999  1.0000
  C   C158      1.0  0.32798  0.45852  0.05435  1.0000
  C   C159      1.0  0.92178  0.12436  0.06524  1.0000
  C   C160      1.0  0.5583399999999998  0.79983  0.31243  1.0000
  C   C161      1.0  0.6187199999999999  0.027899999999999984  0.7258799999999999  1.0000
  C   C162      1.0  0.7230900000000001  0.05184  0.64813  1.0000
  C   C163      1.0  0.90315  0.95425  0.82009  1.0000
  C   C164      1.0  0.6336699999999998  0.84832  0.33438  1.0000
  C   C165      1.0  0.9471699999999998  0.17262  0.7807599999999999  1.0000
  C   C166      1.0  0.54431  0.8444799999999999  0.03219  1.0000
  C   C167      1.0  0.83015  0.90768  0.78939  1.0000
  C   C168      1.0  0.46182  0.78329  0.33975  1.0000
  C   C169      1.0  0.7112099999999999  0.89398  0.80071  1.0000
  C   C170      1.0  0.21559999999999988  0.01645999999999999  0.8208599999999999  1.0000
  C   C171      1.0  0.14837  0.31998  0.63831  1.0000
  C   C172      1.0  0.8495199999999999  0.20665  0.80812  1.0000
  C   C173      1.0  0.7122599999999999  0.05963  0.70827  1.0000
  C   C174      1.0  0.85244  0.28852  0.87737  1.0000
  C   C175      1.0  0.61346  0.88045  0.38509  1.0000
  C   C176      1.0  0.5513599999999999  0.82372  0.09355  1.0000
  C   C177      1.0  0.2724199999999999  0.9781299999999998  0.8609299999999999  1.0000
  C   C178      1.0  0.62302  0.75471  0.16605  1.0000
  C   C179      1.0  0.72312  0.28145999999999993  0.87865  1.0000
  C   C180      1.0  0.69471  0.0061299999999999966  0.92505  1.0000
  C   C181      1.0  0.49703  0.89669  0.46855  1.0000
  C   C182      1.0  0.54  0.9910699999999999  0.68309  1.0000
  C   C183      1.0  0.8765299999999998  0.12988  0.73016  1.0000
  C   C184      1.0  0.9623199999999998  0.8927999999999999  0.7199  1.0000
  C   C185      1.0  0.66762  0.32264  0.91058  1.0000
  C   C186      1.0  0.012819999999999979  0.9551299999999999  0.65062  1.0000
  C   C187      1.0  0.11428999999999995  0.28042  0.67355  1.0000
  C   C188      1.0  0.9267  0.93616  0.68229  1.0000
  C   C189      1.0  0.85778  0.98663  0.86378  1.0000
  C   C190      1.0  0.1817999999999999  0.06887  0.84469  1.0000
  C   C191      1.0  0.6128299999999999  0.77326  0.10871  1.0000
  C   C192      1.0  0.5103799999999998  0.83719  0.19445999999999997  1.0000
  C   C193      1.0  0.50011  0.85503  0.13682  1.0000
  C   C194      1.0  0.1325  0.92997  0.65524  1.0000
  C   C195      1.0  0.6665499999999999  0.9269099999999999  0.8443599999999999  1.0000
  C   C196      1.0  0.7398799999999999  0.97313  0.8764899999999999  1.0000
  C   C197      1.0  0.9358999999999998  0.34175  0.59964  1.0000
  C   C198      1.0  0.026370000000000015  0.21082  0.75139  1.0000
  C   C199      1.0  0.6418599999999999  0.012989999999999998  0.60847  1.0000
  C   C200      1.0  0.5722  0.78686  0.20882000000000003  1.0000
  C   C201      1.0  0.03856999999999997  0.14486  0.83175  1.0000
  C   C202      1.0  0.92066  0.33642  0.9085199999999999  1.0000
  C   C203      1.0  0.08219999999999998  0.86829  0.72675  1.0000
  C   C204      1.0  0.21636  0.08183  0.9072  1.0000
  C   C205      1.0  0.8931799999999999  0.30251  0.63219  1.0000
  C   C206      1.0  0.5161799999999999  0.86447  0.41283  1.0000
  C   C207      1.0  0.16611  0.88644  0.69326  1.0000
  C   C208      1.0  0.9837999999999998  0.27258  0.67155  1.0000
  C   C209      1.0  0.44026  0.81618  0.38969  1.0000
  C   C210      1.0  0.22202000000000005  0.94961  0.61885  1.0000
  C   C211      1.0  0.27888  0.04185  0.94347  1.0000
  C   C212      1.0  0.8572099999999999  0.3754  0.9385000000000001  1.0000
  N   N1        1.0  0.54216  0.85298  0.60376  1.0000
  N   N2        1.0  0.6240099999999997  0.4893199999999999  0.9256299999999998  1.0000
  N   N3        1.0  0.2055599999999999  0.86934  0.93517  1.0000
  N   N4        1.0  0.07550000000000001  0.48193  0.62384  1.0000
  N   N5        1.0  0.93577  0.64849  0.39699  1.0000
  N   N6        1.0  0.6969499999999998  0.01106  0.07796  1.0000
  N   N7        1.0  0.26591  0.63103  0.061029999999999994  1.0000
  N   N8        1.0  0.4492199999999999  0.0177  0.37558  1.0000
  N   N9        1.0  0.4585299999999999  0.14806  0.3964  1.0000
  N   N10       1.0  0.37396  0.51099  0.07476  1.0000
  N   N11       1.0  0.7951799999999999  0.13053  0.06395  1.0000
  N   N12       1.0  0.92423  0.51831  0.37666  1.0000
  N   N13       1.0  0.06239999999999998  0.35162  0.60319  1.0000
  N   N14       1.0  0.30158999999999997  0.98945  0.92183  1.0000
  N   N15       1.0  0.7317799999999999  0.36931  0.93982  1.0000
  N   N16       1.0  0.5504  0.9829999999999999  0.62479  1.0000
  O   O1        1.0  0.9237499999999997  0.423  0.50294  1.0000
  O   O2        1.0  0.17596999999999993  0.54589  0.9550199999999999  1.0000
  O   O3        1.0  0.5377699999999999  0.38837  0.01815  1.0000
  O   O4        1.0  0.9246899999999998  0.75261  0.84333  1.0000
  O   O5        1.0  0.38232999999999995  0.32116  0.99991  1.0000
  O   O6        1.0  0.6940799999999999  0.6016799999999999  0.80566  1.0000
  O   O7        1.0  0.8709199999999998  0.3687599999999999  0.7493200000000001  1.0000
  O   O8        1.0  0.10309000000000003  0.38921999999999995  0.48221  1.0000
  O   O9        1.0  0.76434  0.73572  0.70237  1.0000
  O   O10       1.0  0.96322  0.59607  0.74894  1.0000
  O   O11       1.0  0.30547  0.40932  0.61137  1.0000
  O   O12       1.0  0.68709  0.26416  0.26286  1.0000
  O   O13       1.0  0.34025  0.49763  0.93371  1.0000
  O   O14       1.0  0.38687  0.4947799999999999  0.5997  1.0000
  O   O15       1.0  0.41159999999999997  0.07678  0.49716  1.0000
  O   O16       1.0  0.22606  0.95542  0.04131  1.0000
  O   O17       1.0  0.5305199999999999  0.11381  0.98096  1.0000
  O   O18       1.0  0.08065  0.74787  0.15423  1.0000
  O   O19       1.0  0.38432999999999995  0.17609  0.0008499999999999998  1.0000
  O   O20       1.0  0.8881599999999997  0.89773  0.19488999999999998  1.0000
  O   O21       1.0  0.12565999999999997  0.12981  0.25072  1.0000
  O   O22       1.0  0.6139399999999999  0.10805999999999998  0.5175  1.0000
  O   O23       1.0  0.06251999999999998  0.76254  0.29465  1.0000
  O   O24       1.0  0.21345999999999996  0.90423  0.24901  1.0000
  O   O25       1.0  0.69361  0.0883  0.38865  1.0000
  O   O26       1.0  0.42443  0.23686999999999997  0.73748  1.0000
  O   O27       1.0  0.41364  0.0026400000000000004  0.06548  1.0000
  O   O28       1.0  0.78724  0.003019999999999997  0.40006  1.0000
  O   O29       1.0  0.07533  0.57703  0.49713999999999997  1.0000
  O   O30       1.0  0.81796  0.45414999999999994  0.04609  1.0000
  O   O31       1.0  0.45194999999999996  0.61133  0.9789  1.0000
  O   O32       1.0  0.07523999999999999  0.24737999999999996  0.15643  1.0000
  O   O33       1.0  0.61375  0.6760399999999999  0.0005  1.0000
  O   O34       1.0  0.30585  0.39821999999999996  0.19455  1.0000
  O   O35       1.0  0.13041  0.63121  0.24974  1.0000
  O   O36       1.0  0.8973399999999998  0.6107699999999999  0.5194  1.0000
  O   O37       1.0  0.23380999999999993  0.2644  0.29726  1.0000
  O   O38       1.0  0.03232999999999999  0.40348999999999996  0.25104  1.0000
  O   O39       1.0  0.69453  0.58852  0.38871  1.0000
  O   O40       1.0  0.3164599999999999  0.7359  0.7366699999999999  1.0000
  O   O41       1.0  0.6549099999999999  0.50264  0.06862  1.0000
  O   O42       1.0  0.6122799999999997  0.50305  0.39983  1.0000
  O   O43       1.0  0.58771  0.9258299999999999  0.50297  1.0000
  O   O44       1.0  0.77449  0.04313  0.95935  1.0000
  O   O45       1.0  0.4678399999999999  0.8862699999999998  0.02009  1.0000
  O   O46       1.0  0.9195399999999998  0.25202  0.8482  1.0000
  O   O47       1.0  0.6132599999999999  0.82392  0.9992  1.0000
  O   O48       1.0  0.11493999999999997  0.10439  0.80548  1.0000
  O   O49       1.0  0.8748999999999999  0.87107  0.7492799999999998  1.0000
  O   O50       1.0  0.38715999999999995  0.89211  0.48275  1.0000
  O   O51       1.0  0.9365099999999998  0.23799  0.70584  1.0000
  O   O52       1.0  0.78674  0.0962  0.75145  1.0000
  O   O53       1.0  0.30671  0.9118  0.61119  1.0000
  O   O54       1.0  0.5814199999999999  0.76445  0.26411  1.0000
  O   O55       1.0  0.5852099999999999  0.99735  0.93433  1.0000
  O   O56       1.0  0.21308999999999997  0.9970099999999998  0.59986  1.0000
