data_image0
_chemical_formula_structural       Mn16Cu16H64C176N32O128
_chemical_formula_sum              "Mn16 Cu16 H64 C176 N32 O128"
_cell_length_a       20.30993
_cell_length_b       20.31691
_cell_length_c       34.20629
_cell_angle_alpha    89.99329999999999
_cell_angle_beta     90.0067
_cell_angle_gamma    90.01342999999999

_space_group_name_H-M_alt    "P 1"
_space_group_IT_number       1

loop_
  _space_group_symop_operation_xyz
  'x, y, z'

loop_
  _atom_site_type_symbol
  _atom_site_label
  _atom_site_symmetry_multiplicity
  _atom_site_fract_x
  _atom_site_fract_y
  _atom_site_fract_z
  _atom_site_occupancy
  Mn  Mn1       1.0  0.31799  0.13694  0.20190000000000002  1.0000
  Mn  Mn2       1.0  0.11466  0.30396  0.21525  1.0000
  Mn  Mn3       1.0  0.6818  0.86321  0.70191  1.0000
  Mn  Mn4       1.0  0.8856299999999999  0.69769  0.71534  1.0000
  Mn  Mn5       1.0  0.36313  0.81792  0.45192  1.0000
  Mn  Mn6       1.0  0.19607  0.61465  0.46536  1.0000
  Mn  Mn7       1.0  0.63681  0.18176  0.95194  1.0000
  Mn  Mn8       1.0  0.80324  0.38541  0.9653299999999999  1.0000
  Mn  Mn9       1.0  0.18186  0.6367900000000001  0.04815  1.0000
  Mn  Mn10      1.0  0.38563  0.8024800000000001  0.03469  1.0000
  Mn  Mn11      1.0  0.81802  0.36312  0.54814  1.0000
  Mn  Mn12      1.0  0.61454  0.19636  0.53473  1.0000
  Mn  Mn13      1.0  0.13672999999999996  0.31728  0.79829  1.0000
  Mn  Mn14      1.0  0.30224  0.11406  0.78467  1.0000
  Mn  Mn15      1.0  0.86314  0.6819800000000001  0.29806  1.0000
  Mn  Mn16      1.0  0.69619  0.88529  0.28466  1.0000
  Cu  Cu1       1.0  0.32692  0.9704300000000001  0.91796  1.0000
  Cu  Cu2       1.0  0.4574199999999999  0.15904000000000001  0.06633  1.0000
  Cu  Cu3       1.0  0.67301  0.029540000000000007  0.41794  1.0000
  Cu  Cu4       1.0  0.54281  0.8402900000000001  0.56636  1.0000
  Cu  Cu5       1.0  0.52957  0.82713  0.1679  1.0000
  Cu  Cu6       1.0  0.3413999999999999  0.95746  0.31631  1.0000
  Cu  Cu7       1.0  0.47034999999999993  0.17321000000000003  0.66792  1.0000
  Cu  Cu8       1.0  0.6602999999999999  0.04294  0.81637  1.0000
  Cu  Cu9       1.0  0.1729  0.47049  0.33209  1.0000
  Cu  Cu10      1.0  0.04286  0.6598  0.18364  1.0000
  Cu  Cu11      1.0  0.82694  0.52959  0.83205  1.0000
  Cu  Cu12      1.0  0.9575099999999999  0.34093000000000007  0.68372  1.0000
  Cu  Cu13      1.0  0.97037  0.32699  0.08211  1.0000
  Cu  Cu14      1.0  0.15832  0.45758  0.93358  1.0000
  Cu  Cu15      1.0  0.02958  0.67307  0.5821100000000001  1.0000
  Cu  Cu16      1.0  0.84081  0.5426600000000001  0.43368  1.0000
  H   H1        1.0  0.39698  0.03293  0.03254  1.0000
  H   H2        1.0  0.20766999999999997  0.024460000000000006  0.97562  1.0000
  H   H3        1.0  0.16386  0.10721000000000001  0.02311  1.0000
  H   H4        1.0  0.23740999999999998  0.15376  0.07442000000000001  1.0000
  H   H5        1.0  0.42774  0.07777  0.95207  1.0000
  H   H6        1.0  0.24814  0.17051  0.91355  1.0000
  H   H7        1.0  0.26459  0.25956  0.9627099999999998  1.0000
  H   H8        1.0  0.36351999999999995  0.25765  0.00646  1.0000
  H   H9        1.0  0.60304  0.9671400000000001  0.53248  1.0000
  H   H10       1.0  0.79238  0.97546  0.47559  1.0000
  H   H11       1.0  0.8361299999999999  0.8927100000000001  0.52312  1.0000
  H   H12       1.0  0.7625099999999999  0.8463600000000002  0.57449  1.0000
  H   H13       1.0  0.57212  0.9222000000000001  0.45207  1.0000
  H   H14       1.0  0.75181  0.82955  0.41358  1.0000
  H   H15       1.0  0.73538  0.7404700000000001  0.4627  1.0000
  H   H16       1.0  0.63645  0.7423  0.50644  1.0000
  H   H17       1.0  0.46695  0.89692  0.28245  1.0000
  H   H18       1.0  0.47557  0.7076300000000001  0.22564000000000006  1.0000
  H   H19       1.0  0.3927899999999999  0.66382  0.27315  1.0000
  H   H20       1.0  0.3462  0.73735  0.32445  1.0000
  H   H21       1.0  0.42227  0.9278900000000001  0.20199000000000003  1.0000
  H   H22       1.0  0.32955999999999996  0.74823  0.16361  1.0000
  H   H23       1.0  0.24044  0.76464  0.21274  1.0000
  H   H24       1.0  0.24234  0.86359  0.25645  1.0000
  H   H25       1.0  0.53267  0.10301  0.78253  1.0000
  H   H26       1.0  0.52467  0.29232  0.7255800000000001  1.0000
  H   H27       1.0  0.60734  0.33599  0.77321  1.0000
  H   H28       1.0  0.65364  0.26235  0.82457  1.0000
  H   H29       1.0  0.5776399999999999  0.07233  0.70209  1.0000
  H   H30       1.0  0.67052  0.25185  0.66357  1.0000
  H   H31       1.0  0.7596599999999999  0.23532  0.71267  1.0000
  H   H32       1.0  0.75774  0.13641  0.75641  1.0000
  H   H33       1.0  0.10300999999999999  0.53284  0.21749  1.0000
  H   H34       1.0  0.29235  0.52444  0.27436  1.0000
  H   H35       1.0  0.33614  0.60726  0.22686000000000003  1.0000
  H   H36       1.0  0.26252  0.65367  0.17551  1.0000
  H   H37       1.0  0.07216  0.5777400000000001  0.29792  1.0000
  H   H38       1.0  0.25186  0.67044  0.33643000000000006  1.0000
  H   H39       1.0  0.23542999999999997  0.75952  0.2873  1.0000
  H   H40       1.0  0.13648999999999997  0.7576500000000002  0.24355000000000002  1.0000
  H   H41       1.0  0.89702  0.46716  0.71761  1.0000
  H   H42       1.0  0.7075999999999999  0.4755300000000001  0.77441  1.0000
  H   H43       1.0  0.66388  0.39276  0.7268900000000001  1.0000
  H   H44       1.0  0.7375699999999998  0.34619  0.67568  1.0000
  H   H45       1.0  0.92784  0.42222  0.79795  1.0000
  H   H46       1.0  0.74814  0.32953  0.8364  1.0000
  H   H47       1.0  0.76462  0.24042  0.78732  1.0000
  H   H48       1.0  0.86357  0.24226000000000006  0.7436  1.0000
  H   H49       1.0  0.03296  0.39686000000000005  0.96768  1.0000
  H   H50       1.0  0.02431  0.20748000000000005  0.02446  1.0000
  H   H51       1.0  0.10712999999999999  0.16373000000000001  0.9769400000000001  1.0000
  H   H52       1.0  0.15389  0.23748000000000005  0.9258  1.0000
  H   H53       1.0  0.07775  0.4278100000000001  0.04793  1.0000
  H   H54       1.0  0.17045  0.24822  0.08642  1.0000
  H   H55       1.0  0.25957  0.26464  0.0373  1.0000
  H   H56       1.0  0.25771  0.36353  0.9935499999999999  1.0000
  H   H57       1.0  0.9670599999999998  0.6030800000000001  0.46757  1.0000
  H   H58       1.0  0.97549  0.7924100000000001  0.52439  1.0000
  H   H59       1.0  0.8927399999999999  0.83609  0.47683000000000003  1.0000
  H   H60       1.0  0.8462399999999999  0.7624600000000001  0.42554  1.0000
  H   H61       1.0  0.9222899999999999  0.57217  0.54798  1.0000
  H   H62       1.0  0.82959  0.75179  0.58639  1.0000
  H   H63       1.0  0.7404399999999999  0.7353200000000001  0.53729  1.0000
  H   H64       1.0  0.74228  0.63637  0.4936  1.0000
  C   C1        1.0  0.34614  0.04908  0.030170000000000002  1.0000
  C   C2        1.0  0.30503  0.02198  0.00171  1.0000
  C   C3        1.0  0.23927  0.04546  0.9981100000000002  1.0000
  C   C4        1.0  0.21498  0.09161000000000001  0.02471  1.0000
  C   C5        1.0  0.25556  0.11781000000000001  0.05354  1.0000
  C   C6        1.0  0.32283999999999996  0.09816  0.05526  1.0000
  C   C7        1.0  0.35744  0.9185500000000001  0.9909  1.0000
  C   C8        1.0  0.37055  0.8654900000000001  0.95993  1.0000
  C   C9        1.0  0.35385999999999995  0.13811  0.11854000000000002  1.0000
  C   C10       1.0  0.4142  0.1606  0.14198  1.0000
  C   C11       1.0  0.39249  0.11782  0.9545699999999999  1.0000
  C   C12       1.0  0.33667  0.11833  0.9303200000000001  1.0000
  C   C13       1.0  0.29077  0.17066  0.93279  1.0000
  C   C14       1.0  0.30048  0.22004000000000004  0.9603000000000002  1.0000
  C   C15       1.0  0.35534  0.21880000000000002  0.98509  1.0000
  C   C16       1.0  0.40241999999999994  0.16793000000000002  0.9818600000000001  1.0000
  C   C17       1.0  0.31523  0.07596000000000001  0.86666  1.0000
  C   C18       1.0  0.30881  0.01272  0.84267  1.0000
  C   C19       1.0  0.51836  0.16730000000000003  0.9940099999999998  1.0000
  C   C20       1.0  0.57172  0.16654  0.02564  1.0000
  C   C21       1.0  0.19145  0.18946  0.2109  1.0000
  C   C22       1.0  0.23996  0.24712000000000003  0.21204  1.0000
  C   C23       1.0  0.6538699999999998  0.95097  0.53015  1.0000
  C   C24       1.0  0.69503  0.9780100000000002  0.50169  1.0000
  C   C25       1.0  0.76079  0.9545400000000002  0.4981  1.0000
  C   C26       1.0  0.78502  0.90838  0.52473  1.0000
  C   C27       1.0  0.74438  0.88226  0.55357  1.0000
  C   C28       1.0  0.67713  0.9019500000000001  0.55528  1.0000
  C   C29       1.0  0.64256  0.08135  0.4908100000000001  1.0000
  C   C30       1.0  0.6294  0.13438  0.4598700000000001  1.0000
  C   C31       1.0  0.6460499999999999  0.86272  0.6187  1.0000
  C   C32       1.0  0.58619  0.83903  0.64203  1.0000
  C   C33       1.0  0.60743  0.88218  0.45458  1.0000
  C   C34       1.0  0.66328  0.8816900000000001  0.43034  1.0000
  C   C35       1.0  0.70914  0.8293200000000001  0.43279  1.0000
  C   C36       1.0  0.69948  0.77997  0.46031  1.0000
  C   C37       1.0  0.64462  0.78119  0.48508999999999997  1.0000
  C   C38       1.0  0.5975  0.83201  0.48184  1.0000
  C   C39       1.0  0.68479  0.9239600000000002  0.36668000000000006  1.0000
  C   C40       1.0  0.69114  0.9871600000000001  0.34264  1.0000
  C   C41       1.0  0.48161  0.83263  0.49402  1.0000
  C   C42       1.0  0.42830999999999997  0.83346  0.52566  1.0000
  C   C43       1.0  0.8082799999999999  0.81216  0.71097  1.0000
  C   C44       1.0  0.7602899999999999  0.75366  0.71206  1.0000
  C   C45       1.0  0.4507999999999999  0.8460900000000001  0.28006  1.0000
  C   C46       1.0  0.4779999999999999  0.8049700000000001  0.25169  1.0000
  C   C47       1.0  0.45456999999999986  0.73923  0.24812000000000003  1.0000
  C   C48       1.0  0.40837  0.7149400000000001  0.27474  1.0000
  C   C49       1.0  0.38211999999999996  0.7554900000000002  0.30354  1.0000
  C   C50       1.0  0.4016799999999999  0.8227800000000001  0.30517  1.0000
  C   C51       1.0  0.58142  0.85735  0.24081000000000002  1.0000
  C   C52       1.0  0.63448  0.87055  0.20987  1.0000
  C   C53       1.0  0.36185999999999996  0.85385  0.36842  1.0000
  C   C54       1.0  0.33998  0.91437  0.39194  1.0000
  C   C55       1.0  0.38222999999999996  0.8926  0.20453  1.0000
  C   C56       1.0  0.38173  0.8367800000000001  0.18032  1.0000
  C   C57       1.0  0.32935  0.7908800000000001  0.18281  1.0000
  C   C58       1.0  0.27996  0.8005400000000001  0.21033  1.0000
  C   C59       1.0  0.28122  0.85537  0.2351  1.0000
  C   C60       1.0  0.33208  0.9025  0.23182  1.0000
  C   C61       1.0  0.42399  0.8152200000000001  0.11665  1.0000
  C   C62       1.0  0.4872099999999999  0.80883  0.09262  1.0000
  C   C63       1.0  0.33258  0.018400000000000003  0.24398000000000003  1.0000
  C   C64       1.0  0.33347999999999994  0.07173  0.27562  1.0000
  C   C65       1.0  0.31067  0.69144  0.46089  1.0000
  C   C66       1.0  0.25301  0.7399200000000001  0.4620400000000001  1.0000
  C   C67       1.0  0.54889  0.15382  0.78022  1.0000
  C   C68       1.0  0.52197  0.19497000000000003  0.75169  1.0000
  C   C69       1.0  0.54558  0.26071000000000005  0.7481000000000002  1.0000
  C   C70       1.0  0.59165  0.28489  0.77477  1.0000
  C   C71       1.0  0.61772  0.24422  0.80363  1.0000
  C   C72       1.0  0.59793  0.17699  0.80536  1.0000
  C   C73       1.0  0.41852  0.14255  0.74089  1.0000
  C   C74       1.0  0.36545  0.12943  0.70994  1.0000
  C   C75       1.0  0.6370499999999999  0.14566  0.86876  1.0000
  C   C76       1.0  0.66115  0.08596  0.89205  1.0000
  C   C77       1.0  0.6177099999999999  0.10760000000000002  0.70462  1.0000
  C   C78       1.0  0.61826  0.16341  0.6803600000000001  1.0000
  C   C79       1.0  0.67069  0.20921000000000006  0.68278  1.0000
  C   C80       1.0  0.72009  0.19949000000000003  0.71027  1.0000
  C   C81       1.0  0.71883  0.14466  0.73507  1.0000
  C   C82       1.0  0.6679199999999998  0.09765  0.73186  1.0000
  C   C83       1.0  0.5760299999999999  0.18476  0.61667  1.0000
  C   C84       1.0  0.51281  0.19116  0.59263  1.0000
  C   C85       1.0  0.66762  0.98172  0.74405  1.0000
  C   C86       1.0  0.66689  0.92842  0.77571  1.0000
  C   C87       1.0  0.68883  0.3083600000000001  0.96093  1.0000
  C   C88       1.0  0.7467099999999999  0.26006000000000007  0.96205  1.0000
  C   C89       1.0  0.15383  0.54905  0.21984  1.0000
  C   C90       1.0  0.19496  0.5220500000000001  0.24832000000000004  1.0000
  C   C91       1.0  0.26076  0.54545  0.25188  1.0000
  C   C92       1.0  0.28503  0.59159  0.22525  1.0000
  C   C93       1.0  0.2444  0.61773  0.19641  1.0000
  C   C94       1.0  0.17714  0.59805  0.19471000000000002  1.0000
  C   C95       1.0  0.14266  0.41862  0.25922  1.0000
  C   C96       1.0  0.12957  0.36549  0.29015  1.0000
  C   C97       1.0  0.14607999999999996  0.63724  0.1313  1.0000
  C   C98       1.0  0.08624  0.66092  0.10795  1.0000
  C   C99       1.0  0.10746  0.61777  0.2954  1.0000
  C   C100      1.0  0.16329  0.61828  0.31966  1.0000
  C   C101      1.0  0.20919999999999994  0.6706500000000001  0.31721  1.0000
  C   C102      1.0  0.19953999999999997  0.72  0.28969  1.0000
  C   C103      1.0  0.14466999999999997  0.71877  0.2649000000000001  1.0000
  C   C104      1.0  0.09753999999999999  0.6679400000000001  0.26814  1.0000
  C   C105      1.0  0.18474  0.5760100000000001  0.38333  1.0000
  C   C106      1.0  0.19116  0.5128000000000001  0.40737  1.0000
  C   C107      1.0  0.9816199999999999  0.6674300000000001  0.25598  1.0000
  C   C108      1.0  0.9283  0.66651  0.22434  1.0000
  C   C109      1.0  0.30828  0.68799  0.03906  1.0000
  C   C110      1.0  0.26028  0.74642  0.03797  1.0000
  C   C111      1.0  0.8461899999999999  0.45095  0.71996  1.0000
  C   C112      1.0  0.805  0.4780500000000001  0.74836  1.0000
  C   C113      1.0  0.73921  0.45457  0.75193  1.0000
  C   C114      1.0  0.71501  0.40838  0.72533  1.0000
  C   C115      1.0  0.7557  0.38214  0.69657  1.0000
  C   C116      1.0  0.8229999999999998  0.40181000000000006  0.69491  1.0000
  C   C117      1.0  0.85742  0.58147  0.75913  1.0000
  C   C118      1.0  0.8705599999999999  0.63452  0.79008  1.0000
  C   C119      1.0  0.8537999999999998  0.36177  0.63173  1.0000
  C   C120      1.0  0.91402  0.33943  0.60813  1.0000
  C   C121      1.0  0.8925399999999999  0.38217000000000007  0.79546  1.0000
  C   C122      1.0  0.83668  0.38169  0.81967  1.0000
  C   C123      1.0  0.7908299999999999  0.32931000000000005  0.81722  1.0000
  C   C124      1.0  0.80053  0.27993  0.78972  1.0000
  C   C125      1.0  0.85539  0.2811600000000001  0.76494  1.0000
  C   C126      1.0  0.90249  0.33201  0.7682  1.0000
  C   C127      1.0  0.8152099999999999  0.42398  0.88332  1.0000
  C   C128      1.0  0.8088399999999999  0.48716  0.90735  1.0000
  C   C129      1.0  0.018439999999999998  0.3325900000000001  0.7560100000000001  1.0000
  C   C130      1.0  0.07176999999999999  0.33342000000000005  0.72437  1.0000
  C   C131      1.0  0.69151  0.31081  0.53906  1.0000
  C   C132      1.0  0.73994  0.25311  0.53791  1.0000
  C   C133      1.0  0.04909999999999999  0.34605  0.9701299999999999  1.0000
  C   C134      1.0  0.02186  0.30485  0.9984500000000001  1.0000
  C   C135      1.0  0.04533  0.23909000000000002  0.002  1.0000
  C   C136      1.0  0.09155  0.21485  0.97541  1.0000
  C   C137      1.0  0.11795  0.25552  0.9467200000000001  1.0000
  C   C138      1.0  0.09835  0.32280000000000003  0.94518  1.0000
  C   C139      1.0  0.9185  0.35734  0.00918  1.0000
  C   C140      1.0  0.86547  0.37057000000000007  0.04012  1.0000
  C   C141      1.0  0.13792  0.3533200000000001  0.88202  1.0000
  C   C142      1.0  0.16000999999999999  0.4131000000000001  0.85817  1.0000
  C   C143      1.0  0.11779  0.39253  0.04542  1.0000
  C   C144      1.0  0.11828  0.3367200000000001  0.06966  1.0000
  C   C145      1.0  0.17066  0.29086000000000006  0.0672  1.0000
  C   C146      1.0  0.22005999999999998  0.30052  0.0397  1.0000
  C   C147      1.0  0.21883  0.35534  0.014900000000000002  1.0000
  C   C148      1.0  0.16794  0.40242  0.01812  1.0000
  C   C149      1.0  0.07601999999999999  0.31519  0.13332  1.0000
  C   C150      1.0  0.012809999999999998  0.30886  0.15738  1.0000
  C   C151      1.0  0.16743  0.51834  0.00597  1.0000
  C   C152      1.0  0.16651  0.5717  0.9743399999999999  1.0000
  C   C153      1.0  0.18772  0.19152000000000002  0.78901  1.0000
  C   C154      1.0  0.24623  0.23945000000000002  0.78792  1.0000
  C   C155      1.0  0.9508699999999999  0.65388  0.46995000000000003  1.0000
  C   C156      1.0  0.97801  0.69505  0.49832999999999994  1.0000
  C   C157      1.0  0.9545699999999999  0.76079  0.50189  1.0000
  C   C158      1.0  0.90836  0.78498  0.47526000000000007  1.0000
  C   C159      1.0  0.8821499999999999  0.7443700000000001  0.44646  1.0000
  C   C160      1.0  0.9018099999999999  0.67712  0.4448  1.0000
  C   C161      1.0  0.08137  0.64262  0.50922  1.0000
  C   C162      1.0  0.13438  0.62941  0.54014  1.0000
  C   C163      1.0  0.86192  0.6462300000000001  0.38151000000000007  1.0000
  C   C164      1.0  0.8395699999999999  0.58594  0.35803  1.0000
  C   C165      1.0  0.88224  0.60743  0.54545  1.0000
  C   C166      1.0  0.88172  0.66323  0.56969  1.0000
  C   C167      1.0  0.82935  0.70911  0.56722  1.0000
  C   C168      1.0  0.7799599999999999  0.69944  0.5397  1.0000
  C   C169      1.0  0.78119  0.6446100000000001  0.51492  1.0000
  C   C170      1.0  0.83208  0.5975300000000001  0.51816  1.0000
  C   C171      1.0  0.9239999999999999  0.68479  0.63336  1.0000
  C   C172      1.0  0.9872399999999999  0.69124  0.6574  1.0000
  C   C173      1.0  0.83257  0.48160000000000003  0.50601  1.0000
  C   C174      1.0  0.8334499999999999  0.42828000000000005  0.47434000000000004  1.0000
  C   C175      1.0  0.8106999999999999  0.8085000000000001  0.28909000000000007  1.0000
  C   C176      1.0  0.7530199999999999  0.76001  0.28796  1.0000
  N   N1        1.0  0.32636  0.9719100000000003  0.97665  1.0000
  N   N2        1.0  0.36782  0.12831000000000004  0.08034  1.0000
  N   N3        1.0  0.32626  0.06521  0.90492  1.0000
  N   N4        1.0  0.457  0.16703  0.00763  1.0000
  N   N5        1.0  0.6735999999999999  0.028040000000000002  0.47661  1.0000
  N   N6        1.0  0.63219  0.87188  0.58044  1.0000
  N   N7        1.0  0.6738  0.93478  0.40496  1.0000
  N   N8        1.0  0.5429699999999998  0.83287  0.50762  1.0000
  N   N9        1.0  0.52811  0.82635  0.22661000000000003  1.0000
  N   N10       1.0  0.3716  0.8678100000000001  0.3302  1.0000
  N   N11       1.0  0.43482  0.82628  0.15492  1.0000
  N   N12       1.0  0.33288  0.9570200000000001  0.25758  1.0000
  N   N13       1.0  0.47189  0.17373000000000002  0.72662  1.0000
  N   N14       1.0  0.62819  0.13204  0.83046  1.0000
  N   N15       1.0  0.56517  0.17384000000000002  0.65493  1.0000
  N   N16       1.0  0.66717  0.04308  0.75763  1.0000
  N   N17       1.0  0.17353999999999997  0.47202000000000005  0.27342  1.0000
  N   N18       1.0  0.1322  0.6281700000000001  0.16957  1.0000
  N   N19       1.0  0.17376  0.56521  0.34505  1.0000
  N   N20       1.0  0.04299  0.66714  0.24237  1.0000
  N   N21       1.0  0.8263199999999999  0.52813  0.7734  1.0000
  N   N22       1.0  0.86807  0.37173000000000006  0.66987  1.0000
  N   N23       1.0  0.82615  0.43480000000000013  0.84506  1.0000
  N   N24       1.0  0.95708  0.33291000000000004  0.74243  1.0000
  N   N25       1.0  0.9717099999999999  0.32616000000000006  0.02345  1.0000
  N   N26       1.0  0.12838  0.36782000000000004  0.92014  1.0000
  N   N27       1.0  0.06517  0.32615  0.09505  1.0000
  N   N28       1.0  0.16712  0.45698000000000005  0.99235  1.0000
  N   N29       1.0  0.028119999999999996  0.6736800000000002  0.5234  1.0000
  N   N30       1.0  0.87184  0.63212  0.41969  1.0000
  N   N31       1.0  0.9348299999999998  0.67374  0.59509  1.0000
  N   N32       1.0  0.8328499999999998  0.54298  0.49240999999999996  1.0000
  O   O1        1.0  0.63033  0.16654  0.01391  1.0000
  O   O2        1.0  0.5368199999999999  0.16985  0.9583900000000001  1.0000
  O   O3        1.0  0.55302  0.1664  0.06131  1.0000
  O   O4        1.0  0.21671999999999997  0.13248000000000001  0.20818  1.0000
  O   O5        1.0  0.30034  0.23362  0.20626  1.0000
  O   O6        1.0  0.21686  0.30376  0.21825  1.0000
  O   O7        1.0  0.13061  0.20322  0.21226  1.0000
  O   O8        1.0  0.46582999999999997  0.1765  0.12310000000000001  1.0000
  O   O9        1.0  0.39341999999999994  0.81183  0.9721000000000001  1.0000
  O   O10       1.0  0.37339  0.90698  0.02589  1.0000
  O   O11       1.0  0.31297  0.13045  0.84939  1.0000
  O   O12       1.0  0.30312  0.01954  0.80598  1.0000
  O   O13       1.0  0.31055  0.9581600000000001  0.86098  1.0000
  O   O14       1.0  0.35672999999999994  0.87965  0.9244  1.0000
  O   O15       1.0  0.40915  0.15973  0.17882  1.0000
  O   O16       1.0  0.30077  0.12674  0.13607  1.0000
  O   O17       1.0  0.3697  0.83343  0.5139  1.0000
  O   O18       1.0  0.46314  0.8300600000000001  0.45838  1.0000
  O   O19       1.0  0.44700999999999996  0.8336600000000002  0.56133  1.0000
  O   O20       1.0  0.78249  0.8690500000000001  0.70823  1.0000
  O   O21       1.0  0.69976  0.7665900000000001  0.70616  1.0000
  O   O22       1.0  0.78353  0.69706  0.71827  1.0000
  O   O23       1.0  0.86922  0.79937  0.71229  1.0000
  O   O24       1.0  0.53545  0.8210600000000001  0.62305  1.0000
  O   O25       1.0  0.6065  0.18797000000000003  0.4721099999999999  1.0000
  O   O26       1.0  0.62653  0.09296  0.52583  1.0000
  O   O27       1.0  0.68686  0.86946  0.34947  1.0000
  O   O28       1.0  0.69661  0.98028  0.30596  1.0000
  O   O29       1.0  0.6895799999999999  0.04171  0.36099  1.0000
  O   O30       1.0  0.64315  0.12030000000000002  0.42434  1.0000
  O   O31       1.0  0.59091  0.8403400000000002  0.67892  1.0000
  O   O32       1.0  0.69883  0.8750600000000001  0.63635  1.0000
  O   O33       1.0  0.33326  0.13028  0.26392  1.0000
  O   O34       1.0  0.33007999999999993  0.03685  0.20836  1.0000
  O   O35       1.0  0.33396999999999993  0.05299  0.31132  1.0000
  O   O36       1.0  0.36769  0.71668  0.45817  1.0000
  O   O37       1.0  0.26645  0.8002800000000001  0.45622  1.0000
  O   O38       1.0  0.19632  0.71685  0.46825  1.0000
  O   O39       1.0  0.29680999999999996  0.63063  0.46219  1.0000
  O   O40       1.0  0.32456  0.96623  0.37316  1.0000
  O   O41       1.0  0.68808  0.89348  0.22208  1.0000
  O   O42       1.0  0.59303  0.8734100000000001  0.27584  1.0000
  O   O43       1.0  0.36948  0.8130500000000002  0.09942  1.0000
  O   O44       1.0  0.4803299999999999  0.8032000000000001  0.05594  1.0000
  O   O45       1.0  0.54182  0.8105100000000001  0.11094  1.0000
  O   O46       1.0  0.62036  0.85674  0.17434  1.0000
  O   O47       1.0  0.34048  0.909  0.42878  1.0000
  O   O48       1.0  0.37311999999999995  0.8005900000000001  0.38572  1.0000
  O   O49       1.0  0.6667999999999998  0.8698  0.76394  1.0000
  O   O50       1.0  0.6698  0.96318  0.70841  1.0000
  O   O51       1.0  0.6663499999999999  0.94709  0.81136  1.0000
  O   O52       1.0  0.63185  0.28302  0.95821  1.0000
  O   O53       1.0  0.73342  0.19966  0.9562000000000002  1.0000
  O   O54       1.0  0.8033899999999999  0.28319000000000005  0.96825  1.0000
  O   O55       1.0  0.70264  0.36918  0.96227  1.0000
  O   O56       1.0  0.67932  0.03531000000000001  0.87305  1.0000
  O   O57       1.0  0.31178  0.10656  0.72211  1.0000
  O   O58       1.0  0.40702  0.12652000000000002  0.77585  1.0000
  O   O59       1.0  0.63057  0.18686  0.59945  1.0000
  O   O60       1.0  0.51966  0.19676000000000002  0.55594  1.0000
  O   O61       1.0  0.45819999999999994  0.18944  0.61094  1.0000
  O   O62       1.0  0.37963  0.1432  0.67439  1.0000
  O   O63       1.0  0.65978  0.09070000000000002  0.92893  1.0000
  O   O64       1.0  0.62394  0.1981  0.88653  1.0000
  O   O65       1.0  0.86972  0.66669  0.23608  1.0000
  O   O66       1.0  0.9631699999999999  0.66993  0.29161  1.0000
  O   O67       1.0  0.94703  0.66607  0.18867  1.0000
  O   O68       1.0  0.28251999999999994  0.63109  0.04179  1.0000
  O   O69       1.0  0.19976  0.73345  0.04384  1.0000
  O   O70       1.0  0.28354  0.8030100000000001  0.03174  1.0000
  O   O71       1.0  0.36922  0.70085  0.03772  1.0000
  O   O72       1.0  0.03552  0.67896  0.12694  1.0000
  O   O73       1.0  0.10666999999999999  0.31188  0.27795  1.0000
  O   O74       1.0  0.12658999999999998  0.40708000000000005  0.22419  1.0000
  O   O75       1.0  0.18683999999999998  0.63052  0.40055  1.0000
  O   O76       1.0  0.19674999999999998  0.5197  0.44405  1.0000
  O   O77       1.0  0.1895  0.45824  0.38904  1.0000
  O   O78       1.0  0.14331  0.37968  0.32568  1.0000
  O   O79       1.0  0.09091  0.65957  0.07107  1.0000
  O   O80       1.0  0.19886  0.62485  0.11368  1.0000
  O   O81       1.0  0.13037  0.33336000000000005  0.73611  1.0000
  O   O82       1.0  0.03693  0.33003  0.79166  1.0000
  O   O83       1.0  0.053059999999999996  0.33372  0.68869  1.0000
  O   O84       1.0  0.7168199999999999  0.36779  0.54181  1.0000
  O   O85       1.0  0.8003599999999998  0.26653  0.5437  1.0000
  O   O86       1.0  0.7168199999999999  0.19648  0.53172  1.0000
  O   O87       1.0  0.63068  0.29696  0.53773  1.0000
  O   O88       1.0  0.96571  0.32355  0.62691  1.0000
  O   O89       1.0  0.8934399999999998  0.68819  0.77787  1.0000
  O   O90       1.0  0.87344  0.59303  0.72414  1.0000
  O   O91       1.0  0.81311  0.36947  0.90057  1.0000
  O   O92       1.0  0.8033099999999999  0.48028  0.9440399999999999  1.0000
  O   O93       1.0  0.81045  0.54173  0.88902  1.0000
  O   O94       1.0  0.85686  0.6203800000000002  0.82561  1.0000
  O   O95       1.0  0.90885  0.34032000000000007  0.57126  1.0000
  O   O96       1.0  0.8004399999999999  0.37315000000000004  0.61455  1.0000
  O   O97       1.0  0.16669999999999996  0.63024  0.98604  1.0000
  O   O98       1.0  0.16987  0.53677  0.0416  1.0000
  O   O99       1.0  0.16602  0.5529700000000001  0.93863  1.0000
  O   O100      1.0  0.13082999999999997  0.21754000000000004  0.79177  1.0000
  O   O101      1.0  0.23326999999999995  0.29997  0.79382  1.0000
  O   O102      1.0  0.30284  0.21634  0.78172  1.0000
  O   O103      1.0  0.20032  0.13063000000000002  0.7877000000000001  1.0000
  O   O104      1.0  0.17565  0.46525  0.87652  1.0000
  O   O105      1.0  0.81187  0.39350000000000007  0.02791  1.0000
  O   O106      1.0  0.9069799999999998  0.37340000000000007  0.9741700000000001  1.0000
  O   O107      1.0  0.13055999999999998  0.31316000000000005  0.15053  1.0000
  O   O108      1.0  0.019709999999999995  0.30343000000000003  0.19406  1.0000
  O   O109      1.0  0.9581899999999999  0.31044  0.13906  1.0000
  O   O110      1.0  0.8796199999999998  0.35678  0.07565  1.0000
  O   O111      1.0  0.15962999999999997  0.40676  0.82133  1.0000
  O   O112      1.0  0.12674  0.29991  0.8649400000000003  1.0000
  O   O113      1.0  0.83329  0.36972  0.48606000000000005  1.0000
  O   O114      1.0  0.83012  0.46315000000000006  0.54163  1.0000
  O   O115      1.0  0.8339199999999999  0.44703000000000004  0.43866000000000005  1.0000
  O   O116      1.0  0.86772  0.78329  0.29182  1.0000
  O   O117      1.0  0.76643  0.69966  0.29377  1.0000
  O   O118      1.0  0.6963399999999998  0.78313  0.28176  1.0000
  O   O119      1.0  0.79684  0.8693  0.28775  1.0000
  O   O120      1.0  0.82349  0.53439  0.37693  1.0000
  O   O121      1.0  0.18799  0.6065000000000002  0.5279000000000001  1.0000
  O   O122      1.0  0.09301999999999999  0.62653  0.47418  1.0000
  O   O123      1.0  0.86946  0.68698  0.65056  1.0000
  O   O124      1.0  0.9803599999999999  0.69698  0.69408  1.0000
  O   O125      1.0  0.04182999999999999  0.68944  0.63908  1.0000
  O   O126      1.0  0.12031  0.64318  0.57566  1.0000
  O   O127      1.0  0.84045  0.5909  0.32118  1.0000
  O   O128      1.0  0.87317  0.69943  0.36412  1.0000
