data_image0
_chemical_formula_structural       Zn32H144C288O104
_chemical_formula_sum              "Zn32 H144 C288 O104"
_cell_length_a       17.77928
_cell_length_b       19.00342
_cell_length_c       26.65231
_cell_angle_alpha    89.9183
_cell_angle_beta     109.97647
_cell_angle_gamma    89.83827999999998

_space_group_name_H-M_alt    "P 1"
_space_group_IT_number       1

loop_
  _space_group_symop_operation_xyz
  'x, y, z'

loop_
  _atom_site_type_symbol
  _atom_site_label
  _atom_site_symmetry_multiplicity
  _atom_site_fract_x
  _atom_site_fract_y
  _atom_site_fract_z
  _atom_site_occupancy
  Zn  Zn1       1.0  0.48194999999999993  0.66293  0.6336800000000001  1.0000
  Zn  Zn2       1.0  0.46475000000000005  0.74781  0.52927  1.0000
  Zn  Zn3       1.0  0.48477  0.84106  0.6299  1.0000
  Zn  Zn4       1.0  0.32182  0.75159  0.55482  1.0000
  Zn  Zn5       1.0  0.18671000000000001  0.66254  0.57477  1.0000
  Zn  Zn6       1.0  0.18064  0.83406  0.57228  1.0000
  Zn  Zn7       1.0  0.33389  0.75027  0.66755  1.0000
  Zn  Zn8       1.0  0.17974  0.74486  0.72595  1.0000
  Zn  Zn9       1.0  0.018190000000000005  0.16266  0.86578  1.0000
  Zn  Zn10      1.0  0.03591000000000005  0.24511  0.97075  1.0000
  Zn  Zn11      1.0  0.015330000000000127  0.34073  0.8695400000000002  1.0000
  Zn  Zn12      1.0  0.1781  0.25166  0.945  1.0000
  Zn  Zn13      1.0  0.3129700000000001  0.16235  0.9253500000000001  1.0000
  Zn  Zn14      1.0  0.31681  0.33448  0.9257300000000002  1.0000
  Zn  Zn15      1.0  0.16644000000000012  0.24826000000000004  0.8312000000000003  1.0000
  Zn  Zn16      1.0  0.3229  0.24808  0.7752400000000002  1.0000
  Zn  Zn17      1.0  0.51782  0.3371  0.36622  1.0000
  Zn  Zn18      1.0  0.53499  0.25221  0.47057  1.0000
  Zn  Zn19      1.0  0.51545  0.15902  0.37000000000000005  1.0000
  Zn  Zn20      1.0  0.6780400000000001  0.24839000000000003  0.44505  1.0000
  Zn  Zn21      1.0  0.81409  0.33748  0.42589  1.0000
  Zn  Zn22      1.0  0.81949  0.16605  0.42746  1.0000
  Zn  Zn23      1.0  0.66751  0.25167  0.33262  1.0000
  Zn  Zn24      1.0  0.81979  0.255  0.27384  1.0000
  Zn  Zn25      1.0  0.9821  0.83666  0.13394  1.0000
  Zn  Zn26      1.0  0.9636499999999999  0.75251  0.02902  1.0000
  Zn  Zn27      1.0  0.98289  0.65865  0.13019  1.0000
  Zn  Zn28      1.0  0.82113  0.74841  0.05461  1.0000
  Zn  Zn29      1.0  0.68629  0.83756  0.07586  1.0000
  Zn  Zn30      1.0  0.6830700000000001  0.66568  0.07414000000000001  1.0000
  Zn  Zn31      1.0  0.83505  0.75186  0.16802  1.0000
  Zn  Zn32      1.0  0.67631  0.75469  0.22603000000000006  1.0000
  H   H1        1.0  0.56145  0.01472  0.56514  1.0000
  H   H2        1.0  0.6222600000000001  0.10748  0.5253200000000001  1.0000
  H   H3        1.0  0.64613  0.79536  0.50979  1.0000
  H   H4        1.0  0.7369399999999999  0.76323  0.46155  1.0000
  H   H5        1.0  0.8041200000000001  0.85634  0.42635000000000006  1.0000
  H   H6        1.0  0.7814199999999999  0.9818700000000001  0.4407900000000001  1.0000
  H   H7        1.0  0.68208  0.5842  0.64631  1.0000
  H   H8        1.0  0.80666  0.52666  0.7026800000000002  1.0000
  H   H9        1.0  0.8732  0.43648  0.66391  1.0000
  H   H10       1.0  0.8157300000000001  0.40567  0.56862  1.0000
  H   H11       1.0  0.5818700000000001  0.47745000000000004  0.4228800000000001  1.0000
  H   H12       1.0  0.52022  0.57213  0.46035  1.0000
  H   H13       1.0  0.14826000000000003  0.7547  0.40906000000000003  1.0000
  H   H14       1.0  0.051429999999999976  0.75469  0.31636  1.0000
  H   H15       1.0  0.40939  0.75129  0.38939  1.0000
  H   H16       1.0  0.45465999999999995  0.75051  0.31214000000000003  1.0000
  H   H17       1.0  0.35577  0.74492  0.21928  1.0000
  H   H18       1.0  0.21111  0.74006  0.20519000000000004  1.0000
  H   H19       1.0  0.3295100000000001  0.01538  0.6710400000000001  1.0000
  H   H20       1.0  0.30210000000000004  0.10784000000000002  0.7280000000000001  1.0000
  H   H21       1.0  0.48498  0.8408899999999999  0.79345  1.0000
  H   H22       1.0  0.54664  0.83297  0.89132  1.0000
  H   H23       1.0  0.5232  0.9268900000000001  0.94911  1.0000
  H   H24       1.0  0.43672000000000005  0.028009999999999993  0.9090200000000003  1.0000
  H   H25       1.0  0.4087100000000001  0.67222  0.8426200000000001  1.0000
  H   H26       1.0  0.5183600000000002  0.66978  0.9308400000000001  1.0000
  H   H27       1.0  0.2296400000000001  0.8543  0.8582300000000003  1.0000
  H   H28       1.0  0.2324400000000001  0.94208  0.92712  1.0000
  H   H29       1.0  0.34374000000000005  0.94219  0.014360000000000003  1.0000
  H   H30       1.0  0.45499000000000006  0.85684  0.03163  1.0000
  H   H31       1.0  0.23732000000000003  0.9029099999999999  0.76766  1.0000
  H   H32       1.0  0.21852  0.99606  0.82751  1.0000
  H   H33       1.0  0.02618000000000001  0.94268  0.59844  1.0000
  H   H34       1.0  0.91012  0.02291  0.56793  1.0000
  H   H35       1.0  0.88694  0.11098  0.6303700000000001  1.0000
  H   H36       1.0  0.9806500000000001  0.11985  0.7228900000000001  1.0000
  H   H37       1.0  0.93997  0.51232  0.9353800000000002  1.0000
  H   H38       1.0  0.8797200000000002  0.60591  0.9750500000000002  1.0000
  H   H39       1.0  0.8544000000000002  0.29424  0.9910300000000002  1.0000
  H   H40       1.0  0.7629699999999999  0.26287  0.039040000000000005  1.0000
  H   H41       1.0  0.69659  0.3566  0.07440000000000001  1.0000
  H   H42       1.0  0.7200799999999999  0.48190999999999995  0.06017  1.0000
  H   H43       1.0  0.81806  0.08445  0.8536700000000002  1.0000
  H   H44       1.0  0.69328  0.028150000000000005  0.79731  1.0000
  H   H45       1.0  0.62662  0.93807  0.83596  1.0000
  H   H46       1.0  0.68411  0.90638  0.93128  1.0000
  H   H47       1.0  0.9170799999999999  0.9771300000000002  0.07719  1.0000
  H   H48       1.0  0.97969  0.07056  0.03969  1.0000
  H   H49       1.0  0.35372999999999993  0.25732  0.09163000000000002  1.0000
  H   H50       1.0  0.4494699999999999  0.25844  0.18476  1.0000
  H   H51       1.0  0.09135  0.25137  0.1096  1.0000
  H   H52       1.0  0.045020000000000025  0.24992  0.18640000000000007  1.0000
  H   H53       1.0  0.14315  0.24494  0.27957  1.0000
  H   H54       1.0  0.28805  0.24146  0.29438000000000003  1.0000
  H   H55       1.0  0.17242000000000007  0.51438  0.8292400000000001  1.0000
  H   H56       1.0  0.1995600000000001  0.60664  0.7718700000000002  1.0000
  H   H57       1.0  0.015279999999999967  0.34142  0.7073  1.0000
  H   H58       1.0  0.9535700000000001  0.33373  0.60948  1.0000
  H   H59       1.0  0.97797  0.42690000000000006  0.55136  1.0000
  H   H60       1.0  0.06457000000000009  0.52741  0.5911200000000001  1.0000
  H   H61       1.0  0.09441999999999999  0.17436  0.65916  1.0000
  H   H62       1.0  0.9845599999999999  0.17137  0.57109  1.0000
  H   H63       1.0  0.2725699999999999  0.355  0.64121  1.0000
  H   H64       1.0  0.26829  0.44265  0.57167  1.0000
  H   H65       1.0  0.15569999999999998  0.4432  0.4850400000000001  1.0000
  H   H66       1.0  0.04540999999999997  0.35775  0.46868  1.0000
  H   H67       1.0  0.2623  0.40536  0.73232  1.0000
  H   H68       1.0  0.28165  0.4975  0.67175  1.0000
  H   H69       1.0  0.47234999999999994  0.4453500000000001  0.90158  1.0000
  H   H70       1.0  0.5894600000000001  0.52389  0.93135  1.0000
  H   H71       1.0  0.6133  0.61065  0.8682300000000002  1.0000
  H   H72       1.0  0.51933  0.62006  0.77579  1.0000
  H   H73       1.0  0.43862000000000007  0.98532  0.4346900000000001  1.0000
  H   H74       1.0  0.37782  0.89254  0.47452000000000005  1.0000
  H   H75       1.0  0.35395  0.20471  0.4901  1.0000
  H   H76       1.0  0.26322  0.23681  0.53838  1.0000
  H   H77       1.0  0.19612  0.1437  0.57362  1.0000
  H   H78       1.0  0.21877  0.01816  0.55913  1.0000
  H   H79       1.0  0.31801  0.41583  0.35391  1.0000
  H   H80       1.0  0.19349  0.47339  0.29746  1.0000
  H   H81       1.0  0.12689  0.56363  0.33612000000000003  1.0000
  H   H82       1.0  0.18418  0.59442  0.43144  1.0000
  H   H83       1.0  0.41786000000000006  0.52261  0.5772500000000002  1.0000
  H   H84       1.0  0.47957  0.42788  0.53993  1.0000
  H   H85       1.0  0.8512299999999999  0.24522000000000002  0.59084  1.0000
  H   H86       1.0  0.94797  0.24458  0.6836300000000001  1.0000
  H   H87       1.0  0.58984  0.24885000000000002  0.61036  1.0000
  H   H88       1.0  0.5446200000000001  0.24991  0.6876300000000001  1.0000
  H   H89       1.0  0.64363  0.2551  0.7805  1.0000
  H   H90       1.0  0.78826  0.25933  0.79453  1.0000
  H   H91       1.0  0.6719000000000002  0.9860699999999999  0.3294600000000001  1.0000
  H   H92       1.0  0.69879  0.8932999999999999  0.2723  1.0000
  H   H93       1.0  0.51461  0.15996  0.20703  1.0000
  H   H94       1.0  0.45258  0.16764  0.10912  1.0000
  H   H95       1.0  0.47663000000000016  0.07412  0.05134000000000001  1.0000
  H   H96       1.0  0.56334  0.97305  0.09137  1.0000
  H   H97       1.0  0.59029  0.32792  0.15708  1.0000
  H   H98       1.0  0.48096999999999995  0.33064  0.06871  1.0000
  H   H99       1.0  0.7697800000000001  0.14601  0.14146  1.0000
  H   H100      1.0  0.76678  0.058140000000000004  0.07256  1.0000
  H   H101      1.0  0.65518  0.05783  0.98544  1.0000
  H   H102      1.0  0.54424  0.14339  0.9681600000000001  1.0000
  H   H103      1.0  0.76271  0.09662  0.23195  1.0000
  H   H104      1.0  0.7818899999999999  0.0035700000000000007  0.17227  1.0000
  H   H105      1.0  0.9736899999999999  0.0571  0.4013400000000001  1.0000
  H   H106      1.0  0.08968000000000004  0.97682  0.4320100000000001  1.0000
  H   H107      1.0  0.11297999999999998  0.8886500000000002  0.36969  1.0000
  H   H108      1.0  0.01946000000000001  0.87978  0.2771  1.0000
  H   H109      1.0  0.06034  0.48679  0.06499  1.0000
  H   H110      1.0  0.11992  0.39357  0.024530000000000003  1.0000
  H   H111      1.0  0.14601  0.70545  0.00965  1.0000
  H   H112      1.0  0.23704000000000003  0.73688  0.9614200000000002  1.0000
  H   H113      1.0  0.30305  0.64328  0.92567  1.0000
  H   H114      1.0  0.27925000000000005  0.5179  0.93958  1.0000
  H   H115      1.0  0.18159  0.91489  0.14617  1.0000
  H   H116      1.0  0.30609  0.97167  0.20248  1.0000
  H   H117      1.0  0.3726  0.061759999999999995  0.16368000000000002  1.0000
  H   H118      1.0  0.31488  0.09325  0.06841000000000001  1.0000
  H   H119      1.0  0.08241000000000001  0.02202  0.92251  1.0000
  H   H120      1.0  0.020510000000000108  0.92775  0.9598400000000001  1.0000
  H   H121      1.0  0.6459600000000001  0.74287  0.9082100000000002  1.0000
  H   H122      1.0  0.55031  0.74202  0.81505  1.0000
  H   H123      1.0  0.90844  0.74859  0.8901600000000001  1.0000
  H   H124      1.0  0.95473  0.75006  0.81338  1.0000
  H   H125      1.0  0.85662  0.75481  0.72023  1.0000
  H   H126      1.0  0.71167  0.75836  0.70539  1.0000
  H   H127      1.0  0.82698  0.48623  0.17111000000000004  1.0000
  H   H128      1.0  0.80028  0.39329  0.22820000000000004  1.0000
  H   H129      1.0  0.98523  0.65789  0.29339000000000004  1.0000
  H   H130      1.0  0.04696999999999999  0.66526  0.39134  1.0000
  H   H131      1.0  0.022160000000000065  0.57206  0.44926000000000005  1.0000
  H   H132      1.0  0.93565  0.47167  0.4093300000000001  1.0000
  H   H133      1.0  0.90581  0.82618  0.34165  1.0000
  H   H134      1.0  0.016410000000000015  0.82799  0.42945  1.0000
  H   H135      1.0  0.72771  0.64541  0.35927  1.0000
  H   H136      1.0  0.73192  0.55732  0.42842  1.0000
  H   H137      1.0  0.8443899999999999  0.55642  0.51513  1.0000
  H   H138      1.0  0.95495  0.64171  0.53169  1.0000
  H   H139      1.0  0.73795  0.59667  0.26894  1.0000
  H   H140      1.0  0.71887  0.50358  0.3288500000000001  1.0000
  H   H141      1.0  0.52798  0.55771  0.09917  1.0000
  H   H142      1.0  0.41203  0.47811  0.06874  1.0000
  H   H143      1.0  0.38888  0.38995  0.13122000000000003  1.0000
  H   H144      1.0  0.48216999999999993  0.38078  0.22387000000000007  1.0000
  C   C1        1.0  0.55976  0.8793499999999999  0.55159  1.0000
  C   C2        1.0  0.6091299999999998  0.92949  0.5329700000000002  1.0000
  C   C3        1.0  0.59946  0.00019  0.54237  1.0000
  C   C4        1.0  0.63435  0.05229000000000001  0.52033  1.0000
  C   C5        1.0  0.6832999999999999  0.03402  0.49151  1.0000
  C   C6        1.0  0.69973  0.96187  0.4838500000000001  1.0000
  C   C7        1.0  0.66009  0.9080599999999999  0.50389  1.0000
  C   C8        1.0  0.6754199999999999  0.83639  0.49502000000000007  1.0000
  C   C9        1.0  0.7261199999999999  0.81844  0.4677000000000001  1.0000
  C   C10       1.0  0.76405  0.87123  0.4476300000000001  1.0000
  C   C11       1.0  0.7511299999999999  0.9413699999999999  0.45548  1.0000
  C   C12       1.0  0.55858  0.61668  0.55742  1.0000
  C   C13       1.0  0.60483  0.5626  0.53943  1.0000
  C   C14       1.0  0.67584  0.52886  0.57401  1.0000
  C   C15       1.0  0.71121  0.54567  0.62908  1.0000
  C   C16       1.0  0.78076  0.51302  0.66063  1.0000
  C   C17       1.0  0.8184000000000001  0.46194  0.6387600000000001  1.0000
  C   C18       1.0  0.78619  0.44437  0.58546  1.0000
  C   C19       1.0  0.7147700000000001  0.47697  0.5515300000000001  1.0000
  C   C20       1.0  0.67832  0.45870000000000005  0.4964100000000001  1.0000
  C   C21       1.0  0.60888  0.49219  0.46461  1.0000
  C   C22       1.0  0.5738000000000001  0.54528  0.4856700000000001  1.0000
  C   C23       1.0  0.30201000000000006  0.74968  0.44448000000000004  1.0000
  C   C24       1.0  0.2522  0.74929  0.38664  1.0000
  C   C25       1.0  0.16983000000000006  0.75162  0.37558000000000014  1.0000
  C   C26       1.0  0.11524  0.75072  0.32325  1.0000
  C   C27       1.0  0.14274  0.74541  0.28072  1.0000
  C   C28       1.0  0.22639  0.74415  0.28939000000000004  1.0000
  C   C29       1.0  0.28307  0.74712  0.3432  1.0000
  C   C30       1.0  0.36579  0.74888  0.34946  1.0000
  C   C31       1.0  0.39089999999999997  0.74835  0.30577  1.0000
  C   C32       1.0  0.33518  0.74524  0.25331  1.0000
  C   C33       1.0  0.25448  0.74279  0.24545  1.0000
  C   C34       1.0  0.10730000000000013  0.09974  0.8031700000000003  1.0000
  C   C35       1.0  0.7135  0.09336  0.46723000000000003  1.0000
  C   C36       1.0  0.08299  0.7443  0.22493000000000002  1.0000
  C   C37       1.0  0.54608  0.75576  0.0105  1.0000
  C   C38       1.0  0.34529  0.10984  0.83544  1.0000
  C   C39       1.0  0.40418000000000004  0.89213  0.7002900000000001  1.0000
  C   C40       1.0  0.39305  0.9482400000000001  0.73677  1.0000
  C   C41       1.0  0.35185000000000005  0.00904  0.7142300000000001  1.0000
  C   C42       1.0  0.33728  0.06189999999999999  0.7468200000000003  1.0000
  C   C43       1.0  0.36445  0.0547  0.80197  1.0000
  C   C44       1.0  0.41085  0.9942899999999999  0.82701  1.0000
  C   C45       1.0  0.42495000000000016  0.93993  0.7936100000000003  1.0000
  C   C46       1.0  0.47398  0.88176  0.8184400000000001  1.0000
  C   C47       1.0  0.50847  0.8774699999999999  0.87317  1.0000
  C   C48       1.0  0.4952500000000002  0.93083  0.9059700000000003  1.0000
  C   C49       1.0  0.44706000000000007  0.98758  0.8833900000000002  1.0000
  C   C50       1.0  0.28107  0.74996  0.81153  1.0000
  C   C51       1.0  0.3442400000000001  0.75526  0.8646300000000002  1.0000
  C   C52       1.0  0.40778000000000014  0.70854  0.8739200000000003  1.0000
  C   C53       1.0  0.4698900000000001  0.70777  0.9233100000000002  1.0000
  C   C54       1.0  0.4715300000000001  0.75638  0.9625500000000002  1.0000
  C   C55       1.0  0.40793  0.80629  0.95438  1.0000
  C   C56       1.0  0.34205  0.80507  0.90438  1.0000
  C   C57       1.0  0.27938999999999997  0.85529  0.8957400000000001  1.0000
  C   C58       1.0  0.28075999999999995  0.90392  0.93442  1.0000
  C   C59       1.0  0.3441100000000002  0.90405  0.9839800000000002  1.0000
  C   C60       1.0  0.40608000000000005  0.85623  0.9937200000000003  1.0000
  C   C61       1.0  0.1599  0.88584  0.66433  1.0000
  C   C62       1.0  0.13824000000000009  0.93634  0.6996500000000002  1.0000
  C   C63       1.0  0.18717000000000014  0.9393199999999999  0.7527900000000002  1.0000
  C   C64       1.0  0.17662000000000008  0.99215  0.7868500000000003  1.0000
  C   C65       1.0  0.11511000000000003  0.04052  0.76783  1.0000
  C   C66       1.0  0.05958999999999997  0.03646  0.71447  1.0000
  C   C67       1.0  0.07221000000000007  0.98434  0.6789700000000002  1.0000
  C   C68       1.0  0.01698999999999999  0.98125  0.62582  1.0000
  C   C69       1.0  0.95206  0.02636  0.60869  1.0000
  C   C70       1.0  0.93917  0.07667  0.6439400000000001  1.0000
  C   C71       1.0  0.9919699999999999  0.08191  0.6956700000000002  1.0000
  C   C72       1.0  0.7100400000000001  0.40276  0.46979  1.0000
  C   C73       1.0  0.94067  0.37712  0.94902  1.0000
  C   C74       1.0  0.89171  0.42781  0.9677300000000001  1.0000
  C   C75       1.0  0.9019000000000001  0.49832  0.9582100000000002  1.0000
  C   C76       1.0  0.8675400000000001  0.55086  0.9802900000000002  1.0000
  C   C77       1.0  0.81868  0.53325  0.009300000000000001  1.0000
  C   C78       1.0  0.80163  0.4612800000000001  0.01702  1.0000
  C   C79       1.0  0.8408099999999998  0.40703  0.9969300000000002  1.0000
  C   C80       1.0  0.8251299999999999  0.33549  0.00573  1.0000
  C   C81       1.0  0.77422  0.31797  0.03295  1.0000
  C   C82       1.0  0.73665  0.37115  0.05306  1.0000
  C   C83       1.0  0.75008  0.44122  0.04536000000000001  1.0000
  C   C84       1.0  0.94266  0.11488  0.94235  1.0000
  C   C85       1.0  0.89566  0.06158  0.96037  1.0000
  C   C86       1.0  0.82434  0.028610000000000003  0.9259  1.0000
  C   C87       1.0  0.78894  0.04592  0.8708500000000001  1.0000
  C   C88       1.0  0.71922  0.01398  0.8393200000000002  1.0000
  C   C89       1.0  0.68149  0.96302  0.86114  1.0000
  C   C90       1.0  0.7136400000000002  0.9450399999999999  0.9144500000000002  1.0000
  C   C91       1.0  0.7850200000000003  0.97714  0.9484200000000003  1.0000
  C   C92       1.0  0.8209099999999999  0.95882  0.00365  1.0000
  C   C93       1.0  0.89033  0.9919099999999998  0.0354  1.0000
  C   C94       1.0  0.92605  0.04429  0.01425  1.0000
  C   C95       1.0  0.20011  0.24999  0.05528000000000001  1.0000
  C   C96       1.0  0.24924999999999997  0.25059  0.11327000000000001  1.0000
  C   C97       1.0  0.33165  0.25397  0.12489000000000003  1.0000
  C   C98       1.0  0.38563  0.25379  0.17744000000000001  1.0000
  C   C99       1.0  0.35747000000000007  0.24801  0.21965000000000007  1.0000
  C   C100      1.0  0.27369  0.24569000000000002  0.21037  1.0000
  C   C101      1.0  0.21756  0.24815  0.15635000000000002  1.0000
  C   C102      1.0  0.13464000000000004  0.24916  0.14965000000000003  1.0000
  C   C103      1.0  0.10890000000000002  0.24829000000000004  0.19308000000000006  1.0000
  C   C104      1.0  0.16413  0.24558  0.24572  1.0000
  C   C105      1.0  0.24496999999999997  0.24394999999999997  0.25402  1.0000
  C   C106      1.0  0.39323  0.60029  0.69566  1.0000
  C   C107      1.0  0.7887899999999999  0.59323  0.03315  1.0000
  C   C108      1.0  0.41639  0.24727  0.27573  1.0000
  C   C109      1.0  0.9556  0.25659  0.4907800000000001  1.0000
  C   C110      1.0  0.15484  0.60931  0.66444  1.0000
  C   C111      1.0  0.0963900000000001  0.39195  0.7999400000000002  1.0000
  C   C112      1.0  0.10782  0.4480700000000001  0.76358  1.0000
  C   C113      1.0  0.14953000000000008  0.50834  0.7860400000000002  1.0000
  C   C114      1.0  0.16394000000000009  0.56107  0.7532500000000001  1.0000
  C   C115      1.0  0.13629  0.55411  0.6981200000000001  1.0000
  C   C116      1.0  0.08986000000000002  0.49401  0.6732300000000001  1.0000
  C   C117      1.0  0.07564000000000012  0.4399100000000001  0.7067900000000003  1.0000
  C   C118      1.0  0.026390000000000066  0.3821  0.6821800000000001  1.0000
  C   C119      1.0  0.9919399999999999  0.3779  0.62747  1.0000
  C   C120      1.0  0.005570000000000003  0.43089  0.5945  1.0000
  C   C121      1.0  0.05386000000000001  0.48730999999999997  0.61686  1.0000
  C   C122      1.0  0.22126  0.25225  0.68952  1.0000
  C   C123      1.0  0.15826999999999994  0.25688  0.63622  1.0000
  C   C124      1.0  0.09508999999999997  0.21026  0.62747  1.0000
  C   C125      1.0  0.03282000000000005  0.20918000000000003  0.5781900000000001  1.0000
  C   C126      1.0  0.030480000000000007  0.25746  0.53848  1.0000
  C   C127      1.0  0.09367  0.3073  0.54609  1.0000
  C   C128      1.0  0.15991999999999995  0.30619  0.59594  1.0000
  C   C129      1.0  0.22234  0.35615  0.60394  1.0000
  C   C130      1.0  0.22013  0.40471  0.56492  1.0000
  C   C131      1.0  0.15617000000000003  0.40501  0.51566  1.0000
  C   C132      1.0  0.09466  0.35719  0.50642  1.0000
  C   C133      1.0  0.33890000000000003  0.389  0.8356300000000002  1.0000
  C   C134      1.0  0.36084  0.43902  0.80021  1.0000
  C   C135      1.0  0.31237  0.44155999999999995  0.74695  1.0000
  C   C136      1.0  0.32330999999999993  0.49376  0.71252  1.0000
  C   C137      1.0  0.3848400000000001  0.54171  0.7313200000000002  1.0000
  C   C138      1.0  0.43999  0.53786  0.78481  1.0000
  C   C139      1.0  0.42685  0.4865499999999999  0.8207  1.0000
  C   C140      1.0  0.4818600000000001  0.48342  0.8739400000000003  1.0000
  C   C141      1.0  0.54734  0.52757  0.89064  1.0000
  C   C142      1.0  0.56069  0.57712  0.855  1.0000
  C   C143      1.0  0.50784  0.5826  0.80328  1.0000
  C   C144      1.0  0.78953  0.90298  0.030690000000000005  1.0000
  C   C145      1.0  0.44028  0.12066  0.44826  1.0000
  C   C146      1.0  0.39089  0.07053  0.46685  1.0000
  C   C147      1.0  0.40062  0.99984  0.45748  1.0000
  C   C148      1.0  0.36576  0.94773  0.47953  1.0000
  C   C149      1.0  0.31676999999999994  0.9659899999999999  0.5083  1.0000
  C   C150      1.0  0.30038000000000004  0.03815  0.5160100000000001  1.0000
  C   C151      1.0  0.33999  0.09198  0.49597  1.0000
  C   C152      1.0  0.32469  0.16365  0.50486  1.0000
  C   C153      1.0  0.27404  0.1816  0.53222  1.0000
  C   C154      1.0  0.23613  0.1288  0.5523  1.0000
  C   C155      1.0  0.24903000000000014  0.05865  0.5444200000000001  1.0000
  C   C156      1.0  0.44138999999999995  0.38335  0.44274  1.0000
  C   C157      1.0  0.39513999999999994  0.43743000000000004  0.4607500000000001  1.0000
  C   C158      1.0  0.3241200000000001  0.4711699999999999  0.42617000000000005  1.0000
  C   C159      1.0  0.2888  0.45435  0.3711  1.0000
  C   C160      1.0  0.21929000000000004  0.48702  0.33952000000000004  1.0000
  C   C161      1.0  0.18163000000000007  0.53813  0.3613300000000001  1.0000
  C   C162      1.0  0.2137400000000001  0.55569  0.4146400000000001  1.0000
  C   C163      1.0  0.28513000000000005  0.52307  0.4486000000000001  1.0000
  C   C164      1.0  0.32153999999999994  0.54134  0.5037  1.0000
  C   C165      1.0  0.39094  0.50784  0.53552  1.0000
  C   C166      1.0  0.42606999999999995  0.45474  0.51451  1.0000
  C   C167      1.0  0.69755  0.25028  0.5553700000000001  1.0000
  C   C168      1.0  0.7472499999999999  0.25047  0.6132  1.0000
  C   C169      1.0  0.82963  0.24804999999999996  0.62432  1.0000
  C   C170      1.0  0.8841700000000001  0.24873000000000003  0.67668  1.0000
  C   C171      1.0  0.8565699999999999  0.25414  0.7191600000000001  1.0000
  C   C172      1.0  0.7728900000000001  0.25547  0.7103700000000001  1.0000
  C   C173      1.0  0.71624  0.25259  0.65656  1.0000
  C   C174      1.0  0.63348  0.25107  0.65028  1.0000
  C   C175      1.0  0.60839  0.25173  0.6939800000000002  1.0000
  C   C176      1.0  0.66412  0.25462  0.7464400000000002  1.0000
  C   C177      1.0  0.74481  0.25679  0.7543  1.0000
  C   C178      1.0  0.89329  0.90008  0.19666  1.0000
  C   C179      1.0  0.28623000000000004  0.90662  0.5323500000000001  1.0000
  C   C180      1.0  0.9160499999999999  0.25559  0.77505  1.0000
  C   C181      1.0  0.454  0.24462  0.98879  1.0000
  C   C182      1.0  0.65358  0.8905599999999999  0.16518  1.0000
  C   C183      1.0  0.5969  0.10843  0.30033000000000004  1.0000
  C   C184      1.0  0.6076399999999998  0.05267  0.26361  1.0000
  C   C185      1.0  0.64918  0.99213  0.28625  1.0000
  C   C186      1.0  0.6633099999999998  0.93917  0.25364  1.0000
  C   C187      1.0  0.63539  0.94625  0.19853  1.0000
  C   C188      1.0  0.58924  0.006740000000000001  0.1734  1.0000
  C   C189      1.0  0.57529  0.06110999999999999  0.20681  1.0000
  C   C190      1.0  0.52592  0.11918  0.18205000000000005  1.0000
  C   C191      1.0  0.49117  0.12339  0.12732  1.0000
  C   C192      1.0  0.50463  0.07015  0.09448  1.0000
  C   C193      1.0  0.553  0.013460000000000001  0.11701000000000003  1.0000
  C   C194      1.0  0.71774  0.25011  0.18832  1.0000
  C   C195      1.0  0.65495  0.24503  0.13507  1.0000
  C   C196      1.0  0.5914099999999998  0.29177  0.12571  1.0000
  C   C197      1.0  0.52951  0.29273  0.07621  1.0000
  C   C198      1.0  0.5282  0.24424000000000004  0.03697  1.0000
  C   C199      1.0  0.59167  0.1942  0.04529  1.0000
  C   C200      1.0  0.65741  0.19533  0.09533  1.0000
  C   C201      1.0  0.72  0.14505  0.10397  1.0000
  C   C202      1.0  0.71851  0.09634  0.06529  1.0000
  C   C203      1.0  0.65507  0.09613  0.015770000000000003  1.0000
  C   C204      1.0  0.59327  0.1441  0.00601  1.0000
  C   C205      1.0  0.84012  0.11388  0.33549  1.0000
  C   C206      1.0  0.8617199999999999  0.06333  0.30014  1.0000
  C   C207      1.0  0.81295  0.06033  0.24696000000000007  1.0000
  C   C208      1.0  0.82373  0.007549999999999999  0.21294  1.0000
  C   C209      1.0  0.88525  0.95923  0.23199  1.0000
  C   C210      1.0  0.9405899999999999  0.96327  0.28539  1.0000
  C   C211      1.0  0.9277900000000001  0.01537  0.32085  1.0000
  C   C212      1.0  0.98293  0.01848  0.3740100000000001  1.0000
  C   C213      1.0  0.047820000000000015  0.9733600000000001  0.39123  1.0000
  C   C214      1.0  0.06080000000000005  0.9229899999999999  0.35604000000000013  1.0000
  C   C215      1.0  0.008129999999999991  0.91777  0.30428  1.0000
  C   C216      1.0  0.2899000000000001  0.59725  0.5303500000000001  1.0000
  C   C217      1.0  0.058530000000000006  0.62211  0.05072000000000001  1.0000
  C   C218      1.0  0.10829  0.57161  0.03264  1.0000
  C   C219      1.0  0.09823  0.50103  0.0421  1.0000
  C   C220      1.0  0.13237  0.44866000000000006  0.01972  1.0000
  C   C221      1.0  0.18108000000000005  0.46647000000000005  0.9906700000000002  1.0000
  C   C222      1.0  0.19818000000000013  0.53847  0.9831000000000002  1.0000
  C   C223      1.0  0.15915  0.59261  0.00342  1.0000
  C   C224      1.0  0.17496000000000014  0.66417  0.9947400000000002  1.0000
  C   C225      1.0  0.22572000000000011  0.68176  0.9674  1.0000
  C   C226      1.0  0.26304  0.62866  0.94704  1.0000
  C   C227      1.0  0.2495200000000001  0.55858  0.95463  1.0000
  C   C228      1.0  0.0575  0.88335  0.05722  1.0000
  C   C229      1.0  0.10438  0.9368199999999999  0.03917  1.0000
  C   C230      1.0  0.17530999999999997  0.9702900000000001  0.07378  1.0000
  C   C231      1.0  0.21068  0.9533100000000001  0.1289  1.0000
  C   C232      1.0  0.28021  0.9855699999999998  0.16042  1.0000
  C   C233      1.0  0.31782  0.03658  0.13858000000000004  1.0000
  C   C234      1.0  0.28554  0.05448  0.08527000000000001  1.0000
  C   C235      1.0  0.21431  0.02211  0.05135000000000001  1.0000
  C   C236      1.0  0.1782799999999999  0.0406  0.99618  1.0000
  C   C237      1.0  0.1091699999999999  0.00723  0.9643  1.0000
  C   C238      1.0  0.0739100000000001  0.95428  0.9853300000000003  1.0000
  C   C239      1.0  0.79975  0.75  0.94448  1.0000
  C   C240      1.0  0.7505400000000001  0.74952  0.8865400000000001  1.0000
  C   C241      1.0  0.66814  0.74628  0.8750100000000002  1.0000
  C   C242      1.0  0.61417  0.74665  0.82247  1.0000
  C   C243      1.0  0.64228  0.75249  0.78025  1.0000
  C   C244      1.0  0.72604  0.75449  0.78942  1.0000
  C   C245      1.0  0.78219  0.75192  0.84344  1.0000
  C   C246      1.0  0.8651100000000002  0.75082  0.8501200000000002  1.0000
  C   C247      1.0  0.8908300000000001  0.75164  0.8067000000000002  1.0000
  C   C248      1.0  0.8356000000000001  0.75428  0.7540600000000002  1.0000
  C   C249      1.0  0.7547400000000001  0.75602  0.7457600000000002  1.0000
  C   C250      1.0  0.60718  0.40048  0.30427  1.0000
  C   C251      1.0  0.21087999999999993  0.40657  0.9667  1.0000
  C   C252      1.0  0.5829900000000001  0.7537  0.7243300000000003  1.0000
  C   C253      1.0  0.0450100000000001  0.74299  0.5095300000000001  1.0000
  C   C254      1.0  0.84487  0.39041  0.33568  1.0000
  C   C255      1.0  0.90199  0.60808  0.20043  1.0000
  C   C256      1.0  0.8917  0.55191  0.23702000000000006  1.0000
  C   C257      1.0  0.85003  0.49174999999999996  0.21435000000000004  1.0000
  C   C258      1.0  0.83582  0.43881  0.24699000000000004  1.0000
  C   C259      1.0  0.8634900000000001  0.44561000000000006  0.30212000000000006  1.0000
  C   C260      1.0  0.9099900000000001  0.50555  0.32725  1.0000
  C   C261      1.0  0.92418  0.5598  0.29381  1.0000
  C   C262      1.0  0.9737099999999999  0.6174  0.3185  1.0000
  C   C263      1.0  0.008220000000000054  0.62138  0.3732300000000001  1.0000
  C   C264      1.0  0.9944599999999999  0.5683  0.40611  1.0000
  C   C265      1.0  0.94613  0.51195  0.3836400000000001  1.0000
  C   C266      1.0  0.77851  0.74871  0.3114  1.0000
  C   C267      1.0  0.84195  0.74347  0.36442  1.0000
  C   C268      1.0  0.90525  0.78999  0.37320000000000003  1.0000
  C   C269      1.0  0.9677699999999999  0.79056  0.42233  1.0000
  C   C270      1.0  0.97  0.74219  0.4619600000000001  1.0000
  C   C271      1.0  0.9066600000000001  0.69256  0.4544100000000001  1.0000
  C   C272      1.0  0.84036  0.69395  0.4046  1.0000
  C   C273      1.0  0.77791  0.64404  0.39652  1.0000
  C   C274      1.0  0.7801000000000002  0.59527  0.4353900000000001  1.0000
  C   C275      1.0  0.84405  0.59475  0.48464  1.0000
  C   C276      1.0  0.9056400000000001  0.64252  0.49397  1.0000
  C   C277      1.0  0.6614600000000002  0.61397  0.16551000000000005  1.0000
  C   C278      1.0  0.63944  0.5637  0.20082  1.0000
  C   C279      1.0  0.68795  0.56047  0.25404  1.0000
  C   C280      1.0  0.6771500000000001  0.50766  0.28813  1.0000
  C   C281      1.0  0.6157199999999999  0.45965  0.26903  1.0000
  C   C282      1.0  0.56078  0.4639499999999999  0.21548000000000006  1.0000
  C   C283      1.0  0.57367  0.51594  0.17995  1.0000
  C   C284      1.0  0.51882  0.51919  0.12666000000000002  1.0000
  C   C285      1.0  0.45394  0.47439999999999993  0.10952000000000002  1.0000
  C   C286      1.0  0.44093  0.42412  0.14479  1.0000
  C   C287      1.0  0.49345  0.41868  0.19660000000000005  1.0000
  C   C288      1.0  0.21000999999999995  0.09679  0.96973  1.0000
  O   O1        1.0  0.54485  0.8960899999999999  0.5937  1.0000
  O   O2        1.0  0.53368  0.82492  0.52285  1.0000
  O   O3        1.0  0.52594  0.66452  0.5231500000000001  1.0000
  O   O4        1.0  0.5529  0.61072  0.60383  1.0000
  O   O5        1.0  0.0524  0.80401  0.20713  1.0000
  O   O6        1.0  0.06808  0.68535  0.20142  1.0000
  O   O7        1.0  0.43957  0.75107  0.59637  1.0000
  O   O8        1.0  0.06728000000000005  0.08879  0.83348  1.0000
  O   O9        1.0  0.14215  0.15695  0.79815  1.0000
  O   O10       1.0  0.37843999999999994  0.75027  0.45879  1.0000
  O   O11       1.0  0.2638  0.74961  0.47755000000000003  1.0000
  O   O12       1.0  0.65908  0.36045  0.43931  1.0000
  O   O13       1.0  0.78502  0.40007  0.47695000000000004  1.0000
  O   O14       1.0  0.66171  0.13958  0.44266000000000005  1.0000
  O   O15       1.0  0.78758  0.09624  0.47232  1.0000
  O   O16       1.0  0.2500200000000001  0.74999  0.5990400000000001  1.0000
  O   O17       1.0  0.57652  0.69529  0.02589  1.0000
  O   O18       1.0  0.57546  0.81486  0.030440000000000005  1.0000
  O   O19       1.0  0.32129  0.08985  0.8731  1.0000
  O   O20       1.0  0.35619999999999996  0.17544  0.82832  1.0000
  O   O21       1.0  0.18200000000000005  0.82242  0.6792200000000002  1.0000
  O   O22       1.0  0.15908  0.90744  0.61887  1.0000
  O   O23       1.0  0.30131  0.73525  0.77109  1.0000
  O   O24       1.0  0.20574999999999993  0.75781  0.80508  1.0000
  O   O25       1.0  0.3859500000000001  0.82873  0.7095100000000001  1.0000
  O   O26       1.0  0.43128000000000005  0.91025  0.6641200000000002  1.0000
  O   O27       1.0  0.9522699999999998  0.39247  0.9055200000000002  1.0000
  O   O28       1.0  0.9698000000000001  0.32421  0.9791200000000002  1.0000
  O   O29       1.0  0.9774800000000001  0.1611  0.9772600000000002  1.0000
  O   O30       1.0  0.9469700000000001  0.11035000000000002  0.89552  1.0000
  O   O31       1.0  0.44967  0.30622  0.29241  1.0000
  O   O32       1.0  0.42800000000000005  0.1891  0.30073000000000005  1.0000
  O   O33       1.0  0.06022999999999997  0.25036  0.9032400000000002  1.0000
  O   O34       1.0  0.43514  0.58877  0.6666  1.0000
  O   O35       1.0  0.35683999999999994  0.65739  0.6991800000000001  1.0000
  O   O36       1.0  0.12372  0.25002  0.04076000000000001  1.0000
  O   O37       1.0  0.23865  0.24962000000000004  0.022360000000000005  1.0000
  O   O38       1.0  0.84101  0.86019  0.06063000000000001  1.0000
  O   O39       1.0  0.71498  0.90066  0.02468  1.0000
  O   O40       1.0  0.8405499999999999  0.63962  0.05693000000000001  1.0000
  O   O41       1.0  0.71482  0.59659  0.0283  1.0000
  O   O42       1.0  0.24918000000000018  0.24985999999999997  0.8999600000000002  1.0000
  O   O43       1.0  0.92424  0.19626  0.47696000000000005  1.0000
  O   O44       1.0  0.9267700000000001  0.31546  0.4694300000000001  1.0000
  O   O45       1.0  0.17847000000000005  0.58956  0.6266200000000001  1.0000
  O   O46       1.0  0.1437  0.67494  0.67156  1.0000
  O   O47       1.0  0.31870000000000004  0.32514  0.8213700000000002  1.0000
  O   O48       1.0  0.33731999999999995  0.41088  0.88038  1.0000
  O   O49       1.0  0.20068  0.23912  0.73004  1.0000
  O   O50       1.0  0.29667  0.25912  0.69609  1.0000
  O   O51       1.0  0.11497999999999997  0.32865  0.79078  1.0000
  O   O52       1.0  0.06862000000000003  0.4101  0.8357700000000001  1.0000
  O   O53       1.0  0.45527000000000006  0.10396999999999999  0.40618  1.0000
  O   O54       1.0  0.46632  0.17504  0.4770800000000001  1.0000
  O   O55       1.0  0.47390000000000004  0.33544  0.4769800000000001  1.0000
  O   O56       1.0  0.44715  0.38932  0.39635  1.0000
  O   O57       1.0  0.9485400000000003  0.19646  0.7926900000000001  1.0000
  O   O58       1.0  0.9286900000000001  0.31449  0.79882  1.0000
  O   O59       1.0  0.56035  0.24909  0.40355  1.0000
  O   O60       1.0  0.9335599999999998  0.9109299999999999  0.16653  1.0000
  O   O61       1.0  0.85829  0.84288  0.20162000000000002  1.0000
  O   O62       1.0  0.62115  0.24975999999999998  0.54104  1.0000
  O   O63       1.0  0.7358  0.25042  0.52234  1.0000
  O   O64       1.0  0.34092000000000006  0.63964  0.5607300000000001  1.0000
  O   O65       1.0  0.21499  0.5999  0.52338  1.0000
  O   O66       1.0  0.33785999999999994  0.8605400000000001  0.55742  1.0000
  O   O67       1.0  0.21192999999999995  0.9035700000000001  0.52662  1.0000
  O   O68       1.0  0.75043  0.25027  0.40129  1.0000
  O   O69       1.0  0.4242599999999999  0.30495  0.97223  1.0000
  O   O70       1.0  0.42427000000000004  0.18525  0.9697200000000001  1.0000
  O   O71       1.0  0.67944  0.9099900000000001  0.12829  1.0000
  O   O72       1.0  0.64008  0.82527  0.17164  1.0000
  O   O73       1.0  0.81802  0.17731  0.32063  1.0000
  O   O74       1.0  0.84111  0.09245  0.38102  1.0000
  O   O75       1.0  0.69734  0.26458  0.22869  1.0000
  O   O76       1.0  0.7930800000000001  0.24228  0.19482000000000005  1.0000
  O   O77       1.0  0.61762  0.17134  0.29238  1.0000
  O   O78       1.0  0.56809  0.09004  0.3356200000000001  1.0000
  O   O79       1.0  0.04511000000000001  0.60699  0.09361000000000003  1.0000
  O   O80       1.0  0.03042  0.67512  0.020440000000000007  1.0000
  O   O81       1.0  0.02349  0.83619  0.022930000000000006  1.0000
  O   O82       1.0  0.05260000000000001  0.8892100000000001  0.10385000000000001  1.0000
  O   O83       1.0  0.54872  0.69521  0.70769  1.0000
  O   O84       1.0  0.5719  0.81183  0.69932  1.0000
  O   O85       1.0  0.93927  0.74908  0.09650000000000003  1.0000
  O   O86       1.0  0.56507  0.41123  0.3333  1.0000
  O   O87       1.0  0.64364  0.34349  0.30042  1.0000
  O   O88       1.0  0.87614  0.7499  0.9589400000000001  1.0000
  O   O89       1.0  0.76126  0.75038  0.97742  1.0000
  O   O90       1.0  0.15898999999999988  0.13951  0.93935  1.0000
  O   O91       1.0  0.28498  0.09959  0.97692  1.0000
  O   O92       1.0  0.15913  0.36032  0.94274  1.0000
  O   O93       1.0  0.28491999999999995  0.40324999999999994  0.9717100000000001  1.0000
  O   O94       1.0  0.75073  0.75023  0.09994  1.0000
  O   O95       1.0  0.07583999999999995  0.80351  0.52341  1.0000
  O   O96       1.0  0.07442  0.68414  0.53057  1.0000
  O   O97       1.0  0.82148  0.41022  0.37358000000000013  1.0000
  O   O98       1.0  0.8558899999999999  0.32482  0.32839  1.0000
  O   O99       1.0  0.6812999999999999  0.67795  0.17931000000000002  1.0000
  O   O100      1.0  0.66312  0.59148  0.12089000000000001  1.0000
  O   O101      1.0  0.79795  0.76585  0.27106  1.0000
  O   O102      1.0  0.70361  0.73859  0.30495  1.0000
  O   O103      1.0  0.88264  0.67116  0.20951  1.0000
  O   O104      1.0  0.9287499999999999  0.58994  0.16408000000000006  1.0000
