data_image0
_chemical_formula_structural       Si16Ag8H256C208N32
_chemical_formula_sum              "Si16 Ag8 H256 C208 N32"
_cell_length_a       17.35986
_cell_length_b       18.2535
_cell_length_c       20.16262
_cell_angle_alpha    90.00089
_cell_angle_beta     89.99597999999999
_cell_angle_gamma    90.00718

_space_group_name_H-M_alt    "P 1"
_space_group_IT_number       1

loop_
  _space_group_symop_operation_xyz
  'x, y, z'

loop_
  _atom_site_type_symbol
  _atom_site_label
  _atom_site_symmetry_multiplicity
  _atom_site_fract_x
  _atom_site_fract_y
  _atom_site_fract_z
  _atom_site_occupancy
  Si  Si1       1.0  0.45877  0.68323  0.5784999999999999  1.0000
  Si  Si2       1.0  0.919  0.82638  0.8597  1.0000
  Si  Si3       1.0  0.04123  0.3168000000000001  0.07853  1.0000
  Si  Si4       1.0  0.58097  0.17358000000000004  0.35954  1.0000
  Si  Si5       1.0  0.54133  0.18304000000000004  0.9213499999999999  1.0000
  Si  Si6       1.0  0.08103  0.32638000000000006  0.64045  1.0000
  Si  Si7       1.0  0.9587000000000001  0.81696  0.42144  1.0000
  Si  Si8       1.0  0.41895  0.67367  0.14034999999999997  1.0000
  Si  Si9       1.0  0.85517  0.50079  0.8565499999999999  1.0000
  Si  Si10      1.0  0.52384  0.03248  0.64049  1.0000
  Si  Si11      1.0  0.64479  0.49917  0.35655  1.0000
  Si  Si12      1.0  0.97629  0.9674300000000001  0.14056  1.0000
  Si  Si13      1.0  0.14474  0.00101  0.6434699999999999  1.0000
  Si  Si14      1.0  0.47631999999999997  0.5324300000000001  0.85938  1.0000
  Si  Si15      1.0  0.35517  0.99898  0.14343  1.0000
  Si  Si16      1.0  0.02382  0.46766  0.35943  1.0000
  Ag  Ag1       1.0  0.31435  0.8837  0.8485699999999999  1.0000
  Ag  Ag2       1.0  0.18561  0.11641  0.34878  1.0000
  Ag  Ag3       1.0  0.68573  0.38376  0.65109  1.0000
  Ag  Ag4       1.0  0.81425  0.61613  0.15144999999999997  1.0000
  Ag  Ag5       1.0  0.82689  0.1183  0.85086  1.0000
  Ag  Ag6       1.0  0.67291  0.8816300000000001  0.35055  1.0000
  Ag  Ag7       1.0  0.17294  0.61841  0.64944  1.0000
  Ag  Ag8       1.0  0.32695  0.38157  0.14918  1.0000
  H   H1        1.0  0.51343  0.41667  0.6214899999999999  1.0000
  H   H2        1.0  0.43054  0.51965  0.5872  1.0000
  H   H3        1.0  0.6227  0.66459  0.6294199999999999  1.0000
  H   H4        1.0  0.69663  0.55538  0.66328  1.0000
  H   H5        1.0  0.33996  0.6188400000000001  0.54438  1.0000
  H   H6        1.0  0.34921  0.70315  0.50372  1.0000
  H   H7        1.0  0.3674  0.59794  0.42233  1.0000
  H   H8        1.0  0.4478  0.56716  0.46932  1.0000
  H   H9        1.0  0.45168  0.65202  0.42764  1.0000
  H   H10       1.0  0.48537  0.8050100000000002  0.53096  1.0000
  H   H11       1.0  0.54559  0.7381200000000001  0.4932599999999999  1.0000
  H   H12       1.0  0.56764  0.77338  0.5732  1.0000
  H   H13       1.0  0.30573  0.7578500000000001  0.6068099999999998  1.0000
  H   H14       1.0  0.25712  0.82446  0.70485  1.0000
  H   H15       1.0  0.45032  0.77064  0.81527  1.0000
  H   H16       1.0  0.50841  0.70237  0.72141  1.0000
  H   H17       1.0  0.19918  0.75561  0.85409  1.0000
  H   H18       1.0  0.059910000000000005  0.72883  0.85321  1.0000
  H   H19       1.0  0.0201  0.96388  0.8601399999999999  1.0000
  H   H20       1.0  0.16095  0.9800100000000002  0.86115  1.0000
  H   H21       1.0  0.9214  0.72105  0.7833999999999999  1.0000
  H   H22       1.0  0.82707  0.75179  0.7966199999999999  1.0000
  H   H23       1.0  0.87277  0.77748  0.67771  1.0000
  H   H24       1.0  0.9456499999999999  0.83519  0.70975  1.0000
  H   H25       1.0  0.84777  0.8590200000000002  0.72008  1.0000
  H   H26       1.0  0.87743  0.95147  0.82261  1.0000
  H   H27       1.0  0.87642  0.9435400000000002  0.91042  1.0000
  H   H28       1.0  0.8016  0.90392  0.86266  1.0000
  H   H29       1.0  0.01431  0.75675  0.9716299999999999  1.0000
  H   H30       1.0  0.97607  0.69113  0.07373  1.0000
  H   H31       1.0  0.74412  0.70973  0.02909  1.0000
  H   H32       1.0  0.77193  0.77502  0.92411  1.0000
  H   H33       1.0  0.9866800000000001  0.58332  0.12187  1.0000
  H   H34       1.0  0.06946  0.48036000000000006  0.0873  1.0000
  H   H35       1.0  0.87735  0.3354  0.12952  1.0000
  H   H36       1.0  0.80348  0.44456  0.16365  1.0000
  H   H37       1.0  0.16004  0.38118000000000013  0.04435  1.0000
  H   H38       1.0  0.15075  0.2968700000000001  0.0036999999999999997  1.0000
  H   H39       1.0  0.1326  0.4020700000000001  0.9223199999999999  1.0000
  H   H40       1.0  0.05219  0.43288  0.9692799999999998  1.0000
  H   H41       1.0  0.0483  0.34801  0.92762  1.0000
  H   H42       1.0  0.014649999999999998  0.19503  0.03097  1.0000
  H   H43       1.0  0.9544600000000001  0.26193000000000005  0.99327  1.0000
  H   H44       1.0  0.93235  0.22665000000000002  0.07317999999999998  1.0000
  H   H45       1.0  0.1943  0.24212000000000003  0.10689  1.0000
  H   H46       1.0  0.2429  0.17559  0.20494  1.0000
  H   H47       1.0  0.04966  0.22935  0.31533  1.0000
  H   H48       1.0  0.99154  0.29753  0.22146  1.0000
  H   H49       1.0  0.30081  0.24445  0.35451999999999995  1.0000
  H   H50       1.0  0.4401  0.27116  0.35304  1.0000
  H   H51       1.0  0.47981  0.0361  0.36009  1.0000
  H   H52       1.0  0.33895  0.020040000000000006  0.36167  1.0000
  H   H53       1.0  0.5786  0.2789500000000001  0.28328  1.0000
  H   H54       1.0  0.67292  0.24820000000000003  0.29652  1.0000
  H   H55       1.0  0.62724  0.22249  0.17759  1.0000
  H   H56       1.0  0.55436  0.16479  0.20964  1.0000
  H   H57       1.0  0.65224  0.14097  0.21996999999999994  1.0000
  H   H58       1.0  0.6226  0.04843  0.32254999999999995  1.0000
  H   H59       1.0  0.62353  0.056530000000000004  0.4103399999999999  1.0000
  H   H60       1.0  0.69838  0.09609  0.36256999999999995  1.0000
  H   H61       1.0  0.48566000000000004  0.2433  0.47157  1.0000
  H   H62       1.0  0.52404  0.30898  0.57358  1.0000
  H   H63       1.0  0.75591  0.29048  0.52877  1.0000
  H   H64       1.0  0.7281  0.22505  0.42385  1.0000
  H   H65       1.0  0.48688999999999993  0.91642  0.8780999999999999  1.0000
  H   H66       1.0  0.56971  0.0194  0.91261  1.0000
  H   H67       1.0  0.37764  0.16432  0.8702  1.0000
  H   H68       1.0  0.30375  0.05511  0.83619  1.0000
  H   H69       1.0  0.66015  0.11878000000000001  0.9556099999999998  1.0000
  H   H70       1.0  0.65079  0.20313  0.9961899999999999  1.0000
  H   H71       1.0  0.63271  0.09799  0.07766  1.0000
  H   H72       1.0  0.55231  0.06707  0.030729999999999997  1.0000
  H   H73       1.0  0.54839  0.15199  0.07234  1.0000
  H   H74       1.0  0.51447  0.30473  0.9688699999999998  1.0000
  H   H75       1.0  0.45436  0.23769  0.00657  1.0000
  H   H76       1.0  0.43229  0.27295  0.92662  1.0000
  H   H77       1.0  0.69426  0.25815000000000005  0.8931  1.0000
  H   H78       1.0  0.74274  0.3249  0.79511  1.0000
  H   H79       1.0  0.54951  0.271  0.68474  1.0000
  H   H80       1.0  0.49159  0.20251000000000002  0.77854  1.0000
  H   H81       1.0  0.8008  0.2557  0.6454  1.0000
  H   H82       1.0  0.9400499999999999  0.22887  0.64697  1.0000
  H   H83       1.0  0.98003  0.46390000000000003  0.63996  1.0000
  H   H84       1.0  0.8392  0.48008  0.63827  1.0000
  H   H85       1.0  0.07865  0.22104000000000001  0.7167399999999999  1.0000
  H   H86       1.0  0.17298  0.25182  0.7035299999999999  1.0000
  H   H87       1.0  0.12721  0.27752  0.82242  1.0000
  H   H88       1.0  0.05435  0.33521  0.79035  1.0000
  H   H89       1.0  0.15223  0.35906  0.78006  1.0000
  H   H90       1.0  0.12269  0.45158  0.67736  1.0000
  H   H91       1.0  0.12349  0.44341  0.58957  1.0000
  H   H92       1.0  0.19843  0.4039300000000001  0.63727  1.0000
  H   H93       1.0  0.9856500000000001  0.25671  0.52837  1.0000
  H   H94       1.0  0.024  0.19086  0.42645  1.0000
  H   H95       1.0  0.25586  0.20912000000000003  0.4713399999999999  1.0000
  H   H96       1.0  0.22807  0.27474  0.57617  1.0000
  H   H97       1.0  0.01315  0.0836  0.37833  1.0000
  H   H98       1.0  0.9302899999999998  0.9805900000000001  0.41268999999999995  1.0000
  H   H99       1.0  0.12241  0.8357100000000001  0.37026  1.0000
  H   H100      1.0  0.19632  0.94496  0.33640999999999993  1.0000
  H   H101      1.0  0.83986  0.88119  0.45564999999999994  1.0000
  H   H102      1.0  0.84921  0.7968400000000001  0.49623  1.0000
  H   H103      1.0  0.86728  0.9020000000000001  0.5777099999999998  1.0000
  H   H104      1.0  0.94767  0.93291  0.53076  1.0000
  H   H105      1.0  0.95159  0.84799  0.57236  1.0000
  H   H106      1.0  0.9855799999999999  0.69526  0.46891  1.0000
  H   H107      1.0  0.04572  0.76227  0.5066099999999999  1.0000
  H   H108      1.0  0.06773  0.72705  0.42662999999999995  1.0000
  H   H109      1.0  0.80576  0.74199  0.39329  1.0000
  H   H110      1.0  0.75725  0.67515  0.29534  1.0000
  H   H111      1.0  0.9504500000000001  0.72899  0.18487  1.0000
  H   H112      1.0  0.00838  0.79756  0.27864  1.0000
  H   H113      1.0  0.69921  0.74428  0.14593  1.0000
  H   H114      1.0  0.55997  0.77118  0.14685  1.0000
  H   H115      1.0  0.51992  0.53614  0.13989  1.0000
  H   H116      1.0  0.66074  0.51991  0.13883  1.0000
  H   H117      1.0  0.42134000000000005  0.77897  0.2167  1.0000
  H   H118      1.0  0.32701  0.7482  0.2035  1.0000
  H   H119      1.0  0.37279  0.72246  0.32237  1.0000
  H   H120      1.0  0.44565  0.66478  0.29025999999999996  1.0000
  H   H121      1.0  0.34777  0.64094  0.27999  1.0000
  H   H122      1.0  0.37734  0.54851  0.17733  1.0000
  H   H123      1.0  0.3765  0.55656  0.08951999999999999  1.0000
  H   H124      1.0  0.30157  0.59609  0.13723999999999997  1.0000
  H   H125      1.0  0.51432  0.74322  0.028299999999999995  1.0000
  H   H126      1.0  0.47608  0.809  0.92631  1.0000
  H   H127      1.0  0.24414  0.79063  0.9711299999999999  1.0000
  H   H128      1.0  0.27196  0.72516  0.07601  1.0000
  H   H129      1.0  0.82155  0.24999  0.95868  1.0000
  H   H130      1.0  0.82049  0.38590000000000013  0.96213  1.0000
  H   H131      1.0  0.91746  0.38332  0.76411  1.0000
  H   H132      1.0  0.91898  0.24787  0.77125  1.0000
  H   H133      1.0  0.7566  0.50006  0.7680899999999999  1.0000
  H   H134      1.0  0.71494  0.49262000000000006  0.8464399999999999  1.0000
  H   H135      1.0  0.68  0.61491  0.7988  1.0000
  H   H136      1.0  0.77855  0.63753  0.7878899999999999  1.0000
  H   H137      1.0  0.74068  0.62853  0.8685299999999999  1.0000
  H   H138      1.0  0.91669  0.51945  0.96698  1.0000
  H   H139      1.0  0.81536  0.52223  0.9742299999999999  1.0000
  H   H140      1.0  0.86549  0.59901  0.94271  1.0000
  H   H141      1.0  0.02613  0.49263000000000007  0.8661799999999998  1.0000
  H   H142      1.0  0.13279  0.54145  0.7973  1.0000
  H   H143      1.0  0.9808  0.6429200000000003  0.66855  1.0000
  H   H144      1.0  0.86762  0.5938000000000002  0.72794  1.0000
  H   H145      1.0  0.75814  0.17075000000000004  0.71852  1.0000
  H   H146      1.0  0.64877  0.14876  0.6430799999999999  1.0000
  H   H147      1.0  0.58278  0.9678500000000001  0.7705099999999999  1.0000
  H   H148      1.0  0.69628  0.9971800000000001  0.8399299999999998  1.0000
  H   H149      1.0  0.43714  0.13597  0.66183  1.0000
  H   H150      1.0  0.51058  0.16177000000000002  0.6064099999999999  1.0000
  H   H151      1.0  0.38111  0.15942  0.54791  1.0000
  H   H152      1.0  0.37035  0.0658  0.5676999999999999  1.0000
  H   H153      1.0  0.44429  0.09408  0.51283  1.0000
  H   H154      1.0  0.48662  0.91106  0.6890899999999999  1.0000
  H   H155      1.0  0.40995  0.9492300000000001  0.64349  1.0000
  H   H156      1.0  0.43035  0.98286  0.72387  1.0000
  H   H157      1.0  0.46181  0.9487600000000002  0.52336  1.0000
  H   H158      1.0  0.52387  0.88827  0.42815  1.0000
  H   H159      1.0  0.74089  0.9581  0.48599999999999993  1.0000
  H   H160      1.0  0.68872  0.02071  0.58494  1.0000
  H   H161      1.0  0.6785  0.75002  0.45860999999999996  1.0000
  H   H162      1.0  0.67955  0.61413  0.46212  1.0000
  H   H163      1.0  0.58252  0.6166000000000001  0.26413  1.0000
  H   H164      1.0  0.581  0.7520500000000002  0.27121999999999996  1.0000
  H   H165      1.0  0.74338  0.49992  0.26809  1.0000
  H   H166      1.0  0.78503  0.50735  0.34644  1.0000
  H   H167      1.0  0.81998  0.38506000000000007  0.29878  1.0000
  H   H168      1.0  0.72143  0.36245000000000005  0.28786  1.0000
  H   H169      1.0  0.75928  0.37144  0.3685  1.0000
  H   H170      1.0  0.58329  0.48053  0.46699  1.0000
  H   H171      1.0  0.68462  0.4777600000000001  0.47420999999999996  1.0000
  H   H172      1.0  0.6345  0.40097  0.44272  1.0000
  H   H173      1.0  0.4738  0.50733  0.36619  1.0000
  H   H174      1.0  0.36715  0.45868  0.29724  1.0000
  H   H175      1.0  0.51912  0.35719  0.16845  1.0000
  H   H176      1.0  0.6323  0.40614  0.22793  1.0000
  H   H177      1.0  0.74186  0.82925  0.21828999999999998  1.0000
  H   H178      1.0  0.85136  0.85123  0.14299999999999996  1.0000
  H   H179      1.0  0.9171600000000001  0.0321  0.27055  1.0000
  H   H180      1.0  0.80353  0.00279  0.33982  1.0000
  H   H181      1.0  0.06299  0.8639  0.16181  1.0000
  H   H182      1.0  0.98949  0.8382  0.10641  1.0000
  H   H183      1.0  0.11896  0.84057  0.047839999999999994  1.0000
  H   H184      1.0  0.12969  0.93419  0.06766  1.0000
  H   H185      1.0  0.05571  0.9059  0.012839999999999999  1.0000
  H   H186      1.0  0.01338  0.08890000000000003  0.18911  1.0000
  H   H187      1.0  0.09012  0.0508  0.14354999999999998  1.0000
  H   H188      1.0  0.06972  0.01719  0.22392999999999996  1.0000
  H   H189      1.0  0.03812  0.05117  0.02335  1.0000
  H   H190      1.0  0.9758  0.11209000000000001  0.92847  1.0000
  H   H191      1.0  0.75892  0.04214  0.9866  1.0000
  H   H192      1.0  0.81136  0.97912  0.08522  1.0000
  H   H193      1.0  0.17859  0.75014  0.54149  1.0000
  H   H194      1.0  0.17947  0.88602  0.53794  1.0000
  H   H195      1.0  0.08247  0.8835000000000001  0.7359599999999998  1.0000
  H   H196      1.0  0.08112  0.74804  0.72891  1.0000
  H   H197      1.0  0.24325999999999998  0.00020000000000000006  0.7319  1.0000
  H   H198      1.0  0.28494  0.9927  0.65358  1.0000
  H   H199      1.0  0.32015  0.11490000000000002  0.70125  1.0000
  H   H200      1.0  0.22166  0.13769  0.71219  1.0000
  H   H201      1.0  0.2595  0.12869  0.63155  1.0000
  H   H202      1.0  0.08318  0.01954  0.53304  1.0000
  H   H203      1.0  0.18452  0.02239  0.5257699999999998  1.0000
  H   H204      1.0  0.13435  0.09913000000000001  0.55731  1.0000
  H   H205      1.0  0.9738400000000001  0.9932600000000001  0.63359  1.0000
  H   H206      1.0  0.86715  0.04155  0.7027199999999999  1.0000
  H   H207      1.0  0.01901  0.14283  0.83171  1.0000
  H   H208      1.0  0.13227  0.09411000000000003  0.7721499999999999  1.0000
  H   H209      1.0  0.24183000000000002  0.6706300000000002  0.78183  1.0000
  H   H210      1.0  0.35122  0.64849  0.8571699999999999  1.0000
  H   H211      1.0  0.417  0.46774  0.72947  1.0000
  H   H212      1.0  0.30346  0.49722000000000005  0.6601599999999999  1.0000
  H   H213      1.0  0.56293  0.63602  0.83812  1.0000
  H   H214      1.0  0.48937  0.66172  0.89348  1.0000
  H   H215      1.0  0.61883  0.65949  0.95209  1.0000
  H   H216      1.0  0.62965  0.56588  0.9322899999999998  1.0000
  H   H217      1.0  0.55564  0.5941000000000001  0.98711  1.0000
  H   H218      1.0  0.51373  0.411  0.8108899999999999  1.0000
  H   H219      1.0  0.59027  0.44936  0.8565099999999999  1.0000
  H   H220      1.0  0.56998  0.48281  0.77607  1.0000
  H   H221      1.0  0.53814  0.4481800000000001  0.97637  1.0000
  H   H222      1.0  0.47583000000000003  0.38762  0.07145  1.0000
  H   H223      1.0  0.25902  0.45787  0.013449999999999998  1.0000
  H   H224      1.0  0.31146  0.52057  0.91467  1.0000
  H   H225      1.0  0.32156  0.24982000000000001  0.04137  1.0000
  H   H226      1.0  0.32055  0.11393000000000002  0.03789  1.0000
  H   H227      1.0  0.41751  0.11650000000000002  0.23591999999999996  1.0000
  H   H228      1.0  0.41899  0.25195  0.22879  1.0000
  H   H229      1.0  0.25673  0.99978  0.23192  1.0000
  H   H230      1.0  0.21496  0.00728  0.15363  1.0000
  H   H231      1.0  0.17982  0.88507  0.20126999999999998  1.0000
  H   H232      1.0  0.27832  0.8623  0.2122  1.0000
  H   H233      1.0  0.24048000000000003  0.8712900000000002  0.13156  1.0000
  H   H234      1.0  0.4168  0.9804200000000001  0.03304  1.0000
  H   H235      1.0  0.31546  0.9775300000000001  0.025709999999999997  1.0000
  H   H236      1.0  0.36563  0.90082  0.05729999999999999  1.0000
  H   H237      1.0  0.52607  0.00684  0.13357  1.0000
  H   H238      1.0  0.63276  0.95855  0.20269999999999996  1.0000
  H   H239      1.0  0.4808700000000001  0.85725  0.33168  1.0000
  H   H240      1.0  0.36762  0.9059900000000001  0.27213  1.0000
  H   H241      1.0  0.25818  0.3294  0.28157  1.0000
  H   H242      1.0  0.14887  0.35153  0.35703  1.0000
  H   H243      1.0  0.08295  0.53231  0.22944  1.0000
  H   H244      1.0  0.19639  0.5028200000000002  0.15999  1.0000
  H   H245      1.0  0.93721  0.36409000000000014  0.3381  1.0000
  H   H246      1.0  0.0107  0.3383  0.39347  1.0000
  H   H247      1.0  0.88125  0.34054000000000006  0.45204  1.0000
  H   H248      1.0  0.87041  0.43415  0.4322599999999999  1.0000
  H   H249      1.0  0.94439  0.4059400000000001  0.48710999999999993  1.0000
  H   H250      1.0  0.9862699999999999  0.58904  0.31092  1.0000
  H   H251      1.0  0.9098  0.55061  0.3566  1.0000
  H   H252      1.0  0.9301  0.5171500000000001  0.27615  1.0000
  H   H253      1.0  0.9618299999999999  0.55191  0.47637  1.0000
  H   H254      1.0  0.02394  0.61217  0.57168  1.0000
  H   H255      1.0  0.24086000000000002  0.54203  0.51389  1.0000
  H   H256      1.0  0.18865  0.4796  0.41489  1.0000
  C   C1        1.0  0.53518  0.4726000000000001  0.62258  1.0000
  C   C2        1.0  0.48934000000000005  0.53075  0.60316  1.0000
  C   C3        1.0  0.51829  0.6032800000000001  0.6039  1.0000
  C   C4        1.0  0.59515  0.6110200000000001  0.6269799999999999  1.0000
  C   C5        1.0  0.63747  0.5502200000000002  0.64588  1.0000
  C   C6        1.0  0.38172  0.65393  0.51826  1.0000
  C   C7        1.0  0.4136  0.6156100000000002  0.45603  1.0000
  C   C8        1.0  0.52044  0.7561300000000001  0.54044  1.0000
  C   C9        1.0  0.41354  0.72544  0.65391  1.0000
  C   C10       1.0  0.3407  0.75934  0.6515799999999999  1.0000
  C   C11       1.0  0.31264  0.79673  0.70664  1.0000
  C   C12       1.0  0.42083  0.7674700000000001  0.76767  1.0000
  C   C13       1.0  0.45304  0.72954  0.71479  1.0000
  C   C14       1.0  0.15717  0.79992  0.8563299999999999  1.0000
  C   C15       1.0  0.0788  0.78574  0.8561699999999999  1.0000
  C   C16       1.0  0.02461  0.8441200000000001  0.8581999999999999  1.0000
  C   C17       1.0  0.05686  0.91553  0.85985  1.0000
  C   C18       1.0  0.13597  0.9253200000000001  0.86012  1.0000
  C   C19       1.0  0.88596  0.7709100000000002  0.7860199999999999  1.0000
  C   C20       1.0  0.88816  0.81274  0.71989  1.0000
  C   C21       1.0  0.86389  0.91452  0.86404  1.0000
  C   C22       1.0  0.89685  0.77176  0.9369299999999999  1.0000
  C   C23       1.0  0.95349  0.7467900000000001  0.98141  1.0000
  C   C24       1.0  0.93215  0.7104900000000002  0.03934  1.0000
  C   C25       1.0  0.80338  0.72127  0.01452  1.0000
  C   C26       1.0  0.8197  0.75758  0.95543  1.0000
  C   C27       1.0  0.9648599999999999  0.52741  0.12282999999999998  1.0000
  C   C28       1.0  0.01062  0.46929  0.10319999999999999  1.0000
  C   C29       1.0  0.9816700000000002  0.39675  0.10384  1.0000
  C   C30       1.0  0.90484  0.389  0.12701  1.0000
  C   C31       1.0  0.86258  0.44976  0.14613  1.0000
  C   C32       1.0  0.11826000000000002  0.34610000000000013  0.018249999999999995  1.0000
  C   C33       1.0  0.08638  0.38442  0.95601  1.0000
  C   C34       1.0  0.97958  0.24391  0.04045  1.0000
  C   C35       1.0  0.08646  0.27458  0.15397  1.0000
  C   C36       1.0  0.15932  0.24068  0.15166  1.0000
  C   C37       1.0  0.18737  0.2033  0.20671999999999996  1.0000
  C   C38       1.0  0.07917  0.23252000000000003  0.26775  1.0000
  C   C39       1.0  0.04696  0.27044000000000007  0.21486  1.0000
  C   C40       1.0  0.34282  0.20012000000000005  0.35663  1.0000
  C   C41       1.0  0.42119  0.21426000000000006  0.35613  1.0000
  C   C42       1.0  0.47535000000000005  0.15586  0.35807  1.0000
  C   C43       1.0  0.44308  0.08446000000000001  0.35988  1.0000
  C   C44       1.0  0.36397  0.07472000000000001  0.36048  1.0000
  C   C45       1.0  0.61403  0.22909  0.28591  1.0000
  C   C46       1.0  0.61185  0.18725  0.21978  1.0000
  C   C47       1.0  0.63609  0.08546  0.36393  1.0000
  C   C48       1.0  0.60313  0.22814  0.43679999999999997  1.0000
  C   C49       1.0  0.54651  0.25314  0.48130999999999996  1.0000
  C   C50       1.0  0.56791  0.28953  0.5391699999999999  1.0000
  C   C51       1.0  0.69667  0.27881  0.51424  1.0000
  C   C52       1.0  0.6803100000000001  0.24238  0.45522999999999997  1.0000
  C   C53       1.0  0.46510000000000007  0.97233  0.87709  1.0000
  C   C54       1.0  0.51089  0.030470000000000004  0.89668  1.0000
  C   C55       1.0  0.48193  0.103  0.89596  1.0000
  C   C56       1.0  0.40512  0.11073000000000001  0.87276  1.0000
  C   C57       1.0  0.36285000000000006  0.04994  0.85371  1.0000
  C   C58       1.0  0.61834  0.15386  0.98168  1.0000
  C   C59       1.0  0.58648  0.11557  0.04395  1.0000
  C   C60       1.0  0.47949  0.25578  0.9593999999999999  1.0000
  C   C61       1.0  0.58649  0.22554000000000002  0.8459999999999999  1.0000
  C   C62       1.0  0.65926  0.25961  0.8483499999999999  1.0000
  C   C63       1.0  0.68726  0.29708  0.7933  1.0000
  C   C64       1.0  0.57908  0.26777  0.73228  1.0000
  C   C65       1.0  0.54695  0.22973000000000002  0.78515  1.0000
  C   C66       1.0  0.84286  0.29999  0.64333  1.0000
  C   C67       1.0  0.9212100000000001  0.28578  0.6438799999999999  1.0000
  C   C68       1.0  0.9754400000000001  0.34414  0.64196  1.0000
  C   C69       1.0  0.9432400000000001  0.41556  0.64014  1.0000
  C   C70       1.0  0.8641400000000001  0.42537  0.6395  1.0000
  C   C71       1.0  0.11408  0.27091  0.7141099999999999  1.0000
  C   C72       1.0  0.11185  0.31276  0.78023  1.0000
  C   C73       1.0  0.13614  0.41452000000000006  0.63598  1.0000
  C   C74       1.0  0.10311  0.27177  0.56318  1.0000
  C   C75       1.0  0.04649  0.24678000000000003  0.51867  1.0000
  C   C76       1.0  0.06787  0.21031  0.46085  1.0000
  C   C77       1.0  0.19663  0.22092  0.48582  1.0000
  C   C78       1.0  0.18028  0.25743  0.54479  1.0000
  C   C79       1.0  0.03491  0.02768  0.37724  1.0000
  C   C80       1.0  0.9891  0.96952  0.39672  1.0000
  C   C81       1.0  0.01806  0.89699  0.39596  1.0000
  C   C82       1.0  0.09488  0.88928  0.37279  1.0000
  C   C83       1.0  0.13719  0.95009  0.35385  1.0000
  C   C84       1.0  0.88166  0.8461200000000001  0.48172999999999994  1.0000
  C   C85       1.0  0.9135  0.8844100000000001  0.544  1.0000
  C   C86       1.0  0.02055  0.74422  0.45945  1.0000
  C   C87       1.0  0.91353  0.77448  0.34613  1.0000
  C   C88       1.0  0.84075  0.74044  0.34851999999999994  1.0000
  C   C89       1.0  0.81272  0.7029700000000001  0.2935  1.0000
  C   C90       1.0  0.92089  0.73225  0.23243  1.0000
  C   C91       1.0  0.9530599999999999  0.77029  0.28526999999999997  1.0000
  C   C92       1.0  0.65715  0.7000000000000002  0.14371  1.0000
  C   C93       1.0  0.5788  0.7142500000000002  0.14389  1.0000
  C   C94       1.0  0.52455  0.65591  0.14185  1.0000
  C   C95       1.0  0.55672  0.58447  0.14018  1.0000
  C   C96       1.0  0.63582  0.57463  0.1399  1.0000
  C   C97       1.0  0.38591  0.72909  0.21404999999999996  1.0000
  C   C98       1.0  0.38815000000000005  0.68723  0.28017  1.0000
  C   C99       1.0  0.36387  0.5855100000000001  0.13592  1.0000
  C   C100      1.0  0.39688  0.7283200000000002  0.06312  1.0000
  C   C101      1.0  0.4535  0.75326  0.0186  1.0000
  C   C102      1.0  0.43216  0.78962  0.9607099999999998  1.0000
  C   C103      1.0  0.30339  0.77897  0.98563  1.0000
  C   C104      1.0  0.31973  0.7425900000000002  0.044669999999999994  1.0000
  C   C105      1.0  0.84216  0.28208  0.91661  1.0000
  C   C106      1.0  0.84073  0.35816  0.9175799999999997  1.0000
  C   C107      1.0  0.86564  0.39846000000000004  0.86156  1.0000
  C   C108      1.0  0.89524  0.35671  0.8084799999999999  1.0000
  C   C109      1.0  0.89624  0.28062  0.8119199999999999  1.0000
  C   C110      1.0  0.75876  0.52343  0.8184999999999999  1.0000
  C   C111      1.0  0.73833  0.60548  0.8182499999999999  1.0000
  C   C112      1.0  0.86389  0.53893  0.9426799999999999  1.0000
  C   C113      1.0  0.93543  0.53786  0.80365  1.0000
  C   C114      1.0  0.0129  0.5247  0.82204  1.0000
  C   C115      1.0  0.07302  0.5522000000000001  0.78389  1.0000
  C   C116      1.0  0.98848  0.60737  0.71146  1.0000
  C   C117      1.0  0.92507  0.58029  0.7458999999999999  1.0000
  C   C118      1.0  0.71858  0.12553  0.72745  1.0000
  C   C119      1.0  0.65684  0.1125  0.68547  1.0000
  C   C120      1.0  0.60463  0.05452000000000001  0.69859  1.0000
  C   C121      1.0  0.62027  0.01293  0.75606  1.0000
  C   C122      1.0  0.68331  0.029190000000000004  0.79575  1.0000
  C   C123      1.0  0.46873  0.11813  0.6173  1.0000
  C   C124      1.0  0.41327  0.10880000000000002  0.55835  1.0000
  C   C125      1.0  0.45697  0.9627800000000001  0.6778599999999999  1.0000
  C   C126      1.0  0.56933  0.9918400000000002  0.56431  1.0000
  C   C127      1.0  0.52405  0.9529700000000001  0.51767  1.0000
  C   C128      1.0  0.55826  0.9187000000000001  0.46389  1.0000
  C   C129      1.0  0.67931  0.9574899999999998  0.49616999999999994  1.0000
  C   C130      1.0  0.64933  0.9928500000000001  0.55131  1.0000
  C   C131      1.0  0.65786  0.7179100000000002  0.4165499999999999  1.0000
  C   C132      1.0  0.65926  0.64184  0.41756999999999994  1.0000
  C   C133      1.0  0.63432  0.60151  0.36158  1.0000
  C   C134      1.0  0.60471  0.6432200000000001  0.30849  1.0000
  C   C135      1.0  0.60374  0.71932  0.31189  1.0000
  C   C136      1.0  0.74121  0.47654  0.31849  1.0000
  C   C137      1.0  0.76164  0.3944900000000001  0.31822  1.0000
  C   C138      1.0  0.63609  0.46104  0.44267  1.0000
  C   C139      1.0  0.56451  0.4621100000000001  0.30364  1.0000
  C   C140      1.0  0.48704  0.47531  0.32202  1.0000
  C   C141      1.0  0.42691  0.44791999999999993  0.28381  1.0000
  C   C142      1.0  0.51144  0.39273  0.21137  1.0000
  C   C143      1.0  0.57485  0.4197  0.24587  1.0000
  C   C144      1.0  0.78144  0.87443  0.22732  1.0000
  C   C145      1.0  0.84327  0.88744  0.18543  1.0000
  C   C146      1.0  0.8955  0.94537  0.19863999999999998  1.0000
  C   C147      1.0  0.87973  0.98698  0.25609  1.0000
  C   C148      1.0  0.81661  0.9707300000000001  0.29569  1.0000
  C   C149      1.0  0.03139  0.8817900000000001  0.11732  1.0000
  C   C150      1.0  0.08679  0.89117  0.05832  1.0000
  C   C151      1.0  0.04309  0.03721  0.17791  1.0000
  C   C152      1.0  0.9307000000000001  0.00803  0.06441  1.0000
  C   C153      1.0  0.97587  0.04702  0.01777  1.0000
  C   C154      1.0  0.94151  0.08151  0.9641799999999998  1.0000
  C   C155      1.0  0.82054  0.04267  0.9966199999999998  1.0000
  C   C156      1.0  0.85067  0.007080000000000001  0.051569999999999984  1.0000
  C   C157      1.0  0.15794000000000002  0.78222  0.58356  1.0000
  C   C158      1.0  0.15923  0.8583100000000001  0.58252  1.0000
  C   C159      1.0  0.13426  0.8986300000000002  0.6385  1.0000
  C   C160      1.0  0.10469  0.85689  0.69161  1.0000
  C   C161      1.0  0.10383  0.78078  0.68823  1.0000
  C   C162      1.0  0.24117  0.02358  0.6815  1.0000
  C   C163      1.0  0.26179  0.1056  0.68181  1.0000
  C   C164      1.0  0.13598  0.03906  0.55732  1.0000
  C   C165      1.0  0.06451  0.03821  0.69635  1.0000
  C   C166      1.0  0.9870500000000001  0.02511  0.67787  1.0000
  C   C167      1.0  0.9269000000000001  0.05237  0.7161299999999999  1.0000
  C   C168      1.0  0.01139  0.10743000000000001  0.7886899999999999  1.0000
  C   C169      1.0  0.07483  0.08054  0.75417  1.0000
  C   C170      1.0  0.2814  0.62546  0.7727599999999999  1.0000
  C   C171      1.0  0.34318000000000004  0.61237  0.81467  1.0000
  C   C172      1.0  0.39544  0.55448  0.8013799999999999  1.0000
  C   C173      1.0  0.37964  0.51291  0.74392  1.0000
  C   C174      1.0  0.31656  0.52923  0.70431  1.0000
  C   C175      1.0  0.53131  0.61814  0.88262  1.0000
  C   C176      1.0  0.58671  0.60885  0.9416199999999999  1.0000
  C   C177      1.0  0.54329  0.46279  0.8220599999999999  1.0000
  C   C178      1.0  0.43077  0.49161  0.93546  1.0000
  C   C179      1.0  0.47591  0.45255  0.9820499999999999  1.0000
  C   C180      1.0  0.44156  0.4182200000000001  0.03574  1.0000
  C   C181      1.0  0.32062  0.45720000000000005  0.0033799999999999998  1.0000
  C   C182      1.0  0.35075  0.4926400000000001  0.9483499999999999  1.0000
  C   C183      1.0  0.34213  0.21775  0.08345999999999999  1.0000
  C   C184      1.0  0.34075  0.14166  0.08246  1.0000
  C   C185      1.0  0.36566  0.10135  0.13847  1.0000
  C   C186      1.0  0.39526  0.1431  0.19155999999999998  1.0000
  C   C187      1.0  0.39622  0.21921  0.18813  1.0000
  C   C188      1.0  0.25877  0.9764  0.18151  1.0000
  C   C189      1.0  0.23818  0.89439  0.18182  1.0000
  C   C190      1.0  0.36398  0.96089  0.05729  1.0000
  C   C191      1.0  0.4354  0.96182  0.19629999999999997  1.0000
  C   C192      1.0  0.51286  0.97494  0.17782999999999996  1.0000
  C   C193      1.0  0.573  0.94767  0.21608  1.0000
  C   C194      1.0  0.48849  0.89261  0.28863999999999995  1.0000
  C   C195      1.0  0.42506  0.91951  0.25413  1.0000
  C   C196      1.0  0.21863  0.3746100000000001  0.27259  1.0000
  C   C197      1.0  0.15692  0.38772  0.31458  1.0000
  C   C198      1.0  0.10469  0.44565000000000005  0.30139  1.0000
  C   C199      1.0  0.12038  0.48719000000000007  0.24389  1.0000
  C   C200      1.0  0.18338  0.47085  0.20419  1.0000
  C   C201      1.0  0.96882  0.38192  0.38261999999999996  1.0000
  C   C202      1.0  0.91337  0.39119  0.44159999999999994  1.0000
  C   C203      1.0  0.95678  0.53723  0.32212  1.0000
  C   C204      1.0  0.06927  0.50849  0.43555  1.0000
  C   C205      1.0  0.02404  0.54748  0.48213999999999996  1.0000
  C   C206      1.0  0.058269999999999995  0.5816500000000001  0.5359699999999998  1.0000
  C   C207      1.0  0.17927  0.54271  0.50372  1.0000
  C   C208      1.0  0.14927  0.50743  0.44854999999999995  1.0000
  N   N1        1.0  0.35182  0.80179  0.76433  1.0000
  N   N2        1.0  0.60938  0.48056000000000004  0.64358  1.0000
  N   N3        1.0  0.18738  0.86877  0.85869  1.0000
  N   N4        1.0  0.85813  0.69769  0.05704  1.0000
  N   N5        1.0  0.14819  0.19821000000000005  0.26442  1.0000
  N   N6        1.0  0.89071  0.51942  0.14399  1.0000
  N   N7        1.0  0.31258  0.1313  0.35923  1.0000
  N   N8        1.0  0.64194  0.30241  0.55676  1.0000
  N   N9        1.0  0.64809  0.30213  0.7356  1.0000
  N   N10       1.0  0.39095  0.98029  0.85594  1.0000
  N   N11       1.0  0.81269  0.36883  0.64071  1.0000
  N   N12       1.0  0.14189  0.19735  0.44329  1.0000
  N   N13       1.0  0.85187  0.69792  0.23577999999999996  1.0000
  N   N14       1.0  0.10909  0.019740000000000008  0.35618  1.0000
  N   N15       1.0  0.6873  0.63114  0.14134  1.0000
  N   N16       1.0  0.35814  0.80249  0.94307  1.0000
  N   N17       1.0  0.86864  0.24241  0.86447  1.0000
  N   N18       1.0  0.06253  0.59375  0.7289899999999999  1.0000
  N   N19       1.0  0.73298  0.08505  0.78261  1.0000
  N   N20       1.0  0.63505  0.9198600000000001  0.45196  1.0000
  N   N21       1.0  0.63138  0.75756  0.36439999999999995  1.0000
  N   N22       1.0  0.43739  0.40647  0.22883999999999996  1.0000
  N   N23       1.0  0.76697  0.91486  0.28249  1.0000
  N   N24       1.0  0.86468  0.08047  0.9524399999999998  1.0000
  N   N25       1.0  0.13154  0.7425500000000002  0.63575  1.0000
  N   N26       1.0  0.93736  0.0937  0.7711699999999999  1.0000
  N   N27       1.0  0.26696  0.58513  0.71752  1.0000
  N   N28       1.0  0.36475  0.41945  0.04759  1.0000
  N   N29       1.0  0.36857  0.25743  0.13561999999999996  1.0000
  N   N30       1.0  0.56254  0.90629  0.27109  1.0000
  N   N31       1.0  0.23299999999999998  0.41496  0.21734999999999996  1.0000
  N   N32       1.0  0.13505  0.58032  0.5479599999999999  1.0000
