data_image0
_chemical_formula_structural       Co12H132C204N12O48
_chemical_formula_sum              "Co12 H132 C204 N12 O48"
_cell_length_a       18.47046
_cell_length_b       18.4567
_cell_length_c       18.45383
_cell_angle_alpha    109.46234
_cell_angle_beta     109.52063000000001
_cell_angle_gamma    109.51316

_symmetry_space_group_name_H-M    'P 1'
_symmetry_Int_Tables_number       1

loop_
  _symmetry_equiv_pos_as_xyz
  'x,y,z'

loop_
  _atom_site_type_symbol
  _atom_site_label
  _atom_site_symmetry_multiplicity
  _atom_site_fract_x
  _atom_site_fract_y
  _atom_site_fract_z
  _atom_site_occupancy
  Co  Co1       1.0  0.55427  0.50356  0.57147  1.0000
  Co  Co2       1.0  0.05087000000000001  0.06815  0.49667000000000006  1.0000
  Co  Co3       1.0  0.98289  0.42815  0.93166  1.0000
  Co  Co4       1.0  0.5167  0.06780000000000001  0.57138  1.0000
  Co  Co5       1.0  0.9454199999999999  0.42867999999999995  0.49635  1.0000
  Co  Co6       1.0  0.4490599999999999  0.5034399999999999  0.93221  1.0000
  Co  Co7       1.0  0.44569  0.49643999999999994  0.42854  1.0000
  Co  Co8       1.0  0.9491699999999998  0.93192  0.5034  1.0000
  Co  Co9       1.0  0.017149999999999995  0.57183  0.0683  1.0000
  Co  Co10      1.0  0.48329  0.9322099999999999  0.42857  1.0000
  Co  Co11      1.0  0.05455999999999991  0.5712699999999997  0.50363  1.0000
  Co  Co12      1.0  0.55097  0.49656  0.06768  1.0000
  H   H1        1.0  0.5798199999999999  0.5715699999999998  0.74284  1.0000
  H   H2        1.0  0.62603  0.63223  0.34423  1.0000
  H   H3        1.0  0.9101299999999999  0.59744  0.84332  1.0000
  H   H4        1.0  0.8507599999999997  0.5101999999999998  0.67905  1.0000
  H   H5        1.0  0.6993800000000002  0.47444000000000014  0.5740200000000002  1.0000
  H   H6        1.0  0.88676  0.66942  0.96532  1.0000
  H   H7        1.0  0.63562  0.65851  0.90389  1.0000
  H   H8        1.0  0.35788999999999993  0.22775999999999993  0.22438  1.0000
  H   H9        1.0  0.7892000000000001  0.71003  0.0155  1.0000
  H   H10       1.0  0.008539999999999994  0.17129  0.42864  1.0000
  H   H11       1.0  0.9935199999999998  0.71165  0.36732  1.0000
  H   H12       1.0  0.31272  0.24566  0.40258  1.0000
  H   H13       1.0  0.34071000000000007  0.16884  0.4898500000000001  1.0000
  H   H14       1.0  0.22535999999999998  0.10002000000000001  0.52591  1.0000
  H   H15       1.0  0.21708000000000002  0.29569  0.33048  1.0000
  H   H16       1.0  0.9768799999999999  0.24499  0.3414000000000001  1.0000
  H   H17       1.0  0.12949999999999998  0.9965  0.77184  1.0000
  H   H18       1.0  0.07880999999999998  0.30508999999999986  0.28991  1.0000
  H   H19       1.0  0.8370599999999999  0.2571299999999999  0.82834  1.0000
  H   H20       1.0  0.28181  0.65567  0.28813  1.0000
  H   H21       1.0  0.06683000000000001  0.15666000000000005  0.75418  1.0000
  H   H22       1.0  0.17176999999999992  0.3208899999999999  0.8309  1.0000
  H   H23       1.0  0.12543999999999997  0.42587999999999987  0.89996  1.0000
  H   H24       1.0  0.9213199999999999  0.034659999999999996  0.7042  1.0000
  H   H25       1.0  0.7315900000000001  0.09610999999999996  0.75447  1.0000
  H   H26       1.0  0.13291  0.77513  0.00359  1.0000
  H   H27       1.0  0.7735499999999997  0.9845399999999999  0.69469  1.0000
  H   H28       1.0  0.66262  0.17139999999999994  0.74252  1.0000
  H   H29       1.0  0.21845999999999996  0.71197  0.34443  1.0000
  H   H30       1.0  0.43325  0.24596  0.84333  1.0000
  H   H31       1.0  0.32821000000000006  0.16922  0.67908  1.0000
  H   H32       1.0  0.37433  0.09983000000000011  0.5740500000000002  1.0000
  H   H33       1.0  0.57882  0.2958  0.96532  1.0000
  H   H34       1.0  0.76837  0.24545999999999998  0.9036  1.0000
  H   H35       1.0  0.36667999999999995  0.99654  0.22508  1.0000
  H   H36       1.0  0.7265499999999998  0.30523  0.01529  1.0000
  H   H37       1.0  0.9201299999999999  0.25738999999999995  0.42845  1.0000
  H   H38       1.0  0.8741099999999999  0.65553  0.36785  1.0000
  H   H39       1.0  0.5898699999999999  0.15662  0.40261  1.0000
  H   H40       1.0  0.64913  0.32084000000000007  0.4898200000000001  1.0000
  H   H41       1.0  0.80031  0.42583999999999983  0.52536  1.0000
  H   H42       1.0  0.61334  0.034729999999999955  0.3306  1.0000
  H   H43       1.0  0.8645299999999998  0.09632999999999999  0.34166  1.0000
  H   H44       1.0  0.14172000000000004  0.7751300000000001  0.7721100000000002  1.0000
  H   H45       1.0  0.711  0.9846799999999998  0.29009  1.0000
  H   H46       1.0  0.49155  0.57131  0.82891  1.0000
  H   H47       1.0  0.5066899999999998  0.6327199999999997  0.2883  1.0000
  H   H48       1.0  0.1873100000000001  0.5973600000000002  0.7542900000000002  1.0000
  H   H49       1.0  0.1592700000000001  0.5100500000000001  0.8311000000000002  1.0000
  H   H50       1.0  0.27469  0.47414999999999996  0.90007  1.0000
  H   H51       1.0  0.283  0.66942  0.70435  1.0000
  H   H52       1.0  0.52316  0.65844  0.75505  1.0000
  H   H53       1.0  0.3702  0.22843  0.0033200000000000005  1.0000
  H   H54       1.0  0.42127999999999993  0.7099899999999998  0.6950000000000001  1.0000
  H   H55       1.0  0.42017999999999994  0.42847  0.25718  1.0000
  H   H56       1.0  0.37403  0.3677899999999999  0.65581  1.0000
  H   H57       1.0  0.08988999999999998  0.40249  0.1567  1.0000
  H   H58       1.0  0.14920999999999995  0.48967999999999995  0.32093  1.0000
  H   H59       1.0  0.3005999999999999  0.52559  0.42591  1.0000
  H   H60       1.0  0.11327999999999995  0.3306099999999999  0.03466  1.0000
  H   H61       1.0  0.3643699999999999  0.34146  0.09613  1.0000
  H   H62       1.0  0.64214  0.77227  0.77556  1.0000
  H   H63       1.0  0.2108299999999999  0.28996  0.9845  1.0000
  H   H64       1.0  0.9915199999999998  0.82871  0.57138  1.0000
  H   H65       1.0  0.006440000000000012  0.28837  0.63267  1.0000
  H   H66       1.0  0.68734  0.75441  0.59741  1.0000
  H   H67       1.0  0.65938  0.83126  0.51016  1.0000
  H   H68       1.0  0.7747299999999999  0.9000199999999999  0.47411  1.0000
  H   H69       1.0  0.78295  0.7043299999999998  0.66949  1.0000
  H   H70       1.0  0.023139999999999994  0.755  0.65861  1.0000
  H   H71       1.0  0.87065  0.0035799999999999994  0.22844  1.0000
  H   H72       1.0  0.9212  0.69492  0.71008  1.0000
  H   H73       1.0  0.16288999999999992  0.7428599999999997  0.17164000000000001  1.0000
  H   H74       1.0  0.7181999999999998  0.34428  0.71183  1.0000
  H   H75       1.0  0.9331999999999999  0.8433299999999997  0.24582  1.0000
  H   H76       1.0  0.8282399999999999  0.67916  0.16908  1.0000
  H   H77       1.0  0.87457  0.57418  0.10004  1.0000
  H   H78       1.0  0.07871999999999998  0.9653599999999999  0.29585  1.0000
  H   H79       1.0  0.26839  0.9038699999999998  0.24554  1.0000
  H   H80       1.0  0.8669699999999999  0.22481000000000004  0.9963  1.0000
  H   H81       1.0  0.22646999999999998  0.015469999999999996  0.30534  1.0000
  H   H82       1.0  0.3373499999999999  0.8286099999999997  0.25745  1.0000
  H   H83       1.0  0.78143  0.28799  0.65549  1.0000
  H   H84       1.0  0.56677  0.75408  0.15667  1.0000
  H   H85       1.0  0.6717899999999999  0.8308099999999998  0.32093  1.0000
  H   H86       1.0  0.62563  0.90012  0.42593000000000003  1.0000
  H   H87       1.0  0.42116999999999993  0.70418  0.03466  1.0000
  H   H88       1.0  0.23162  0.75454  0.09635  1.0000
  H   H89       1.0  0.63325  0.003440000000000021  0.77484  1.0000
  H   H90       1.0  0.27344  0.69474  0.98468  1.0000
  H   H91       1.0  0.07985999999999992  0.74257  0.5715  1.0000
  H   H92       1.0  0.1259100000000001  0.3443600000000001  0.6321600000000003  1.0000
  H   H93       1.0  0.41012999999999994  0.8433799999999999  0.59738  1.0000
  H   H94       1.0  0.3508599999999999  0.67914  0.51013  1.0000
  H   H95       1.0  0.19968  0.57413  0.47461  1.0000
  H   H96       1.0  0.38666999999999996  0.9652499999999999  0.66941  1.0000
  H   H97       1.0  0.13545999999999994  0.9036499999999998  0.65832  1.0000
  H   H98       1.0  0.8582999999999998  0.22484999999999994  0.22785  1.0000
  H   H99       1.0  0.289  0.015309999999999983  0.70991  1.0000
  H   H100      1.0  0.50852  0.42877  0.17112  1.0000
  H   H101      1.0  0.4934  0.36733  0.71177  1.0000
  H   H102      1.0  0.81277  0.40267000000000003  0.24574000000000004  1.0000
  H   H103      1.0  0.84079  0.49002999999999997  0.16897  1.0000
  H   H104      1.0  0.72534  0.52584  0.09985  1.0000
  H   H105      1.0  0.71698  0.3304999999999999  0.29558  1.0000
  H   H106      1.0  0.47690000000000005  0.34167000000000003  0.24502000000000004  1.0000
  H   H107      1.0  0.6299499999999999  0.77185  0.99673  1.0000
  H   H108      1.0  0.57875  0.29005  0.30501  1.0000
  H   H109      1.0  0.48467  0.23555999999999996  0.47092  1.0000
  H   H110      1.0  0.32114  0.07048  0.14128  1.0000
  H   H111      1.0  0.24927999999999995  0.23513000000000003  0.76413  1.0000
  H   H112      1.0  0.25033999999999995  0.0707399999999999  0.92923  1.0000
  H   H113      1.0  0.014119999999999898  0.5290099999999998  0.7648  1.0000
  H   H114      1.0  0.17958  0.85856  0.92971  1.0000
  H   H115      1.0  0.51516  0.76435  0.52901  1.0000
  H   H116      1.0  0.6788199999999999  0.9295299999999999  0.85863  1.0000
  H   H117      1.0  0.75071  0.76473  0.23571  1.0000
  H   H118      1.0  0.74991  0.9295199999999999  0.07101000000000002  1.0000
  H   H119      1.0  0.98594  0.47096  0.23513  1.0000
  H   H120      1.0  0.8204099999999998  0.1414  0.07024  1.0000
  H   H121      1.0  0.75004  0.52102  0.47959  1.0000
  H   H122      1.0  0.75026  0.68543  0.31484  1.0000
  H   H123      1.0  0.22901999999999995  0.9582799999999999  0.47881  1.0000
  H   H124      1.0  0.06457  0.629  0.31436  1.0000
  H   H125      1.0  0.27074  0.52072  0.04165  1.0000
  H   H126      1.0  0.43560999999999994  0.68542  0.37101  1.0000
  H   H127      1.0  0.24998999999999996  0.47903  0.5205  1.0000
  H   H128      1.0  0.2498199999999999  0.31453  0.68519  1.0000
  H   H129      1.0  0.77094  0.0417  0.52124  1.0000
  H   H130      1.0  0.9353699999999999  0.3710299999999999  0.68563  1.0000
  H   H131      1.0  0.72937  0.47931  0.95838  1.0000
  H   H132      1.0  0.56443  0.31461  0.629  1.0000
  C   C1        1.0  0.64778  0.5964  0.79141  1.0000
  C   C2        1.0  0.45664  0.33767  0.40505  1.0000
  C   C3        1.0  0.68213  0.5764799999999999  0.41701  1.0000
  C   C4        1.0  0.7033499999999999  0.5760699999999999  0.76118  1.0000
  C   C5        1.0  0.6807899999999999  0.6203099999999998  0.36779  1.0000
  C   C6        1.0  0.6132099999999999  0.5515700000000001  0.4431200000000001  1.0000
  C   C7        1.0  0.4275599999999999  0.24228999999999998  0.35263  1.0000
  C   C8        1.0  0.79078  0.60277  0.82564  1.0000
  C   C9        1.0  0.8440899999999998  0.57819  0.79491  1.0000
  C   C10       1.0  0.81149  0.5303499999999999  0.70487  1.0000
  C   C11       1.0  0.72609  0.50883  0.64546  1.0000
  C   C12       1.0  0.8208799999999999  0.65144  0.91765  1.0000
  C   C13       1.0  0.67919  0.6441  0.88138  1.0000
  C   C14       1.0  0.37817999999999996  0.19478  0.25947  1.0000
  C   C15       1.0  0.76621  0.67263  0.94505  1.0000
  C   C16       1.0  0.05152999999999998  0.19506  0.40376  1.0000
  C   C17       1.0  0.11898999999999997  0.06729999999999997  0.66209  1.0000
  C   C18       1.0  0.10550000000000007  0.8402199999999999  0.4233000000000001  1.0000
  C   C19       1.0  0.12751  0.18529  0.42415  1.0000
  C   C20       1.0  0.060260000000000036  0.74713  0.37934  1.0000
  C   C21       1.0  0.06153000000000002  0.89126  0.44829  1.0000
  C   C22       1.0  0.18522  0.11016  0.75743  1.0000
  C   C23       1.0  0.18811  0.22291  0.39735  1.0000
  C   C24       1.0  0.26599  0.21667999999999993  0.42189  1.0000
  C   C25       1.0  0.28133  0.17461999999999997  0.4698  1.0000
  C   C26       1.0  0.21754999999999985  0.13690999999999995  0.49142  1.0000
  C   C27       1.0  0.16935  0.2661099999999999  0.34862  1.0000
  C   C28       1.0  0.03497  0.23708  0.35592  1.0000
  C   C29       1.0  0.1830700000000001  0.06453000000000013  0.8048700000000002  1.0000
  C   C30       1.0  0.09338000000000002  0.27217  0.32737  1.0000
  C   C31       1.0  0.85638  0.20854  0.80474  1.0000
  C   C32       1.0  0.051520000000000024  0.59465  0.93266  1.0000
  C   C33       1.0  0.26533  0.5832  0.15964  1.0000
  C   C34       1.0  0.9421900000000004  0.23867  0.81462  1.0000
  C   C35       1.0  0.31316  0.63232  0.25275  1.0000
  C   C36       1.0  0.17022999999999996  0.55702  0.10853  1.0000
  C   C37       1.0  0.07492000000000014  0.64714  0.8898300000000002  1.0000
  C   C38       1.0  0.96509  0.1742299999999999  0.777  1.0000
  C   C39       1.0  0.04917999999999999  0.20499999999999993  0.7832  1.0000
  C   C40       1.0  0.10667000000000001  0.29503  0.82523  1.0000
  C   C41       1.0  0.08074000000000003  0.35442  0.86303  1.0000
  C   C42       1.0  0.90309  0.08228000000000002  0.73378  1.0000
  C   C43       1.0  0.7977  0.11862  0.76262  1.0000
  C   C44       1.0  0.11845999999999994  0.74024  0.93559  1.0000
  C   C45       1.0  0.82102  0.05496  0.72762  1.0000
  C   C46       1.0  0.64347  0.1951  0.79124  1.0000
  C   C47       1.0  0.44738  0.06729  0.40544  1.0000
  C   C48       1.0  0.23490999999999998  0.8404  0.41695  1.0000
  C   C49       1.0  0.55767  0.18519  0.76118  1.0000
  C   C50       1.0  0.18707  0.74731  0.36773  1.0000
  C   C51       1.0  0.33027  0.89143  0.44386  1.0000
  C   C52       1.0  0.42414999999999997  0.11018  0.35295  1.0000
  C   C53       1.0  0.53483  0.22287000000000012  0.8256600000000002  1.0000
  C   C54       1.0  0.45078  0.2167900000000001  0.7949300000000002  1.0000
  C   C55       1.0  0.39324999999999993  0.17474  0.7049  1.0000
  C   C56       1.0  0.41911999999999994  0.13679  0.64549  1.0000
  C   C57       1.0  0.5969400000000001  0.2661400000000001  0.9176200000000002  1.0000
  C   C58       1.0  0.70224  0.23727000000000004  0.8811500000000001  1.0000
  C   C59       1.0  0.38106  0.0645  0.25983  1.0000
  C   C60       1.0  0.6789999999999999  0.2722800000000001  0.94487  1.0000
  C   C61       1.0  0.8522099999999998  0.20872  0.4036  1.0000
  C   C62       1.0  0.04207999999999992  0.5946099999999997  0.66206  1.0000
  C   C63       1.0  0.81788  0.5829  0.42357  1.0000
  C   C64       1.0  0.79656  0.23885999999999996  0.42384  1.0000
  C   C65       1.0  0.81932  0.63211  0.37976  1.0000
  C   C66       1.0  0.8863399999999999  0.55609  0.44772  1.0000
  C   C67       1.0  0.07134999999999998  0.6470499999999999  0.75751  1.0000
  C   C68       1.0  0.7091799999999998  0.17437999999999995  0.39716  1.0000
  C   C69       1.0  0.6558399999999999  0.20505  0.42178  1.0000
  C   C70       1.0  0.6883799999999999  0.29504  0.46961  1.0000
  C   C71       1.0  0.7737  0.3544500000000001  0.4910100000000001  1.0000
  C   C72       1.0  0.6791800000000001  0.08242000000000003  0.3485600000000001  1.0000
  C   C73       1.0  0.8209099999999999  0.11880000000000002  0.35598  1.0000
  C   C74       1.0  0.1212299999999999  0.74017  0.80511  1.0000
  C   C75       1.0  0.73392  0.0551  0.32742  1.0000
  C   C76       1.0  0.44857999999999987  0.5961999999999997  0.80511  1.0000
  C   C77       1.0  0.37999000000000005  0.33804  0.9325000000000002  1.0000
  C   C78       1.0  0.39459  0.57661  0.15968  1.0000
  C   C79       1.0  0.37261000000000005  0.5759  0.81488  1.0000
  C   C80       1.0  0.4398899999999999  0.6205799999999998  0.25279  1.0000
  C   C81       1.0  0.43875999999999993  0.55226  0.10861  1.0000
  C   C82       1.0  0.31397  0.24261999999999997  0.88963  1.0000
  C   C83       1.0  0.3119700000000001  0.60263  0.77718  1.0000
  C   C84       1.0  0.23402999999999996  0.57806  0.78332  1.0000
  C   C85       1.0  0.21869  0.53017  0.82539  1.0000
  C   C86       1.0  0.28251999999999994  0.5086299999999999  0.86319  1.0000
  C   C87       1.0  0.33076  0.65134  0.734  1.0000
  C   C88       1.0  0.46511  0.64397  0.76302  1.0000
  C   C89       1.0  0.31652  0.1952199999999999  0.9353  1.0000
  C   C90       1.0  0.4067099999999999  0.67253  0.72792  1.0000
  C   C91       1.0  0.3522299999999999  0.4036099999999999  0.20858  1.0000
  C   C92       1.0  0.54333  0.66233  0.59491  1.0000
  C   C93       1.0  0.31784999999999997  0.42351  0.58301  1.0000
  C   C94       1.0  0.29668999999999995  0.42397999999999997  0.23881  1.0000
  C   C95       1.0  0.31924  0.3796799999999999  0.63224  1.0000
  C   C96       1.0  0.38673  0.44843  0.55689  1.0000
  C   C97       1.0  0.5724  0.7577  0.64731  1.0000
  C   C98       1.0  0.20927000000000004  0.39726  0.17435  1.0000
  C   C99       1.0  0.15593999999999994  0.42181  0.20509  1.0000
  C   C100      1.0  0.18851  0.4696  0.29511  1.0000
  C   C101      1.0  0.27393  0.49117999999999995  0.3545000000000001  1.0000
  C   C102      1.0  0.17914  0.34857  0.08235  1.0000
  C   C103      1.0  0.32082  0.3558999999999999  0.11863  1.0000
  C   C104      1.0  0.62179  0.80522  0.74046  1.0000
  C   C105      1.0  0.23381000000000002  0.32738  0.05495  1.0000
  C   C106      1.0  0.94852  0.80496  0.5962500000000001  1.0000
  C   C107      1.0  0.88098  0.93266  0.33796  1.0000
  C   C108      1.0  0.89445  0.15978999999999993  0.57669  1.0000
  C   C109      1.0  0.8725499999999999  0.81473  0.57586  1.0000
  C   C110      1.0  0.9397000000000001  0.25288000000000016  0.6206900000000002  1.0000
  C   C111      1.0  0.93843  0.10876000000000001  0.55169  1.0000
  C   C112      1.0  0.8148299999999998  0.8898099999999999  0.2426  1.0000
  C   C113      1.0  0.8119299999999999  0.7770999999999998  0.60263  1.0000
  C   C114      1.0  0.7340599999999999  0.7833599999999997  0.57809  1.0000
  C   C115      1.0  0.7187399999999998  0.8254499999999998  0.53021  1.0000
  C   C116      1.0  0.78253  0.8631299999999998  0.50859  1.0000
  C   C117      1.0  0.8306799999999999  0.73392  0.65137  1.0000
  C   C118      1.0  0.9650499999999995  0.76292  0.64408  1.0000
  C   C119      1.0  0.81706  0.9355199999999999  0.19524000000000002  1.0000
  C   C120      1.0  0.90663  0.72783  0.67261  1.0000
  C   C121      1.0  0.14362999999999992  0.79148  0.19528  1.0000
  C   C122      1.0  0.9484899999999999  0.40535  0.0673  1.0000
  C   C123      1.0  0.7346999999999998  0.41684  0.84037  1.0000
  C   C124      1.0  0.05782999999999992  0.7613399999999998  0.18539  1.0000
  C   C125      1.0  0.6869  0.3677  0.74725  1.0000
  C   C126      1.0  0.8297999999999999  0.44306  0.89149  1.0000
  C   C127      1.0  0.9250699999999998  0.35283  0.11010000000000003  1.0000
  C   C128      1.0  0.034919999999999944  0.8257799999999997  0.22299  1.0000
  C   C129      1.0  0.95083  0.79499  0.21679  1.0000
  C   C130      1.0  0.8933499999999999  0.7049899999999998  0.17476  1.0000
  C   C131      1.0  0.9193099999999998  0.64562  0.13698  1.0000
  C   C132      1.0  0.09691999999999987  0.9177399999999997  0.26625  1.0000
  C   C133      1.0  0.20228999999999997  0.8813899999999998  0.2374  1.0000
  C   C134      1.0  0.88149  0.25971  0.06432  1.0000
  C   C135      1.0  0.17898  0.94505  0.27239  1.0000
  C   C136      1.0  0.35652  0.80493  0.20874  1.0000
  C   C137      1.0  0.55255  0.93267  0.59448  1.0000
  C   C138      1.0  0.7650700000000001  0.15959000000000012  0.5830800000000003  1.0000
  C   C139      1.0  0.4423100000000001  0.81481  0.23880000000000004  1.0000
  C   C140      1.0  0.81288  0.25268  0.63225  1.0000
  C   C141      1.0  0.6697399999999999  0.10851  0.55616  1.0000
  C   C142      1.0  0.57575  0.88978  0.64697  1.0000
  C   C143      1.0  0.46514  0.7770999999999998  0.17431  1.0000
  C   C144      1.0  0.54921  0.78321  0.20505  1.0000
  C   C145      1.0  0.60674  0.82527  0.29508  1.0000
  C   C146      1.0  0.58086  0.86319  0.35449  1.0000
  C   C147      1.0  0.40304999999999985  0.7338499999999998  0.08236  1.0000
  C   C148      1.0  0.29773999999999995  0.76273  0.11882  1.0000
  C   C149      1.0  0.6188700000000001  0.93548  0.74008  1.0000
  C   C150      1.0  0.32097  0.72769  0.0551  1.0000
  C   C151      1.0  0.1477800000000001  0.7912500000000002  0.5963700000000002  1.0000
  C   C152      1.0  0.95789  0.40533  0.33788  1.0000
  C   C153      1.0  0.18213000000000004  0.41711000000000004  0.5765200000000001  1.0000
  C   C154      1.0  0.2034299999999999  0.7611199999999998  0.57614  1.0000
  C   C155      1.0  0.1807199999999999  0.3678599999999999  0.6203  1.0000
  C   C156      1.0  0.11364  0.4438899999999999  0.55238  1.0000
  C   C157      1.0  0.9286400000000004  0.35291  0.24242  1.0000
  C   C158      1.0  0.29080999999999996  0.8256  0.60283  1.0000
  C   C159      1.0  0.3441600000000001  0.79494  0.5782  1.0000
  C   C160      1.0  0.31161999999999995  0.70495  0.53037  1.0000
  C   C161      1.0  0.22629999999999997  0.64553  0.50898  1.0000
  C   C162      1.0  0.32081999999999994  0.9175699999999999  0.65144  1.0000
  C   C163      1.0  0.17907999999999993  0.88118  0.644  1.0000
  C   C164      1.0  0.87878  0.2598  0.19484  1.0000
  C   C165      1.0  0.2660799999999999  0.94489  0.67257  1.0000
  C   C166      1.0  0.55148  0.40386  0.1949  1.0000
  C   C167      1.0  0.61995  0.66201  0.06739  1.0000
  C   C168      1.0  0.60542  0.42334999999999995  0.84035  1.0000
  C   C169      1.0  0.62744  0.4241099999999999  0.1851  1.0000
  C   C170      1.0  0.56017  0.37938  0.74724  1.0000
  C   C171      1.0  0.5611199999999998  0.4475900000000001  0.8913000000000002  1.0000
  C   C172      1.0  0.68606  0.7574399999999998  0.11032  1.0000
  C   C173      1.0  0.68806  0.39734999999999987  0.22279  1.0000
  C   C174      1.0  0.766  0.4219099999999999  0.21666  1.0000
  C   C175      1.0  0.7813599999999999  0.4698399999999999  0.17462  1.0000
  C   C176      1.0  0.7175299999999999  0.49137  0.13676  1.0000
  C   C177      1.0  0.66926  0.3486499999999999  0.26599  1.0000
  C   C178      1.0  0.53494  0.35608999999999996  0.237  1.0000
  C   C179      1.0  0.6835799999999999  0.8049399999999998  0.06474  1.0000
  C   C180      1.0  0.59331  0.32749  0.27207000000000003  1.0000
  C   C181      1.0  0.44872999999999985  0.19929  0.39881  1.0000
  C   C182      1.0  0.35675000000000007  0.10655000000000003  0.21351000000000006  1.0000
  C   C183      1.0  0.24950999999999998  0.19935999999999993  0.80044  1.0000
  C   C184      1.0  0.24995999999999988  0.10683999999999999  0.89317  1.0000
  C   C185      1.0  0.05011999999999998  0.6011  0.80067  1.0000
  C   C186      1.0  0.14305999999999994  0.7863499999999998  0.89347  1.0000
  C   C187      1.0  0.55116  0.80067  0.60111  1.0000
  C   C188      1.0  0.64319  0.89345  0.78642  1.0000
  C   C189      1.0  0.7505199999999996  0.8005999999999998  0.19951  1.0000
  C   C190      1.0  0.75019  0.89332  0.10698  1.0000
  C   C191      1.0  0.9498799999999998  0.39887  0.19926  1.0000
  C   C192      1.0  0.8568599999999998  0.21361  0.10644  1.0000
  C   C193      1.0  0.75005  0.55683  0.44342  1.0000
  C   C194      1.0  0.75014  0.64931  0.35083  1.0000
  C   C195      1.0  0.19312999999999989  0.8862699999999998  0.44299  1.0000
  C   C196      1.0  0.10061000000000003  0.70115  0.35043  1.0000
  C   C197      1.0  0.30687999999999993  0.55679  0.11368  1.0000
  C   C198      1.0  0.39953999999999995  0.64939  0.29885  1.0000
  C   C199      1.0  0.24994000000000002  0.44319000000000003  0.5566400000000001  1.0000
  C   C200      1.0  0.24992  0.35066  0.64922  1.0000
  C   C201      1.0  0.80683  0.11371000000000002  0.55701  1.0000
  C   C202      1.0  0.89933  0.29887  0.64955  1.0000
  C   C203      1.0  0.6931299999999999  0.4432199999999999  0.88635  1.0000
  C   C204      1.0  0.60051  0.35059  0.70116  1.0000
  N   N1        1.0  0.6734099999999998  0.5307099999999998  0.67129  1.0000
  N   N2        1.0  0.14298  0.14087000000000002  0.46956  1.0000
  N   N3        1.0  0.0022000000000000045  0.32854  0.85908  1.0000
  N   N4        1.0  0.49760999999999994  0.14066  0.67132  1.0000
  N   N5        1.0  0.8263999999999998  0.32868999999999987  0.46909  1.0000
  N   N6        1.0  0.35713999999999996  0.53056  0.85934  1.0000
  N   N7        1.0  0.32664  0.4693399999999999  0.32869  1.0000
  N   N8        1.0  0.8570900000000001  0.8591500000000001  0.53045  1.0000
  N   N9        1.0  0.99784  0.67148  0.14093  1.0000
  N   N10       1.0  0.5023699999999999  0.8593399999999998  0.32866  1.0000
  N   N11       1.0  0.1736  0.67128  0.5309  1.0000
  N   N12       1.0  0.6429  0.46941  0.14059  1.0000
  O   O1        1.0  0.63384  0.54283  0.51148  1.0000
  O   O2        1.0  0.5186800000000003  0.38029  0.48589  1.0000
  O   O3        1.0  0.53734  0.54124  0.39531  1.0000
  O   O4        1.0  0.41668  0.36987  0.36656  1.0000
  O   O5        1.0  0.09098999999999999  0.9683999999999999  0.45717  1.0000
  O   O6        1.0  0.13852  0.1055  0.61959  1.0000
  O   O7        1.0  0.99594  0.8537299999999999  0.4585300000000001  1.0000
  O   O8        1.0  0.04664999999999999  0.99665  0.62976  1.0000
  O   O9        1.0  0.12253000000000001  0.48860999999999993  0.03139  1.0000
  O   O10       1.0  0.03306999999999998  0.5139899999999997  0.89455  1.0000
  O   O11       1.0  0.14220999999999995  0.6047899999999999  0.14605  1.0000
  O   O12       1.0  0.04969  0.63301  0.00316  1.0000
  O   O13       1.0  0.3778  0.9683799999999999  0.51254  1.0000
  O   O14       1.0  0.4653  0.10508999999999996  0.48596  1.0000
  O   O15       1.0  0.3587499999999999  0.8541199999999998  0.39652  1.0000
  O   O16       1.0  0.44967  0.99704  0.36721  1.0000
  O   O17       1.0  0.8652499999999999  0.48758  0.45618  1.0000
  O   O18       1.0  0.9796  0.51398  0.61929  1.0000
  O   O19       1.0  0.96218  0.6033099999999998  0.45759  1.0000
  O   O20       1.0  0.08245999999999991  0.6329399999999997  0.63002  1.0000
  O   O21       1.0  0.40881  0.54321  0.03136  1.0000
  O   O22       1.0  0.3601099999999999  0.38055  0.89446  1.0000
  O   O23       1.0  0.5049399999999999  0.54276  0.14612  1.0000
  O   O24       1.0  0.45255  0.37036999999999987  0.00299  1.0000
  O   O25       1.0  0.36605999999999994  0.4571299999999999  0.4885  1.0000
  O   O26       1.0  0.48128  0.61971  0.51408  1.0000
  O   O27       1.0  0.46260999999999997  0.45877  0.6046900000000001  1.0000
  O   O28       1.0  0.58331  0.6301399999999998  0.6334  1.0000
  O   O29       1.0  0.90886  0.03153000000000002  0.54262  1.0000
  O   O30       1.0  0.86146  0.89433  0.38037  1.0000
  O   O31       1.0  0.004129999999999998  0.14636  0.54163  1.0000
  O   O32       1.0  0.9532399999999999  0.003429999999999998  0.3704  1.0000
  O   O33       1.0  0.8775  0.5114599999999998  0.96865  1.0000
  O   O34       1.0  0.96695  0.48602  0.10542  1.0000
  O   O35       1.0  0.85788  0.3953900000000001  0.8539200000000001  1.0000
  O   O36       1.0  0.9503  0.3669899999999999  0.9968  1.0000
  O   O37       1.0  0.62224  0.03150000000000001  0.48755  1.0000
  O   O38       1.0  0.53458  0.8948  0.51395  1.0000
  O   O39       1.0  0.6412200000000001  0.14587000000000006  0.6034300000000002  1.0000
  O   O40       1.0  0.55035  0.0029799999999999814  0.63271  1.0000
  O   O41       1.0  0.13474999999999995  0.51252  0.54413  1.0000
  O   O42       1.0  0.020449999999999954  0.48591999999999996  0.3807  1.0000
  O   O43       1.0  0.03775000000000012  0.39653000000000005  0.5423200000000002  1.0000
  O   O44       1.0  0.91744  0.36703  0.3699  1.0000
  O   O45       1.0  0.5906300000000001  0.4561000000000001  0.96832  1.0000
  O   O46       1.0  0.63987  0.61936  0.10520000000000003  1.0000
  O   O47       1.0  0.49518  0.45743999999999996  0.85387  1.0000
  O   O48       1.0  0.54727  0.62983  0.99708  1.0000
