data_image0
_chemical_formula_structural       Ag8H160C144N96
_chemical_formula_sum              "Ag8 H160 C144 N96"
_cell_length_a       11.75745
_cell_length_b       18.95682
_cell_length_c       22.02223
_cell_angle_alpha    89.99637
_cell_angle_beta     89.99091
_cell_angle_gamma    90.0

_space_group_name_H-M_alt    "P 1"
_space_group_IT_number       1

loop_
  _space_group_symop_operation_xyz
  'x, y, z'

loop_
  _atom_site_type_symbol
  _atom_site_label
  _atom_site_symmetry_multiplicity
  _atom_site_fract_x
  _atom_site_fract_y
  _atom_site_fract_z
  _atom_site_occupancy
  Ag  Ag1       1.0  0.282  0.20636999999999997  0.6575  1.0000
  Ag  Ag2       1.0  0.7815800000000002  0.29379  0.34264  1.0000
  Ag  Ag3       1.0  0.7815800000000002  0.70619  0.8425899999999998  1.0000
  Ag  Ag4       1.0  0.282  0.79364  0.15755  1.0000
  Ag  Ag5       1.0  0.21843  0.29380999999999996  0.15741  1.0000
  Ag  Ag6       1.0  0.7180100000000001  0.20635999999999996  0.84245  1.0000
  Ag  Ag7       1.0  0.7180100000000001  0.7936199999999999  0.3425  1.0000
  Ag  Ag8       1.0  0.21842000000000006  0.70621  0.65736  1.0000
  H   H1        1.0  0.54075  0.26169  0.68739  1.0000
  H   H2        1.0  0.43123000000000006  0.47179999999999994  0.6506599999999999  1.0000
  H   H3        1.0  0.8304700000000002  0.21454  0.68742  1.0000
  H   H4        1.0  0.09804000000000002  0.35653  0.6448  1.0000
  H   H5        1.0  0.9758800000000001  0.5891099999999999  0.64477  1.0000
  H   H6        1.0  0.6819300000000001  0.57242  0.7569299999999998  1.0000
  H   H7        1.0  0.64782  0.36851999999999996  0.45465  1.0000
  H   H8        1.0  0.9246700000000002  0.50996  0.48041  1.0000
  H   H9        1.0  0.7257700000000002  0.32732  0.71618  1.0000
  H   H10       1.0  0.7081100000000001  0.28938  0.64281  1.0000
  H   H11       1.0  0.88169  0.42257999999999996  0.73046  1.0000
  H   H12       1.0  0.9674900000000001  0.44791  0.66727  1.0000
  H   H13       1.0  0.61426  0.50626  0.6724099999999998  1.0000
  H   H14       1.0  0.67342  0.45432999999999996  0.7323299999999999  1.0000
  H   H15       1.0  0.62463  0.35853999999999997  0.55776  1.0000
  H   H16       1.0  0.58513  0.44873  0.5674599999999999  1.0000
  H   H17       1.0  0.93798  0.38968  0.5644  1.0000
  H   H18       1.0  0.8302  0.32453999999999994  0.55547  1.0000
  H   H19       1.0  0.7344400000000001  0.54111  0.58236  1.0000
  H   H20       1.0  0.88137  0.5184  0.58063  1.0000
  H   H21       1.0  0.04111  0.23830999999999997  0.31245  1.0000
  H   H22       1.0  0.93147  0.02825  0.34918  1.0000
  H   H23       1.0  0.33027  0.28537  0.31236  1.0000
  H   H24       1.0  0.59801  0.14372  0.35532  1.0000
  H   H25       1.0  0.47585  0.91054  0.35528  1.0000
  H   H26       1.0  0.18238000000000001  0.9276399999999999  0.24277  1.0000
  H   H27       1.0  0.14768  0.13209  0.5452  1.0000
  H   H28       1.0  0.4241900000000001  0.99031  0.5196699999999999  1.0000
  H   H29       1.0  0.22623000000000004  0.17262  0.28358999999999995  1.0000
  H   H30       1.0  0.20827000000000007  0.21055  0.35694999999999993  1.0000
  H   H31       1.0  0.3821  0.0772  0.26953  1.0000
  H   H32       1.0  0.4676500000000001  0.05198  0.33284  1.0000
  H   H33       1.0  0.11444  0.9937199999999999  0.32739  1.0000
  H   H34       1.0  0.17395  0.04549999999999999  0.2674599999999999  1.0000
  H   H35       1.0  0.12452  0.14162  0.44188  1.0000
  H   H36       1.0  0.08509000000000003  0.05141  0.43228  1.0000
  H   H37       1.0  0.43791  0.11023  0.43549999999999994  1.0000
  H   H38       1.0  0.33028  0.1755  0.44440999999999997  1.0000
  H   H39       1.0  0.23422  0.959  0.41770999999999997  1.0000
  H   H40       1.0  0.38122  0.98156  0.41951999999999995  1.0000
  H   H41       1.0  0.041120000000000004  0.76169  0.8124499999999999  1.0000
  H   H42       1.0  0.93147  0.9717399999999999  0.84919  1.0000
  H   H43       1.0  0.33027  0.71463  0.81236  1.0000
  H   H44       1.0  0.59802  0.85626  0.85532  1.0000
  H   H45       1.0  0.47585  0.08945  0.85528  1.0000
  H   H46       1.0  0.18238000000000001  0.07236  0.74277  1.0000
  H   H47       1.0  0.1477  0.86788  0.0452  1.0000
  H   H48       1.0  0.42418000000000006  0.00968  0.01966  1.0000
  H   H49       1.0  0.22623000000000004  0.8273799999999999  0.78359  1.0000
  H   H50       1.0  0.20828000000000002  0.78944  0.85696  1.0000
  H   H51       1.0  0.3820900000000001  0.9228  0.7695199999999999  1.0000
  H   H52       1.0  0.4676500000000001  0.94802  0.8328299999999998  1.0000
  H   H53       1.0  0.11444  0.00627  0.82739  1.0000
  H   H54       1.0  0.17395  0.9545  0.7674599999999999  1.0000
  H   H55       1.0  0.12452  0.85836  0.94188  1.0000
  H   H56       1.0  0.08510000000000002  0.9485799999999999  0.93228  1.0000
  H   H57       1.0  0.4379200000000001  0.8897499999999999  0.9354999999999998  1.0000
  H   H58       1.0  0.33029  0.82448  0.94441  1.0000
  H   H59       1.0  0.23423  0.04099  0.9177099999999998  1.0000
  H   H60       1.0  0.38123  0.01843  0.9195099999999999  1.0000
  H   H61       1.0  0.54077  0.7383  0.18738999999999997  1.0000
  H   H62       1.0  0.4312400000000001  0.5282  0.15065999999999996  1.0000
  H   H63       1.0  0.8304700000000002  0.78545  0.18741999999999998  1.0000
  H   H64       1.0  0.09806000000000002  0.6434799999999999  0.1448  1.0000
  H   H65       1.0  0.9758800000000001  0.41089  0.14476999999999998  1.0000
  H   H66       1.0  0.6819300000000001  0.42757  0.25693  1.0000
  H   H67       1.0  0.64784  0.6315  0.9546499999999999  1.0000
  H   H68       1.0  0.92468  0.49005  0.98042  1.0000
  H   H69       1.0  0.7257700000000002  0.6726699999999999  0.21618  1.0000
  H   H70       1.0  0.7081100000000001  0.71062  0.14281  1.0000
  H   H71       1.0  0.88169  0.57741  0.23045999999999997  1.0000
  H   H72       1.0  0.9675000000000001  0.55209  0.16728  1.0000
  H   H73       1.0  0.61426  0.49374  0.17242  1.0000
  H   H74       1.0  0.67342  0.54567  0.23232999999999995  1.0000
  H   H75       1.0  0.62463  0.64147  0.05775999999999999  1.0000
  H   H76       1.0  0.5851400000000001  0.5512799999999999  0.06746  1.0000
  H   H77       1.0  0.93799  0.61033  0.06439999999999999  1.0000
  H   H78       1.0  0.83021  0.67547  0.05547  1.0000
  H   H79       1.0  0.7344500000000002  0.4589  0.08236  1.0000
  H   H80       1.0  0.88138  0.48161  0.08064  1.0000
  H   H81       1.0  0.9588900000000001  0.23829999999999998  0.18754999999999997  1.0000
  H   H82       1.0  0.06853  0.028259999999999997  0.15081999999999998  1.0000
  H   H83       1.0  0.66974  0.28537  0.18764  1.0000
  H   H84       1.0  0.40198000000000006  0.14374  0.14468  1.0000
  H   H85       1.0  0.52416  0.9105499999999999  0.14472  1.0000
  H   H86       1.0  0.81763  0.9276399999999999  0.25723  1.0000
  H   H87       1.0  0.8523100000000001  0.13212  0.9548  1.0000
  H   H88       1.0  0.57583  0.9903199999999999  0.98034  1.0000
  H   H89       1.0  0.7737800000000002  0.17261  0.21641  1.0000
  H   H90       1.0  0.7917300000000002  0.21055  0.14305  1.0000
  H   H91       1.0  0.61792  0.0772  0.23047999999999996  1.0000
  H   H92       1.0  0.53235  0.05198  0.16716999999999999  1.0000
  H   H93       1.0  0.8855700000000001  0.9937299999999999  0.17260999999999999  1.0000
  H   H94       1.0  0.8260500000000002  0.04549999999999999  0.23254  1.0000
  H   H95       1.0  0.87549  0.14163999999999996  0.05812  1.0000
  H   H96       1.0  0.9149100000000002  0.05142  0.06771999999999999  1.0000
  H   H97       1.0  0.5620900000000001  0.11024  0.0645  1.0000
  H   H98       1.0  0.66971  0.17552  0.05559  1.0000
  H   H99       1.0  0.7657800000000001  0.9590099999999999  0.08229  1.0000
  H   H100      1.0  0.61878  0.98157  0.08049  1.0000
  H   H101      1.0  0.45924  0.26169  0.81261  1.0000
  H   H102      1.0  0.56877  0.47179999999999994  0.84934  1.0000
  H   H103      1.0  0.16954  0.21455000000000002  0.81258  1.0000
  H   H104      1.0  0.9019500000000003  0.35651999999999995  0.8552  1.0000
  H   H105      1.0  0.024130000000000006  0.5891099999999999  0.85523  1.0000
  H   H106      1.0  0.31808000000000003  0.57242  0.7430699999999999  1.0000
  H   H107      1.0  0.35217  0.36849999999999994  0.04535  1.0000
  H   H108      1.0  0.07533  0.50995  0.019579999999999997  1.0000
  H   H109      1.0  0.27423  0.32733  0.78382  1.0000
  H   H110      1.0  0.29189  0.28938  0.8571899999999999  1.0000
  H   H111      1.0  0.11832000000000001  0.42258999999999997  0.76954  1.0000
  H   H112      1.0  0.03251  0.44791  0.83272  1.0000
  H   H113      1.0  0.38575000000000004  0.50625  0.82758  1.0000
  H   H114      1.0  0.32659  0.45432999999999996  0.7676699999999999  1.0000
  H   H115      1.0  0.37538  0.35853  0.94224  1.0000
  H   H116      1.0  0.41486  0.44872  0.9325399999999999  1.0000
  H   H117      1.0  0.062020000000000006  0.38966  0.9356  1.0000
  H   H118      1.0  0.16980000000000003  0.32452  0.94453  1.0000
  H   H119      1.0  0.26556  0.5411  0.91764  1.0000
  H   H120      1.0  0.11863  0.51838  0.9193599999999998  1.0000
  H   H121      1.0  0.45925  0.73831  0.31261  1.0000
  H   H122      1.0  0.56878  0.5282  0.34934  1.0000
  H   H123      1.0  0.16953  0.78545  0.31257999999999997  1.0000
  H   H124      1.0  0.90196  0.6434699999999999  0.3552  1.0000
  H   H125      1.0  0.024130000000000006  0.41088  0.35524  1.0000
  H   H126      1.0  0.31808000000000003  0.42757999999999996  0.24306999999999998  1.0000
  H   H127      1.0  0.35219  0.63147  0.54536  1.0000
  H   H128      1.0  0.07533  0.4900399999999999  0.51959  1.0000
  H   H129      1.0  0.27424000000000004  0.6726699999999999  0.28382  1.0000
  H   H130      1.0  0.2919  0.71062  0.35719  1.0000
  H   H131      1.0  0.11832000000000001  0.57741  0.26954  1.0000
  H   H132      1.0  0.03251  0.55209  0.33273  1.0000
  H   H133      1.0  0.38575000000000004  0.49374  0.32759  1.0000
  H   H134      1.0  0.32659  0.54567  0.26767  1.0000
  H   H135      1.0  0.37538  0.6414599999999999  0.44224  1.0000
  H   H136      1.0  0.41487  0.55127  0.43254  1.0000
  H   H137      1.0  0.06203000000000001  0.6103199999999999  0.43559999999999993  1.0000
  H   H138      1.0  0.16981  0.67546  0.4445299999999999  1.0000
  H   H139      1.0  0.26557  0.45888999999999996  0.41764  1.0000
  H   H140      1.0  0.11863  0.4816  0.41937  1.0000
  H   H141      1.0  0.9589000000000002  0.76169  0.68755  1.0000
  H   H142      1.0  0.06853  0.9717499999999999  0.65082  1.0000
  H   H143      1.0  0.66974  0.71463  0.68764  1.0000
  H   H144      1.0  0.40199000000000007  0.85627  0.6446799999999999  1.0000
  H   H145      1.0  0.52416  0.08946  0.64472  1.0000
  H   H146      1.0  0.81762  0.07235  0.75723  1.0000
  H   H147      1.0  0.8523200000000002  0.8678999999999999  0.4547999999999999  1.0000
  H   H148      1.0  0.57582  0.00969  0.48033  1.0000
  H   H149      1.0  0.7737800000000002  0.8273799999999999  0.71641  1.0000
  H   H150      1.0  0.7917300000000002  0.78945  0.64305  1.0000
  H   H151      1.0  0.61791  0.9228  0.73047  1.0000
  H   H152      1.0  0.53236  0.94802  0.66716  1.0000
  H   H153      1.0  0.8855700000000001  0.00627  0.67261  1.0000
  H   H154      1.0  0.8260500000000002  0.9545  0.73254  1.0000
  H   H155      1.0  0.87549  0.85837  0.55812  1.0000
  H   H156      1.0  0.9149200000000002  0.94859  0.56772  1.0000
  H   H157      1.0  0.5621  0.88977  0.5645  1.0000
  H   H158      1.0  0.6697200000000001  0.82449  0.5555899999999999  1.0000
  H   H159      1.0  0.7657900000000002  0.041  0.58229  1.0000
  H   H160      1.0  0.61879  0.018439999999999998  0.58048  1.0000
  C   C1        1.0  0.48891000000000007  0.30845  0.67889  1.0000
  C   C2        1.0  0.43089  0.41596  0.66102  1.0000
  C   C3        1.0  0.91245  0.23515999999999998  0.67388  1.0000
  C   C4        1.0  0.049890000000000004  0.3088699999999999  0.6534999999999999  1.0000
  C   C5        1.0  0.90788  0.60178  0.67708  1.0000
  C   C6        1.0  0.7573  0.59229  0.73467  1.0000
  C   C7        1.0  0.73079  0.39303  0.45278999999999997  1.0000
  C   C8        1.0  0.8748000000000002  0.46468  0.46626999999999996  1.0000
  C   C9        1.0  0.64481  0.3963  0.64959  1.0000
  C   C10       1.0  0.73006  0.33808  0.6671499999999999  1.0000
  C   C11       1.0  0.8503000000000002  0.36175  0.64823  1.0000
  C   C12       1.0  0.88199  0.4308199999999999  0.68107  1.0000
  C   C13       1.0  0.7950200000000001  0.48812  0.6636  1.0000
  C   C14       1.0  0.6757800000000002  0.46451  0.68325  1.0000
  C   C15       1.0  0.64776  0.40825  0.58033  1.0000
  C   C16       1.0  0.76694  0.43143999999999993  0.56165  1.0000
  C   C17       1.0  0.8521  0.37383  0.57914  1.0000
  C   C18       1.0  0.7965700000000002  0.50008  0.59441  1.0000
  C   C19       1.0  0.9891900000000002  0.19163999999999998  0.32110999999999995  1.0000
  C   C20       1.0  0.93114  0.08413  0.33901  1.0000
  C   C21       1.0  0.41226000000000007  0.26486  0.32601  1.0000
  C   C22       1.0  0.54983  0.19134  0.34657999999999994  1.0000
  C   C23       1.0  0.40787000000000007  0.898  0.32293  1.0000
  C   C24       1.0  0.2575700000000001  0.90773  0.26519  1.0000
  C   C25       1.0  0.23077  0.10771  0.5469199999999999  1.0000
  C   C26       1.0  0.3745  0.03574  0.53367  1.0000
  C   C27       1.0  0.14503  0.10368  0.35014999999999996  1.0000
  C   C28       1.0  0.23030000000000006  0.16186  0.33262  1.0000
  C   C29       1.0  0.35045  0.13822  0.35164  1.0000
  C   C30       1.0  0.38223  0.06909  0.31893  1.0000
  C   C31       1.0  0.2952  0.0118  0.33638  1.0000
  C   C32       1.0  0.17605  0.03543  0.31656  1.0000
  C   C33       1.0  0.14778  0.09185  0.41943  1.0000
  C   C34       1.0  0.26686  0.06868  0.43822  1.0000
  C   C35       1.0  0.35213  0.12621  0.42072  1.0000
  C   C36       1.0  0.29651  0.9999299999999999  0.4056  1.0000
  C   C37       1.0  0.9891900000000002  0.80836  0.8211099999999998  1.0000
  C   C38       1.0  0.93114  0.91586  0.8390099999999998  1.0000
  C   C39       1.0  0.41225  0.73513  0.82601  1.0000
  C   C40       1.0  0.54983  0.80864  0.84658  1.0000
  C   C41       1.0  0.40787000000000007  0.10198999999999998  0.8229199999999998  1.0000
  C   C42       1.0  0.25756  0.09227  0.76518  1.0000
  C   C43       1.0  0.23078000000000004  0.89226  0.04692  1.0000
  C   C44       1.0  0.3745  0.96425  0.03367  1.0000
  C   C45       1.0  0.14504  0.8963199999999999  0.8501499999999999  1.0000
  C   C46       1.0  0.23030000000000006  0.83813  0.83262  1.0000
  C   C47       1.0  0.35045  0.86178  0.8516399999999998  1.0000
  C   C48       1.0  0.38223  0.93091  0.81892  1.0000
  C   C49       1.0  0.2952  0.9881999999999999  0.8363699999999998  1.0000
  C   C50       1.0  0.17605  0.9645699999999999  0.81656  1.0000
  C   C51       1.0  0.14778  0.90813  0.91943  1.0000
  C   C52       1.0  0.26687000000000005  0.9313  0.93822  1.0000
  C   C53       1.0  0.35214  0.87378  0.92072  1.0000
  C   C54       1.0  0.29652000000000006  6.000000000000002e-05  0.9055999999999997  1.0000
  C   C55       1.0  0.48892000000000013  0.69155  0.17889  1.0000
  C   C56       1.0  0.43089  0.58404  0.16102  1.0000
  C   C57       1.0  0.91245  0.76484  0.17387999999999998  1.0000
  C   C58       1.0  0.049890000000000004  0.69113  0.1535  1.0000
  C   C59       1.0  0.90788  0.39822  0.17709  1.0000
  C   C60       1.0  0.7573  0.40769999999999995  0.23467999999999997  1.0000
  C   C61       1.0  0.7308  0.60698  0.95279  1.0000
  C   C62       1.0  0.87481  0.53533  0.9662699999999999  1.0000
  C   C63       1.0  0.6448200000000001  0.6037  0.14959  1.0000
  C   C64       1.0  0.73007  0.66192  0.16715  1.0000
  C   C65       1.0  0.8503100000000002  0.63825  0.14823  1.0000
  C   C66       1.0  0.88199  0.56918  0.18108  1.0000
  C   C67       1.0  0.7950200000000001  0.5118799999999999  0.1636  1.0000
  C   C68       1.0  0.6757800000000002  0.53549  0.18325999999999995  1.0000
  C   C69       1.0  0.64776  0.59176  0.08033  1.0000
  C   C70       1.0  0.76695  0.56857  0.061649999999999996  1.0000
  C   C71       1.0  0.85211  0.62618  0.07915  1.0000
  C   C72       1.0  0.79658  0.49993  0.09442  1.0000
  C   C73       1.0  0.010810000000000004  0.19162999999999997  0.17889  1.0000
  C   C74       1.0  0.06887  0.08413999999999999  0.16099  1.0000
  C   C75       1.0  0.5877500000000001  0.26486  0.17399  1.0000
  C   C76       1.0  0.4501700000000001  0.19135  0.15343  1.0000
  C   C77       1.0  0.59214  0.898  0.17708  1.0000
  C   C78       1.0  0.7424500000000003  0.90773  0.23481999999999995  1.0000
  C   C79       1.0  0.7692300000000001  0.10772999999999999  0.9530799999999999  1.0000
  C   C80       1.0  0.6255  0.03575  0.9663399999999999  1.0000
  C   C81       1.0  0.8549700000000001  0.10368  0.14985  1.0000
  C   C82       1.0  0.7697  0.16186  0.16738  1.0000
  C   C83       1.0  0.64955  0.13822  0.14836  1.0000
  C   C84       1.0  0.6177700000000002  0.06909  0.18108  1.0000
  C   C85       1.0  0.7048100000000002  0.0118  0.16362999999999997  1.0000
  C   C86       1.0  0.8239600000000001  0.03543  0.18344  1.0000
  C   C87       1.0  0.8522200000000001  0.09186  0.08056999999999999  1.0000
  C   C88       1.0  0.73314  0.06869  0.06178  1.0000
  C   C89       1.0  0.64787  0.12622  0.07928  1.0000
  C   C90       1.0  0.7034900000000001  0.99994  0.09439999999999997  1.0000
  C   C91       1.0  0.51109  0.30845  0.8211099999999998  1.0000
  C   C92       1.0  0.5691100000000001  0.41596  0.8389799999999997  1.0000
  C   C93       1.0  0.08756  0.23515999999999998  0.82612  1.0000
  C   C94       1.0  0.9501100000000001  0.3088699999999999  0.8465  1.0000
  C   C95       1.0  0.09212  0.60178  0.8229099999999999  1.0000
  C   C96       1.0  0.24271000000000006  0.5922999999999999  0.76532  1.0000
  C   C97       1.0  0.2692  0.39301  0.04721  1.0000
  C   C98       1.0  0.1252  0.46467  0.03373  1.0000
  C   C99       1.0  0.3551900000000001  0.3963  0.85041  1.0000
  C   C100      1.0  0.26994  0.33808  0.83285  1.0000
  C   C101      1.0  0.1497  0.36175  0.85177  1.0000
  C   C102      1.0  0.11801000000000003  0.4308199999999999  0.81892  1.0000
  C   C103      1.0  0.20499  0.48812  0.8363999999999999  1.0000
  C   C104      1.0  0.32423  0.46451  0.8167399999999998  1.0000
  C   C105      1.0  0.35224000000000005  0.40824  0.9196699999999999  1.0000
  C   C106      1.0  0.23305  0.4314299999999999  0.93835  1.0000
  C   C107      1.0  0.14789  0.37381999999999993  0.92085  1.0000
  C   C108      1.0  0.20343000000000003  0.50007  0.9055899999999999  1.0000
  C   C109      1.0  0.5111000000000001  0.69155  0.32111999999999996  1.0000
  C   C110      1.0  0.56912  0.58404  0.33898  1.0000
  C   C111      1.0  0.08756  0.76484  0.32612  1.0000
  C   C112      1.0  0.9501200000000002  0.69112  0.3465  1.0000
  C   C113      1.0  0.09213000000000003  0.39822  0.32292  1.0000
  C   C114      1.0  0.24271000000000006  0.40769999999999995  0.26533  1.0000
  C   C115      1.0  0.26922  0.60696  0.54721  1.0000
  C   C116      1.0  0.12521  0.53532  0.53374  1.0000
  C   C117      1.0  0.3552  0.6037  0.35041  1.0000
  C   C118      1.0  0.26995  0.66192  0.3328499999999999  1.0000
  C   C119      1.0  0.14971000000000004  0.63825  0.35177  1.0000
  C   C120      1.0  0.11802000000000003  0.56918  0.31893  1.0000
  C   C121      1.0  0.20499  0.5118799999999999  0.3364  1.0000
  C   C122      1.0  0.32423  0.53549  0.31675  1.0000
  C   C123      1.0  0.3522500000000001  0.59175  0.41967  1.0000
  C   C124      1.0  0.23306000000000004  0.56856  0.43834999999999996  1.0000
  C   C125      1.0  0.1479  0.6261699999999999  0.42085999999999996  1.0000
  C   C126      1.0  0.20344  0.4999199999999999  0.40558999999999995  1.0000
  C   C127      1.0  0.010820000000000003  0.80836  0.67889  1.0000
  C   C128      1.0  0.06887  0.91586  0.661  1.0000
  C   C129      1.0  0.5877500000000001  0.73513  0.67399  1.0000
  C   C130      1.0  0.45018  0.80865  0.65343  1.0000
  C   C131      1.0  0.59214  0.10199999999999998  0.67707  1.0000
  C   C132      1.0  0.7424400000000002  0.09225999999999998  0.73482  1.0000
  C   C133      1.0  0.76924  0.89229  0.45308  1.0000
  C   C134      1.0  0.62551  0.96426  0.4663299999999999  1.0000
  C   C135      1.0  0.8549800000000002  0.8963199999999999  0.64985  1.0000
  C   C136      1.0  0.76971  0.83813  0.66738  1.0000
  C   C137      1.0  0.64956  0.86178  0.64836  1.0000
  C   C138      1.0  0.61778  0.93091  0.6810799999999999  1.0000
  C   C139      1.0  0.7048100000000002  0.9881999999999999  0.66362  1.0000
  C   C140      1.0  0.8239600000000001  0.9645699999999999  0.68344  1.0000
  C   C141      1.0  0.8522300000000002  0.9081499999999999  0.58057  1.0000
  C   C142      1.0  0.7331500000000001  0.93132  0.56178  1.0000
  C   C143      1.0  0.64788  0.87379  0.5792799999999999  1.0000
  C   C144      1.0  0.7035000000000001  6.999999999999998e-05  0.5944  1.0000
  N   N1        1.0  0.37608  0.30915  0.68071  1.0000
  N   N2        1.0  0.33862  0.37724  0.66964  1.0000
  N   N3        1.0  0.52811  0.37526  0.6668499999999999  1.0000
  N   N4        1.0  0.00687  0.19755  0.66995  1.0000
  N   N5        1.0  0.09365000000000002  0.24447  0.65703  1.0000
  N   N6        1.0  0.9341000000000003  0.30604  0.66413  1.0000
  N   N7        1.0  0.89515  0.6622699999999999  0.7059899999999999  1.0000
  N   N8        1.0  0.7999600000000002  0.65615  0.74274  1.0000
  N   N9        1.0  0.8222600000000001  0.5557  0.69358  1.0000
  N   N10       1.0  0.8046200000000001  0.38359  0.40702  1.0000
  N   N11       1.0  0.8943500000000001  0.42863999999999997  0.41499  1.0000
  N   N12       1.0  0.7698200000000002  0.44549  0.4931299999999999  1.0000
  N   N13       1.0  0.8763200000000002  0.19105  0.31969  1.0000
  N   N14       1.0  0.83889  0.12294999999999999  0.33072999999999997  1.0000
  N   N15       1.0  0.02837  0.12476999999999999  0.33293  1.0000
  N   N16       1.0  0.50647  0.30263  0.3302  1.0000
  N   N17       1.0  0.59337  0.25582  0.34323  1.0000
  N   N18       1.0  0.43414000000000014  0.19399999999999998  0.33572  1.0000
  N   N19       1.0  0.39495000000000013  0.83751  0.29404  1.0000
  N   N20       1.0  0.29996000000000006  0.84381  0.25718  1.0000
  N   N21       1.0  0.32249  0.9442299999999999  0.30635  1.0000
  N   N22       1.0  0.30468  0.11718  0.59266  1.0000
  N   N23       1.0  0.39423  0.07195999999999998  0.58482  1.0000
  N   N24       1.0  0.26951  0.05491  0.5068  1.0000
  N   N25       1.0  0.8763300000000002  0.80895  0.81968  1.0000
  N   N26       1.0  0.8389  0.8770399999999999  0.83073  1.0000
  N   N27       1.0  0.02838  0.8752299999999998  0.83293  1.0000
  N   N28       1.0  0.50647  0.69736  0.8302  1.0000
  N   N29       1.0  0.59337  0.74416  0.84323  1.0000
  N   N30       1.0  0.43415  0.806  0.83572  1.0000
  N   N31       1.0  0.39494000000000007  0.16249  0.7940299999999999  1.0000
  N   N32       1.0  0.29996000000000006  0.15618999999999997  0.75717  1.0000
  N   N33       1.0  0.32249  0.05577  0.8063499999999999  1.0000
  N   N34       1.0  0.30468  0.88281  0.09267  1.0000
  N   N35       1.0  0.3942200000000001  0.9280299999999999  0.08482  1.0000
  N   N36       1.0  0.26952  0.94507  0.00679  1.0000
  N   N37       1.0  0.3760900000000001  0.69085  0.18072  1.0000
  N   N38       1.0  0.33863000000000004  0.62276  0.16964  1.0000
  N   N39       1.0  0.52812  0.62474  0.16685  1.0000
  N   N40       1.0  0.006860000000000001  0.8024499999999999  0.16995  1.0000
  N   N41       1.0  0.09365000000000002  0.75553  0.15703  1.0000
  N   N42       1.0  0.93411  0.69396  0.16413  1.0000
  N   N43       1.0  0.89515  0.33772  0.206  1.0000
  N   N44       1.0  0.7999600000000002  0.34384  0.24275  1.0000
  N   N45       1.0  0.8222600000000001  0.44429  0.19359  1.0000
  N   N46       1.0  0.80463  0.61642  0.9070099999999999  1.0000
  N   N47       1.0  0.8943600000000002  0.57136  0.9149899999999999  1.0000
  N   N48       1.0  0.76984  0.55453  0.9931399999999999  1.0000
  N   N49       1.0  0.12368000000000003  0.19105  0.18032  1.0000
  N   N50       1.0  0.16111  0.12294999999999999  0.16927  1.0000
  N   N51       1.0  0.9716300000000002  0.12476999999999999  0.16707  1.0000
  N   N52       1.0  0.49354000000000003  0.30264  0.1698  1.0000
  N   N53       1.0  0.40664  0.25583999999999996  0.15677  1.0000
  N   N54       1.0  0.56586  0.19399999999999998  0.16428  1.0000
  N   N55       1.0  0.60506  0.83751  0.20597  1.0000
  N   N56       1.0  0.7000500000000002  0.8438  0.24283  1.0000
  N   N57       1.0  0.67752  0.9442299999999999  0.19364999999999996  1.0000
  N   N58       1.0  0.69533  0.11718999999999999  0.9073299999999997  1.0000
  N   N59       1.0  0.60578  0.07197  0.91518  1.0000
  N   N60       1.0  0.73048  0.05492999999999999  0.9932099999999999  1.0000
  N   N61       1.0  0.62392  0.30915  0.81928  1.0000
  N   N62       1.0  0.6613800000000001  0.37724  0.8303599999999998  1.0000
  N   N63       1.0  0.47189  0.37525  0.8331499999999998  1.0000
  N   N64       1.0  0.9931400000000002  0.19754  0.83005  1.0000
  N   N65       1.0  0.9063600000000002  0.24447  0.84297  1.0000
  N   N66       1.0  0.0659  0.30604  0.83587  1.0000
  N   N67       1.0  0.10486  0.66228  0.79401  1.0000
  N   N68       1.0  0.20005000000000006  0.65616  0.75725  1.0000
  N   N69       1.0  0.17775000000000002  0.55571  0.80641  1.0000
  N   N70       1.0  0.19538  0.3835799999999999  0.09299  1.0000
  N   N71       1.0  0.10565000000000001  0.42863999999999997  0.08502  1.0000
  N   N72       1.0  0.23017  0.44547  0.006859999999999999  1.0000
  N   N73       1.0  0.6239300000000001  0.69085  0.31928999999999996  1.0000
  N   N74       1.0  0.6613900000000001  0.62276  0.33035999999999993  1.0000
  N   N75       1.0  0.4719  0.62474  0.33315  1.0000
  N   N76       1.0  0.9931400000000002  0.8024499999999999  0.33005  1.0000
  N   N77       1.0  0.9063600000000002  0.75552  0.34296999999999994  1.0000
  N   N78       1.0  0.0659  0.69396  0.33587  1.0000
  N   N79       1.0  0.10486  0.33772  0.29400999999999994  1.0000
  N   N80       1.0  0.20005000000000006  0.34385  0.25726  1.0000
  N   N81       1.0  0.17775000000000002  0.44429  0.30642  1.0000
  N   N82       1.0  0.19538  0.61641  0.5929799999999998  1.0000
  N   N83       1.0  0.10565000000000001  0.57135  0.58501  1.0000
  N   N84       1.0  0.23019  0.55451  0.50687  1.0000
  N   N85       1.0  0.12369000000000002  0.80895  0.68031  1.0000
  N   N86       1.0  0.16111  0.8770399999999999  0.66927  1.0000
  N   N87       1.0  0.97164  0.8752299999999998  0.66707  1.0000
  N   N88       1.0  0.49353  0.69737  0.6698  1.0000
  N   N89       1.0  0.40664  0.74417  0.65677  1.0000
  N   N90       1.0  0.56586  0.806  0.6642799999999999  1.0000
  N   N91       1.0  0.60506  0.16248  0.70596  1.0000
  N   N92       1.0  0.7000400000000001  0.15618999999999997  0.74282  1.0000
  N   N93       1.0  0.67752  0.05577  0.69365  1.0000
  N   N94       1.0  0.69533  0.8828199999999999  0.40734  1.0000
  N   N95       1.0  0.60578  0.9280299999999999  0.4151799999999999  1.0000
  N   N96       1.0  0.7304900000000001  0.9450899999999999  0.49319999999999997  1.0000
