data_image0
_chemical_formula_structural       Cu48H96C192O216
_chemical_formula_sum              "Cu48 H96 C192 O216"
_cell_length_a       20.22515
_cell_length_b       20.22515
_cell_length_c       20.22515
_cell_angle_alpha    90.0
_cell_angle_beta     90.0
_cell_angle_gamma    90.0

_space_group_name_H-M_alt    "P 1"
_space_group_IT_number       1

loop_
  _space_group_symop_operation_xyz
  'x, y, z'

loop_
  _atom_site_type_symbol
  _atom_site_label
  _atom_site_symmetry_multiplicity
  _atom_site_fract_x
  _atom_site_fract_y
  _atom_site_fract_z
  _atom_site_occupancy
  Cu  Cu1       1.0  0.8460399999999999  0.60768  0.8608999999999999  1.0000
  Cu  Cu2       1.0  0.73219  0.50407  0.9489299999999999  1.0000
  Cu  Cu3       1.0  0.65396  0.39232  0.3609  1.0000
  Cu  Cu4       1.0  0.7678099999999999  0.49593  0.44893  1.0000
  Cu  Cu5       1.0  0.15396  0.10768  0.6391  1.0000
  Cu  Cu6       1.0  0.26781  0.00407  0.55107  1.0000
  Cu  Cu7       1.0  0.34604  0.89232  0.1391  1.0000
  Cu  Cu8       1.0  0.23218999999999998  0.9959299999999999  0.05106999999999999  1.0000
  Cu  Cu9       1.0  0.8608999999999999  0.8460399999999999  0.60768  1.0000
  Cu  Cu10      1.0  0.9489299999999999  0.73219  0.50407  1.0000
  Cu  Cu11      1.0  0.3609  0.65396  0.39232  1.0000
  Cu  Cu12      1.0  0.44893  0.7678099999999999  0.49593  1.0000
  Cu  Cu13      1.0  0.6391  0.15396  0.10768  1.0000
  Cu  Cu14      1.0  0.55107  0.26781  0.00407  1.0000
  Cu  Cu15      1.0  0.1391  0.34604  0.89232  1.0000
  Cu  Cu16      1.0  0.05106999999999999  0.23218999999999998  0.9959299999999999  1.0000
  Cu  Cu17      1.0  0.60768  0.8608999999999999  0.8460399999999999  1.0000
  Cu  Cu18      1.0  0.50407  0.9489299999999999  0.73219  1.0000
  Cu  Cu19      1.0  0.39232  0.3609  0.65396  1.0000
  Cu  Cu20      1.0  0.49593  0.44893  0.7678099999999999  1.0000
  Cu  Cu21      1.0  0.10768  0.6391  0.15396  1.0000
  Cu  Cu22      1.0  0.00407  0.55107  0.26781  1.0000
  Cu  Cu23      1.0  0.89232  0.1391  0.34604  1.0000
  Cu  Cu24      1.0  0.9959299999999999  0.05106999999999999  0.23218999999999998  1.0000
  Cu  Cu25      1.0  0.15396  0.39232  0.1391  1.0000
  Cu  Cu26      1.0  0.26781  0.49593  0.05106999999999999  1.0000
  Cu  Cu27      1.0  0.34604  0.60768  0.6391  1.0000
  Cu  Cu28      1.0  0.23218999999999998  0.50407  0.55107  1.0000
  Cu  Cu29      1.0  0.8460399999999999  0.89232  0.3609  1.0000
  Cu  Cu30      1.0  0.73219  0.9959299999999999  0.44893  1.0000
  Cu  Cu31      1.0  0.65396  0.10768  0.8608999999999999  1.0000
  Cu  Cu32      1.0  0.7678099999999999  0.00407  0.9489299999999999  1.0000
  Cu  Cu33      1.0  0.1391  0.15396  0.39232  1.0000
  Cu  Cu34      1.0  0.05106999999999999  0.26781  0.49593  1.0000
  Cu  Cu35      1.0  0.6391  0.34604  0.60768  1.0000
  Cu  Cu36      1.0  0.55107  0.23218999999999998  0.50407  1.0000
  Cu  Cu37      1.0  0.3609  0.8460399999999999  0.89232  1.0000
  Cu  Cu38      1.0  0.44893  0.73219  0.9959299999999999  1.0000
  Cu  Cu39      1.0  0.8608999999999999  0.65396  0.10768  1.0000
  Cu  Cu40      1.0  0.9489299999999999  0.7678099999999999  0.00407  1.0000
  Cu  Cu41      1.0  0.39232  0.1391  0.15396  1.0000
  Cu  Cu42      1.0  0.49593  0.05106999999999999  0.26781  1.0000
  Cu  Cu43      1.0  0.60768  0.6391  0.34604  1.0000
  Cu  Cu44      1.0  0.50407  0.55107  0.23218999999999998  1.0000
  Cu  Cu45      1.0  0.89232  0.3609  0.8460399999999999  1.0000
  Cu  Cu46      1.0  0.9959299999999999  0.44893  0.73219  1.0000
  Cu  Cu47      1.0  0.10768  0.8608999999999999  0.65396  1.0000
  Cu  Cu48      1.0  0.00407  0.9489299999999999  0.7678099999999999  1.0000
  H   H1        1.0  0.66323  0.6895299999999999  0.013109999999999998  1.0000
  H   H2        1.0  0.62421  0.69311  0.8840399999999999  1.0000
  H   H3        1.0  0.77854  0.8022099999999999  0.891  1.0000
  H   H4        1.0  0.70917  0.79738  0.02252  1.0000
  H   H5        1.0  0.8367699999999999  0.31047  0.51311  1.0000
  H   H6        1.0  0.87579  0.30689  0.38404  1.0000
  H   H7        1.0  0.7214599999999999  0.19778999999999997  0.391  1.0000
  H   H8        1.0  0.79083  0.20262  0.52252  1.0000
  H   H9        1.0  0.33677  0.18953  0.48689  1.0000
  H   H10       1.0  0.37579  0.19310999999999998  0.6159599999999998  1.0000
  H   H11       1.0  0.22146  0.30221  0.609  1.0000
  H   H12       1.0  0.29083  0.29738  0.47748  1.0000
  H   H13       1.0  0.16323  0.81047  0.9868899999999999  1.0000
  H   H14       1.0  0.12421  0.80689  0.11596  1.0000
  H   H15       1.0  0.27854  0.69779  0.109  1.0000
  H   H16       1.0  0.20916999999999997  0.70262  0.9774799999999999  1.0000
  H   H17       1.0  0.013109999999999998  0.66323  0.6895299999999999  1.0000
  H   H18       1.0  0.8840399999999999  0.62421  0.69311  1.0000
  H   H19       1.0  0.891  0.77854  0.8022099999999999  1.0000
  H   H20       1.0  0.02252  0.70917  0.79738  1.0000
  H   H21       1.0  0.51311  0.8367699999999999  0.31047  1.0000
  H   H22       1.0  0.38404  0.87579  0.30689  1.0000
  H   H23       1.0  0.391  0.7214599999999999  0.19778999999999997  1.0000
  H   H24       1.0  0.52252  0.79083  0.20262  1.0000
  H   H25       1.0  0.48689  0.33677  0.18953  1.0000
  H   H26       1.0  0.6159599999999998  0.37579  0.19310999999999998  1.0000
  H   H27       1.0  0.609  0.22146  0.30221  1.0000
  H   H28       1.0  0.47748  0.29083  0.29738  1.0000
  H   H29       1.0  0.9868899999999999  0.16323  0.81047  1.0000
  H   H30       1.0  0.11596  0.12421  0.80689  1.0000
  H   H31       1.0  0.109  0.27854  0.69779  1.0000
  H   H32       1.0  0.9774799999999999  0.20916999999999997  0.70262  1.0000
  H   H33       1.0  0.6895299999999999  0.013109999999999998  0.66323  1.0000
  H   H34       1.0  0.69311  0.8840399999999999  0.62421  1.0000
  H   H35       1.0  0.8022099999999999  0.891  0.77854  1.0000
  H   H36       1.0  0.79738  0.02252  0.70917  1.0000
  H   H37       1.0  0.31047  0.51311  0.8367699999999999  1.0000
  H   H38       1.0  0.30689  0.38404  0.87579  1.0000
  H   H39       1.0  0.19778999999999997  0.391  0.7214599999999999  1.0000
  H   H40       1.0  0.20262  0.52252  0.79083  1.0000
  H   H41       1.0  0.18953  0.48689  0.33677  1.0000
  H   H42       1.0  0.19310999999999998  0.6159599999999998  0.37579  1.0000
  H   H43       1.0  0.30221  0.609  0.22146  1.0000
  H   H44       1.0  0.29738  0.47748  0.29083  1.0000
  H   H45       1.0  0.81047  0.9868899999999999  0.16323  1.0000
  H   H46       1.0  0.80689  0.11596  0.12421  1.0000
  H   H47       1.0  0.69779  0.109  0.27854  1.0000
  H   H48       1.0  0.70262  0.9774799999999999  0.20916999999999997  1.0000
  H   H49       1.0  0.33677  0.31047  0.9868899999999999  1.0000
  H   H50       1.0  0.37579  0.30689  0.11596  1.0000
  H   H51       1.0  0.22146  0.19778999999999997  0.109  1.0000
  H   H52       1.0  0.29083  0.20262  0.9774799999999999  1.0000
  H   H53       1.0  0.16323  0.6895299999999999  0.48689  1.0000
  H   H54       1.0  0.12421  0.69311  0.6159599999999998  1.0000
  H   H55       1.0  0.27854  0.8022099999999999  0.609  1.0000
  H   H56       1.0  0.20916999999999997  0.79738  0.47748  1.0000
  H   H57       1.0  0.66323  0.81047  0.51311  1.0000
  H   H58       1.0  0.62421  0.80689  0.38404  1.0000
  H   H59       1.0  0.77854  0.69779  0.391  1.0000
  H   H60       1.0  0.70917  0.70262  0.52252  1.0000
  H   H61       1.0  0.8367699999999999  0.18953  0.013109999999999998  1.0000
  H   H62       1.0  0.87579  0.19310999999999998  0.8840399999999999  1.0000
  H   H63       1.0  0.7214599999999999  0.30221  0.891  1.0000
  H   H64       1.0  0.79083  0.29738  0.02252  1.0000
  H   H65       1.0  0.9868899999999999  0.33677  0.31047  1.0000
  H   H66       1.0  0.11596  0.37579  0.30689  1.0000
  H   H67       1.0  0.109  0.22146  0.19778999999999997  1.0000
  H   H68       1.0  0.9774799999999999  0.29083  0.20262  1.0000
  H   H69       1.0  0.48689  0.16323  0.6895299999999999  1.0000
  H   H70       1.0  0.6159599999999998  0.12421  0.69311  1.0000
  H   H71       1.0  0.609  0.27854  0.8022099999999999  1.0000
  H   H72       1.0  0.47748  0.20916999999999997  0.79738  1.0000
  H   H73       1.0  0.51311  0.66323  0.81047  1.0000
  H   H74       1.0  0.38404  0.62421  0.80689  1.0000
  H   H75       1.0  0.391  0.77854  0.69779  1.0000
  H   H76       1.0  0.52252  0.70917  0.70262  1.0000
  H   H77       1.0  0.013109999999999998  0.8367699999999999  0.18953  1.0000
  H   H78       1.0  0.8840399999999999  0.87579  0.19310999999999998  1.0000
  H   H79       1.0  0.891  0.7214599999999999  0.30221  1.0000
  H   H80       1.0  0.02252  0.79083  0.29738  1.0000
  H   H81       1.0  0.31047  0.9868899999999999  0.33677  1.0000
  H   H82       1.0  0.30689  0.11596  0.37579  1.0000
  H   H83       1.0  0.19778999999999997  0.109  0.22146  1.0000
  H   H84       1.0  0.20262  0.9774799999999999  0.29083  1.0000
  H   H85       1.0  0.6895299999999999  0.48689  0.16323  1.0000
  H   H86       1.0  0.69311  0.6159599999999998  0.12421  1.0000
  H   H87       1.0  0.8022099999999999  0.609  0.27854  1.0000
  H   H88       1.0  0.79738  0.47748  0.20916999999999997  1.0000
  H   H89       1.0  0.81047  0.51311  0.66323  1.0000
  H   H90       1.0  0.80689  0.38404  0.62421  1.0000
  H   H91       1.0  0.69779  0.391  0.77854  1.0000
  H   H92       1.0  0.70262  0.52252  0.70917  1.0000
  H   H93       1.0  0.18953  0.013109999999999998  0.8367699999999999  1.0000
  H   H94       1.0  0.19310999999999998  0.8840399999999999  0.87579  1.0000
  H   H95       1.0  0.30221  0.891  0.7214599999999999  1.0000
  H   H96       1.0  0.29738  0.02252  0.79083  1.0000
  C   C1        1.0  0.68979  0.70712  0.96937  1.0000
  C   C2        1.0  0.6414  0.73302  0.9168399999999999  1.0000
  C   C3        1.0  0.73145  0.8067599999999999  0.91755  1.0000
  C   C4        1.0  0.73345  0.76818  0.9834499999999999  1.0000
  C   C5        1.0  0.72739  0.64918  0.9388  1.0000
  C   C6        1.0  0.57748  0.76484  0.94393  1.0000
  C   C7        1.0  0.71774  0.87973  0.92935  1.0000
  C   C8        1.0  0.80231  0.75158  0.01132  1.0000
  C   C9        1.0  0.8102099999999999  0.29288  0.46937  1.0000
  C   C10       1.0  0.8585999999999999  0.26698  0.41684  1.0000
  C   C11       1.0  0.76855  0.19324  0.4175499999999999  1.0000
  C   C12       1.0  0.76655  0.23180999999999996  0.48345  1.0000
  C   C13       1.0  0.77261  0.35082  0.4388  1.0000
  C   C14       1.0  0.9225099999999999  0.23515999999999998  0.44392999999999994  1.0000
  C   C15       1.0  0.78226  0.12026999999999999  0.42934999999999995  1.0000
  C   C16       1.0  0.69769  0.24842  0.51132  1.0000
  C   C17       1.0  0.31021  0.20711999999999997  0.53063  1.0000
  C   C18       1.0  0.3586  0.23302  0.58316  1.0000
  C   C19       1.0  0.26855  0.30676  0.58245  1.0000
  C   C20       1.0  0.26655  0.26818  0.51655  1.0000
  C   C21       1.0  0.27261  0.14918  0.5612  1.0000
  C   C22       1.0  0.42251  0.26484  0.55607  1.0000
  C   C23       1.0  0.28226  0.37973  0.57065  1.0000
  C   C24       1.0  0.19769  0.25158  0.48868  1.0000
  C   C25       1.0  0.18979  0.7928799999999999  0.03063  1.0000
  C   C26       1.0  0.14139999999999997  0.76698  0.08316  1.0000
  C   C27       1.0  0.23145  0.69324  0.08245  1.0000
  C   C28       1.0  0.23344999999999996  0.73181  0.01655  1.0000
  C   C29       1.0  0.22738999999999998  0.8508200000000001  0.0612  1.0000
  C   C30       1.0  0.07749  0.73516  0.05607  1.0000
  C   C31       1.0  0.21773999999999996  0.62027  0.07065  1.0000
  C   C32       1.0  0.30231  0.74842  0.98868  1.0000
  C   C33       1.0  0.96937  0.68979  0.70712  1.0000
  C   C34       1.0  0.9168399999999999  0.6414  0.73302  1.0000
  C   C35       1.0  0.91755  0.73145  0.8067599999999999  1.0000
  C   C36       1.0  0.9834499999999999  0.73345  0.76818  1.0000
  C   C37       1.0  0.9388  0.72739  0.64918  1.0000
  C   C38       1.0  0.94393  0.57748  0.76484  1.0000
  C   C39       1.0  0.92935  0.71774  0.87973  1.0000
  C   C40       1.0  0.01132  0.80231  0.75158  1.0000
  C   C41       1.0  0.46937  0.8102099999999999  0.29288  1.0000
  C   C42       1.0  0.41684  0.8585999999999999  0.26698  1.0000
  C   C43       1.0  0.4175499999999999  0.76855  0.19324  1.0000
  C   C44       1.0  0.48345  0.76655  0.23180999999999996  1.0000
  C   C45       1.0  0.4388  0.77261  0.35082  1.0000
  C   C46       1.0  0.44392999999999994  0.9225099999999999  0.23515999999999998  1.0000
  C   C47       1.0  0.42934999999999995  0.78226  0.12026999999999999  1.0000
  C   C48       1.0  0.51132  0.69769  0.24842  1.0000
  C   C49       1.0  0.53063  0.31021  0.20711999999999997  1.0000
  C   C50       1.0  0.58316  0.3586  0.23302  1.0000
  C   C51       1.0  0.58245  0.26855  0.30676  1.0000
  C   C52       1.0  0.51655  0.26655  0.26819  1.0000
  C   C53       1.0  0.5612  0.27261  0.14918  1.0000
  C   C54       1.0  0.55607  0.42251  0.26484  1.0000
  C   C55       1.0  0.57065  0.28226  0.37973  1.0000
  C   C56       1.0  0.48868  0.19769  0.25158  1.0000
  C   C57       1.0  0.03063  0.18979  0.7928799999999999  1.0000
  C   C58       1.0  0.08316  0.14139999999999997  0.76698  1.0000
  C   C59       1.0  0.08245  0.23145  0.69324  1.0000
  C   C60       1.0  0.01655  0.23344999999999996  0.73181  1.0000
  C   C61       1.0  0.0612  0.22738999999999998  0.8508200000000001  1.0000
  C   C62       1.0  0.05607  0.07749  0.73516  1.0000
  C   C63       1.0  0.07065  0.21773999999999996  0.62027  1.0000
  C   C64       1.0  0.98868  0.30231  0.74842  1.0000
  C   C65       1.0  0.70712  0.96937  0.68979  1.0000
  C   C66       1.0  0.73302  0.9168399999999999  0.6414  1.0000
  C   C67       1.0  0.8067599999999999  0.91755  0.73145  1.0000
  C   C68       1.0  0.76818  0.9834499999999999  0.73345  1.0000
  C   C69       1.0  0.64918  0.9388  0.72739  1.0000
  C   C70       1.0  0.76484  0.94393  0.57749  1.0000
  C   C71       1.0  0.87973  0.92935  0.71774  1.0000
  C   C72       1.0  0.75158  0.01132  0.80231  1.0000
  C   C73       1.0  0.29288  0.46937  0.8102099999999999  1.0000
  C   C74       1.0  0.26698  0.41684  0.8585999999999999  1.0000
  C   C75       1.0  0.19324  0.4175499999999999  0.76855  1.0000
  C   C76       1.0  0.23180999999999996  0.48345  0.76655  1.0000
  C   C77       1.0  0.35082  0.4388  0.77261  1.0000
  C   C78       1.0  0.23515999999999998  0.44392999999999994  0.9225099999999999  1.0000
  C   C79       1.0  0.12026999999999999  0.42934999999999995  0.78226  1.0000
  C   C80       1.0  0.24842  0.51132  0.69769  1.0000
  C   C81       1.0  0.20711999999999997  0.53063  0.31021  1.0000
  C   C82       1.0  0.23302  0.58316  0.3586  1.0000
  C   C83       1.0  0.30676  0.58245  0.26855  1.0000
  C   C84       1.0  0.26818  0.51655  0.26655  1.0000
  C   C85       1.0  0.14918  0.5612  0.27261  1.0000
  C   C86       1.0  0.26484  0.55607  0.42251  1.0000
  C   C87       1.0  0.37973  0.57065  0.28226  1.0000
  C   C88       1.0  0.25158  0.48868  0.19769  1.0000
  C   C89       1.0  0.7928799999999999  0.03063  0.18979  1.0000
  C   C90       1.0  0.76698  0.08316  0.14139999999999997  1.0000
  C   C91       1.0  0.69324  0.08245  0.23145  1.0000
  C   C92       1.0  0.73181  0.01655  0.23344999999999996  1.0000
  C   C93       1.0  0.8508200000000001  0.0612  0.22738999999999998  1.0000
  C   C94       1.0  0.73516  0.05607  0.07749  1.0000
  C   C95       1.0  0.62027  0.07065  0.21773999999999996  1.0000
  C   C96       1.0  0.74842  0.98868  0.30231  1.0000
  C   C97       1.0  0.31021  0.29288  0.03063  1.0000
  C   C98       1.0  0.3586  0.26698  0.08316  1.0000
  C   C99       1.0  0.26855  0.19324  0.08245  1.0000
  C   C100      1.0  0.26655  0.23180999999999996  0.01655  1.0000
  C   C101      1.0  0.27261  0.35082  0.0612  1.0000
  C   C102      1.0  0.42251  0.23515999999999998  0.05607  1.0000
  C   C103      1.0  0.28226  0.12026999999999999  0.07065  1.0000
  C   C104      1.0  0.19769  0.24842  0.98868  1.0000
  C   C105      1.0  0.18979  0.70712  0.53063  1.0000
  C   C106      1.0  0.14139999999999997  0.73302  0.58316  1.0000
  C   C107      1.0  0.23145  0.8067599999999999  0.58245  1.0000
  C   C108      1.0  0.23344999999999996  0.76818  0.51655  1.0000
  C   C109      1.0  0.22738999999999998  0.64918  0.5612  1.0000
  C   C110      1.0  0.07749  0.76484  0.55607  1.0000
  C   C111      1.0  0.21773999999999996  0.87973  0.57065  1.0000
  C   C112      1.0  0.30231  0.75158  0.48868  1.0000
  C   C113      1.0  0.68979  0.7928799999999999  0.46937  1.0000
  C   C114      1.0  0.6414  0.76698  0.41684  1.0000
  C   C115      1.0  0.73145  0.69324  0.4175499999999999  1.0000
  C   C116      1.0  0.73345  0.73181  0.48345  1.0000
  C   C117      1.0  0.72739  0.8508200000000001  0.4388  1.0000
  C   C118      1.0  0.57748  0.73516  0.44392999999999994  1.0000
  C   C119      1.0  0.71774  0.62027  0.42934999999999995  1.0000
  C   C120      1.0  0.80231  0.74842  0.51132  1.0000
  C   C121      1.0  0.8102099999999999  0.20711999999999997  0.96937  1.0000
  C   C122      1.0  0.8585999999999999  0.23302  0.9168399999999999  1.0000
  C   C123      1.0  0.76855  0.30676  0.91755  1.0000
  C   C124      1.0  0.76655  0.26818  0.9834499999999999  1.0000
  C   C125      1.0  0.77261  0.14918  0.9388  1.0000
  C   C126      1.0  0.9225099999999999  0.26484  0.94393  1.0000
  C   C127      1.0  0.78226  0.37973  0.92935  1.0000
  C   C128      1.0  0.69769  0.25158  0.01132  1.0000
  C   C129      1.0  0.03063  0.31021  0.29288  1.0000
  C   C130      1.0  0.08316  0.3586  0.26698  1.0000
  C   C131      1.0  0.08245  0.26855  0.19324  1.0000
  C   C132      1.0  0.01655  0.26655  0.23180999999999996  1.0000
  C   C133      1.0  0.0612  0.27261  0.35082  1.0000
  C   C134      1.0  0.05607  0.42251  0.23515999999999998  1.0000
  C   C135      1.0  0.07065  0.28226  0.12026999999999999  1.0000
  C   C136      1.0  0.98868  0.19769  0.24842  1.0000
  C   C137      1.0  0.53063  0.18979  0.70712  1.0000
  C   C138      1.0  0.58316  0.14139999999999997  0.73302  1.0000
  C   C139      1.0  0.58245  0.23145  0.8067599999999999  1.0000
  C   C140      1.0  0.51655  0.23344999999999996  0.76818  1.0000
  C   C141      1.0  0.5612  0.22738999999999998  0.64918  1.0000
  C   C142      1.0  0.55607  0.07749  0.76484  1.0000
  C   C143      1.0  0.57065  0.21773999999999996  0.87973  1.0000
  C   C144      1.0  0.48868  0.30231  0.75158  1.0000
  C   C145      1.0  0.46937  0.68979  0.7928799999999999  1.0000
  C   C146      1.0  0.41684  0.6414  0.76698  1.0000
  C   C147      1.0  0.4175499999999999  0.73145  0.69324  1.0000
  C   C148      1.0  0.48345  0.73345  0.73181  1.0000
  C   C149      1.0  0.4388  0.72739  0.8508200000000001  1.0000
  C   C150      1.0  0.44392999999999994  0.57748  0.73516  1.0000
  C   C151      1.0  0.42934999999999995  0.71774  0.62027  1.0000
  C   C152      1.0  0.51132  0.80231  0.74842  1.0000
  C   C153      1.0  0.96937  0.8102099999999999  0.20711999999999997  1.0000
  C   C154      1.0  0.9168399999999999  0.8585999999999999  0.23302  1.0000
  C   C155      1.0  0.91755  0.76855  0.30676  1.0000
  C   C156      1.0  0.9834499999999999  0.76655  0.26819  1.0000
  C   C157      1.0  0.9388  0.77261  0.14918  1.0000
  C   C158      1.0  0.94393  0.9225099999999999  0.26484  1.0000
  C   C159      1.0  0.92935  0.78226  0.37973  1.0000
  C   C160      1.0  0.01132  0.69769  0.25158  1.0000
  C   C161      1.0  0.29288  0.03063  0.31021  1.0000
  C   C162      1.0  0.26698  0.08316  0.3586  1.0000
  C   C163      1.0  0.19324  0.08245  0.26855  1.0000
  C   C164      1.0  0.23180999999999996  0.01655  0.26655  1.0000
  C   C165      1.0  0.35082  0.0612  0.27261  1.0000
  C   C166      1.0  0.23515999999999998  0.05607  0.42251  1.0000
  C   C167      1.0  0.12026999999999999  0.07065  0.28226  1.0000
  C   C168      1.0  0.24842  0.98868  0.19769  1.0000
  C   C169      1.0  0.70712  0.53063  0.18979  1.0000
  C   C170      1.0  0.73302  0.58316  0.14139999999999997  1.0000
  C   C171      1.0  0.8067599999999999  0.58245  0.23145  1.0000
  C   C172      1.0  0.76818  0.51655  0.23344999999999996  1.0000
  C   C173      1.0  0.64918  0.5612  0.22738999999999998  1.0000
  C   C174      1.0  0.76484  0.55607  0.07749  1.0000
  C   C175      1.0  0.87973  0.57065  0.21773999999999996  1.0000
  C   C176      1.0  0.75158  0.48868  0.30231  1.0000
  C   C177      1.0  0.7928799999999999  0.46937  0.68979  1.0000
  C   C178      1.0  0.76698  0.41684  0.6414  1.0000
  C   C179      1.0  0.69324  0.4175499999999999  0.73145  1.0000
  C   C180      1.0  0.73181  0.48345  0.73345  1.0000
  C   C181      1.0  0.8508200000000001  0.4388  0.72739  1.0000
  C   C182      1.0  0.73516  0.44392999999999994  0.57749  1.0000
  C   C183      1.0  0.62027  0.42934999999999995  0.71774  1.0000
  C   C184      1.0  0.74842  0.51132  0.80231  1.0000
  C   C185      1.0  0.20711999999999997  0.96937  0.8102099999999999  1.0000
  C   C186      1.0  0.23302  0.9168399999999999  0.8585999999999999  1.0000
  C   C187      1.0  0.30676  0.91755  0.76855  1.0000
  C   C188      1.0  0.26818  0.9834499999999999  0.76655  1.0000
  C   C189      1.0  0.14918  0.9388  0.77261  1.0000
  C   C190      1.0  0.26484  0.94393  0.9225099999999999  1.0000
  C   C191      1.0  0.37973  0.92935  0.78226  1.0000
  C   C192      1.0  0.25158  0.01132  0.69769  1.0000
  O   O1        1.0  0.77996  0.66259  0.90728  1.0000
  O   O2        1.0  0.69967  0.59346  0.9466099999999998  1.0000
  O   O3        1.0  0.7635999999999998  0.9094799999999998  0.96036  1.0000
  O   O4        1.0  0.66478  0.90745  0.9102799999999999  1.0000
  O   O5        1.0  0.55655  0.81909  0.92023  1.0000
  O   O6        1.0  0.54713  0.73015  0.9866999999999999  1.0000
  O   O7        1.0  0.7999999999999999  0.71153  0.059849999999999993  1.0000
  O   O8        1.0  0.85248  0.77949  0.9863799999999999  1.0000
  O   O9        1.0  0.6803499999999999  0.77718  0.87695  1.0000
  O   O10       1.0  0.72003  0.33741  0.4072799999999999  1.0000
  O   O11       1.0  0.80033  0.40654  0.44660999999999995  1.0000
  O   O12       1.0  0.7364  0.09052  0.46036  1.0000
  O   O13       1.0  0.83522  0.09255  0.4102799999999999  1.0000
  O   O14       1.0  0.94345  0.18091  0.42023  1.0000
  O   O15       1.0  0.95286  0.26985  0.4867  1.0000
  O   O16       1.0  0.7  0.28846999999999995  0.55985  1.0000
  O   O17       1.0  0.64752  0.22050999999999998  0.48638  1.0000
  O   O18       1.0  0.81964  0.22282  0.37694999999999995  1.0000
  O   O19       1.0  0.22003  0.16259  0.59272  1.0000
  O   O20       1.0  0.30033  0.09346  0.55339  1.0000
  O   O21       1.0  0.2364  0.40947999999999996  0.53964  1.0000
  O   O22       1.0  0.33522  0.40745  0.58971  1.0000
  O   O23       1.0  0.44345  0.31909  0.57977  1.0000
  O   O24       1.0  0.45287  0.23015  0.5133  1.0000
  O   O25       1.0  0.19999999999999998  0.21153  0.44015  1.0000
  O   O26       1.0  0.14752  0.27949  0.51362  1.0000
  O   O27       1.0  0.31964  0.27718  0.62305  1.0000
  O   O28       1.0  0.27996999999999994  0.8374100000000001  0.09272  1.0000
  O   O29       1.0  0.19967  0.9065399999999999  0.05338999999999999  1.0000
  O   O30       1.0  0.2636  0.59052  0.03964  1.0000
  O   O31       1.0  0.16478  0.59255  0.08972  1.0000
  O   O32       1.0  0.05655  0.68091  0.07977  1.0000
  O   O33       1.0  0.04713  0.7698499999999999  0.0133  1.0000
  O   O34       1.0  0.3  0.78847  0.94015  1.0000
  O   O35       1.0  0.35248  0.72051  0.01362  1.0000
  O   O36       1.0  0.18035999999999996  0.72282  0.12305  1.0000
  O   O37       1.0  0.90728  0.77996  0.66259  1.0000
  O   O38       1.0  0.9466099999999998  0.69967  0.59346  1.0000
  O   O39       1.0  0.96036  0.7635999999999998  0.9094799999999998  1.0000
  O   O40       1.0  0.9102799999999999  0.66478  0.90745  1.0000
  O   O41       1.0  0.92023  0.55655  0.81909  1.0000
  O   O42       1.0  0.9866999999999999  0.54713  0.73015  1.0000
  O   O43       1.0  0.059849999999999993  0.7999999999999999  0.71153  1.0000
  O   O44       1.0  0.9863799999999999  0.85248  0.77949  1.0000
  O   O45       1.0  0.87695  0.6803499999999999  0.77718  1.0000
  O   O46       1.0  0.4072799999999999  0.72003  0.33741  1.0000
  O   O47       1.0  0.44660999999999995  0.80033  0.40654  1.0000
  O   O48       1.0  0.46036  0.7364  0.09052  1.0000
  O   O49       1.0  0.4102799999999999  0.83522  0.09255  1.0000
  O   O50       1.0  0.42023  0.94345  0.18091  1.0000
  O   O51       1.0  0.4867  0.95286  0.26985  1.0000
  O   O52       1.0  0.55985  0.7  0.28846999999999995  1.0000
  O   O53       1.0  0.48638  0.64752  0.22050999999999998  1.0000
  O   O54       1.0  0.37694999999999995  0.81964  0.22282  1.0000
  O   O55       1.0  0.59272  0.22003  0.16259  1.0000
  O   O56       1.0  0.55339  0.30033  0.09346  1.0000
  O   O57       1.0  0.53964  0.2364  0.40947999999999996  1.0000
  O   O58       1.0  0.58971  0.33522  0.40745  1.0000
  O   O59       1.0  0.57977  0.44345  0.31909  1.0000
  O   O60       1.0  0.5133  0.45287  0.23015  1.0000
  O   O61       1.0  0.44015  0.19999999999999998  0.21153  1.0000
  O   O62       1.0  0.51362  0.14752  0.27949  1.0000
  O   O63       1.0  0.62305  0.31964  0.27718  1.0000
  O   O64       1.0  0.09272  0.27996999999999994  0.8374100000000001  1.0000
  O   O65       1.0  0.05338999999999999  0.19967  0.9065399999999999  1.0000
  O   O66       1.0  0.03964  0.2636  0.59052  1.0000
  O   O67       1.0  0.08972  0.16478  0.59255  1.0000
  O   O68       1.0  0.07977  0.05655  0.68091  1.0000
  O   O69       1.0  0.0133  0.04713  0.7698499999999999  1.0000
  O   O70       1.0  0.94015  0.3  0.78847  1.0000
  O   O71       1.0  0.01362  0.35248  0.72051  1.0000
  O   O72       1.0  0.12305  0.18035999999999996  0.72282  1.0000
  O   O73       1.0  0.66259  0.90728  0.77996  1.0000
  O   O74       1.0  0.59346  0.9466099999999998  0.69967  1.0000
  O   O75       1.0  0.9094799999999998  0.96036  0.7635999999999998  1.0000
  O   O76       1.0  0.90745  0.9102799999999999  0.66478  1.0000
  O   O77       1.0  0.81909  0.92023  0.55655  1.0000
  O   O78       1.0  0.73015  0.9866999999999999  0.54713  1.0000
  O   O79       1.0  0.71153  0.059849999999999993  0.7999999999999999  1.0000
  O   O80       1.0  0.77949  0.9863799999999999  0.85248  1.0000
  O   O81       1.0  0.77718  0.87695  0.68036  1.0000
  O   O82       1.0  0.33741  0.4072799999999999  0.72003  1.0000
  O   O83       1.0  0.40654  0.44660999999999995  0.80033  1.0000
  O   O84       1.0  0.09052  0.46036  0.7364  1.0000
  O   O85       1.0  0.09255  0.4102799999999999  0.83522  1.0000
  O   O86       1.0  0.18091  0.42023  0.94345  1.0000
  O   O87       1.0  0.26985  0.4867  0.95286  1.0000
  O   O88       1.0  0.28846999999999995  0.55985  0.7  1.0000
  O   O89       1.0  0.22050999999999998  0.48638  0.64752  1.0000
  O   O90       1.0  0.22282  0.37694999999999995  0.81964  1.0000
  O   O91       1.0  0.16259  0.59272  0.22003  1.0000
  O   O92       1.0  0.09346  0.55339  0.30033  1.0000
  O   O93       1.0  0.40947999999999996  0.53964  0.2364  1.0000
  O   O94       1.0  0.40745  0.58971  0.33522  1.0000
  O   O95       1.0  0.31909  0.57977  0.44345  1.0000
  O   O96       1.0  0.23015  0.5133  0.45287  1.0000
  O   O97       1.0  0.21153  0.44015  0.19999999999999998  1.0000
  O   O98       1.0  0.27949  0.51362  0.14752  1.0000
  O   O99       1.0  0.27718  0.62305  0.31964  1.0000
  O   O100      1.0  0.8374100000000001  0.09272  0.27996999999999994  1.0000
  O   O101      1.0  0.9065399999999999  0.05338999999999999  0.19967  1.0000
  O   O102      1.0  0.59052  0.03964  0.2636  1.0000
  O   O103      1.0  0.59255  0.08972  0.16478  1.0000
  O   O104      1.0  0.68091  0.07977  0.05655  1.0000
  O   O105      1.0  0.7698499999999999  0.0133  0.04713  1.0000
  O   O106      1.0  0.78847  0.94015  0.3  1.0000
  O   O107      1.0  0.72051  0.01362  0.35248  1.0000
  O   O108      1.0  0.72282  0.12305  0.18035999999999996  1.0000
  O   O109      1.0  0.22003  0.33741  0.09272  1.0000
  O   O110      1.0  0.30033  0.40654  0.05338999999999999  1.0000
  O   O111      1.0  0.2364  0.09052  0.03964  1.0000
  O   O112      1.0  0.33522  0.09255  0.08972  1.0000
  O   O113      1.0  0.44345  0.18091  0.07977  1.0000
  O   O114      1.0  0.45287  0.26985  0.0133  1.0000
  O   O115      1.0  0.19999999999999998  0.28846999999999995  0.94015  1.0000
  O   O116      1.0  0.14752  0.22050999999999998  0.01362  1.0000
  O   O117      1.0  0.31964  0.22282  0.12305  1.0000
  O   O118      1.0  0.27996999999999994  0.66259  0.59272  1.0000
  O   O119      1.0  0.19967  0.59346  0.55339  1.0000
  O   O120      1.0  0.2636  0.9094799999999998  0.53964  1.0000
  O   O121      1.0  0.16478  0.90745  0.58971  1.0000
  O   O122      1.0  0.05655  0.81909  0.57977  1.0000
  O   O123      1.0  0.04713  0.73015  0.5133  1.0000
  O   O124      1.0  0.3  0.71153  0.44015  1.0000
  O   O125      1.0  0.35248  0.77949  0.51362  1.0000
  O   O126      1.0  0.18035999999999996  0.77718  0.62305  1.0000
  O   O127      1.0  0.77996  0.8374100000000001  0.4072799999999999  1.0000
  O   O128      1.0  0.69967  0.9065399999999999  0.44660999999999995  1.0000
  O   O129      1.0  0.7635999999999998  0.59052  0.46036  1.0000
  O   O130      1.0  0.66478  0.59255  0.4102799999999999  1.0000
  O   O131      1.0  0.55655  0.68091  0.42023  1.0000
  O   O132      1.0  0.54713  0.7698499999999999  0.4867  1.0000
  O   O133      1.0  0.7999999999999999  0.78847  0.55985  1.0000
  O   O134      1.0  0.85248  0.72051  0.48638  1.0000
  O   O135      1.0  0.6803499999999999  0.72282  0.37694999999999995  1.0000
  O   O136      1.0  0.72003  0.16259  0.90728  1.0000
  O   O137      1.0  0.80033  0.09346  0.9466099999999998  1.0000
  O   O138      1.0  0.7364  0.40947999999999996  0.96036  1.0000
  O   O139      1.0  0.83522  0.40745  0.9102799999999999  1.0000
  O   O140      1.0  0.94345  0.31909  0.92023  1.0000
  O   O141      1.0  0.95286  0.23015  0.9866999999999999  1.0000
  O   O142      1.0  0.7  0.21153  0.059849999999999993  1.0000
  O   O143      1.0  0.64752  0.27949  0.9863799999999999  1.0000
  O   O144      1.0  0.81964  0.27718  0.87695  1.0000
  O   O145      1.0  0.09272  0.22003  0.33741  1.0000
  O   O146      1.0  0.05338999999999999  0.30033  0.40654  1.0000
  O   O147      1.0  0.03964  0.2364  0.09052  1.0000
  O   O148      1.0  0.08972  0.33522  0.09255  1.0000
  O   O149      1.0  0.07977  0.44345  0.18091  1.0000
  O   O150      1.0  0.0133  0.45287  0.26985  1.0000
  O   O151      1.0  0.94015  0.19999999999999998  0.28846999999999995  1.0000
  O   O152      1.0  0.01362  0.14752  0.22050999999999998  1.0000
  O   O153      1.0  0.12305  0.31964  0.22282  1.0000
  O   O154      1.0  0.59272  0.27996999999999994  0.66259  1.0000
  O   O155      1.0  0.55339  0.19967  0.59346  1.0000
  O   O156      1.0  0.53964  0.2636  0.9094799999999998  1.0000
  O   O157      1.0  0.58971  0.16478  0.90745  1.0000
  O   O158      1.0  0.57977  0.05655  0.81909  1.0000
  O   O159      1.0  0.5133  0.04713  0.73015  1.0000
  O   O160      1.0  0.44015  0.3  0.71153  1.0000
  O   O161      1.0  0.51362  0.35248  0.77949  1.0000
  O   O162      1.0  0.62305  0.18035999999999996  0.77718  1.0000
  O   O163      1.0  0.4072799999999999  0.77996  0.8374100000000001  1.0000
  O   O164      1.0  0.44660999999999995  0.69967  0.9065399999999999  1.0000
  O   O165      1.0  0.46036  0.7635999999999998  0.59052  1.0000
  O   O166      1.0  0.4102799999999999  0.66478  0.59255  1.0000
  O   O167      1.0  0.42023  0.55655  0.68091  1.0000
  O   O168      1.0  0.4867  0.54713  0.7698499999999999  1.0000
  O   O169      1.0  0.55985  0.7999999999999999  0.78847  1.0000
  O   O170      1.0  0.48638  0.85248  0.72051  1.0000
  O   O171      1.0  0.37694999999999995  0.6803499999999999  0.72282  1.0000
  O   O172      1.0  0.90728  0.72003  0.16259  1.0000
  O   O173      1.0  0.9466099999999998  0.80033  0.09346  1.0000
  O   O174      1.0  0.96036  0.7364  0.40947999999999996  1.0000
  O   O175      1.0  0.9102799999999999  0.83522  0.40745  1.0000
  O   O176      1.0  0.92023  0.94345  0.31909  1.0000
  O   O177      1.0  0.9866999999999999  0.95286  0.23015  1.0000
  O   O178      1.0  0.059849999999999993  0.7  0.21153  1.0000
  O   O179      1.0  0.9863799999999999  0.64752  0.27949  1.0000
  O   O180      1.0  0.87695  0.81964  0.27718  1.0000
  O   O181      1.0  0.33741  0.09272  0.22003  1.0000
  O   O182      1.0  0.40654  0.05338999999999999  0.30033  1.0000
  O   O183      1.0  0.09052  0.03964  0.2364  1.0000
  O   O184      1.0  0.09255  0.08972  0.33522  1.0000
  O   O185      1.0  0.18091  0.07977  0.44345  1.0000
  O   O186      1.0  0.26985  0.0133  0.45287  1.0000
  O   O187      1.0  0.28846999999999995  0.94015  0.19999999999999998  1.0000
  O   O188      1.0  0.22050999999999998  0.01362  0.14752  1.0000
  O   O189      1.0  0.22282  0.12305  0.31964  1.0000
  O   O190      1.0  0.66259  0.59272  0.27996999999999994  1.0000
  O   O191      1.0  0.59346  0.55339  0.19967  1.0000
  O   O192      1.0  0.9094799999999998  0.53964  0.2636  1.0000
  O   O193      1.0  0.90745  0.58971  0.16478  1.0000
  O   O194      1.0  0.81909  0.57977  0.05655  1.0000
  O   O195      1.0  0.73015  0.5133  0.04713  1.0000
  O   O196      1.0  0.71153  0.44015  0.3  1.0000
  O   O197      1.0  0.77949  0.51362  0.35248  1.0000
  O   O198      1.0  0.77718  0.62305  0.18035999999999996  1.0000
  O   O199      1.0  0.8374100000000001  0.4072799999999999  0.77996  1.0000
  O   O200      1.0  0.9065399999999999  0.44660999999999995  0.69967  1.0000
  O   O201      1.0  0.59052  0.46036  0.7635999999999998  1.0000
  O   O202      1.0  0.59255  0.4102799999999999  0.66478  1.0000
  O   O203      1.0  0.68091  0.42023  0.55655  1.0000
  O   O204      1.0  0.7698499999999999  0.4867  0.54713  1.0000
  O   O205      1.0  0.78847  0.55985  0.7999999999999999  1.0000
  O   O206      1.0  0.72051  0.48638  0.85248  1.0000
  O   O207      1.0  0.72282  0.37694999999999995  0.68036  1.0000
  O   O208      1.0  0.16259  0.90728  0.72003  1.0000
  O   O209      1.0  0.09346  0.9466099999999998  0.80033  1.0000
  O   O210      1.0  0.40947999999999996  0.96036  0.7364  1.0000
  O   O211      1.0  0.40745  0.9102799999999999  0.83522  1.0000
  O   O212      1.0  0.31909  0.92023  0.94345  1.0000
  O   O213      1.0  0.23015  0.9866999999999999  0.95286  1.0000
  O   O214      1.0  0.21153  0.059849999999999993  0.7  1.0000
  O   O215      1.0  0.27949  0.9863799999999999  0.64752  1.0000
  O   O216      1.0  0.27718  0.87695  0.81964  1.0000
