data_image0
_chemical_formula_structural       Zn12H128C216O52
_chemical_formula_sum              "Zn12 H128 C216 O52"
_cell_length_a       16.65388
_cell_length_b       21.88584
_cell_length_c       26.19765
_cell_angle_alpha    90.0
_cell_angle_beta     90.00757
_cell_angle_gamma    90.0

_symmetry_space_group_name_H-M    'P 1'
_symmetry_Int_Tables_number       1

loop_
  _symmetry_equiv_pos_as_xyz
  'x,y,z'

loop_
  _atom_site_type_symbol
  _atom_site_label
  _atom_site_symmetry_multiplicity
  _atom_site_fract_x
  _atom_site_fract_y
  _atom_site_fract_z
  _atom_site_occupancy
  Zn  Zn1       1.0  0.49735  0.66835  0.62722  1.0000
  Zn  Zn2       1.0  0.0024200000000000007  0.33175  0.12674  1.0000
  Zn  Zn3       1.0  0.49735  0.83164  0.62722  1.0000
  Zn  Zn4       1.0  0.0024200000000000007  0.16825  0.12674  1.0000
  Zn  Zn5       1.0  0.40263  0.75  0.6840599999999999  1.0000
  Zn  Zn6       1.0  0.09718  0.25  0.18385  1.0000
  Zn  Zn7       1.0  0.50264  0.16835  0.37278  1.0000
  Zn  Zn8       1.0  0.9975700000000001  0.8317499999999999  0.87326  1.0000
  Zn  Zn9       1.0  0.50265  0.33165  0.37278  1.0000
  Zn  Zn10      1.0  0.99758  0.66825  0.87326  1.0000
  Zn  Zn11      1.0  0.59737  0.25  0.31594  1.0000
  Zn  Zn12      1.0  0.90281  0.75  0.81615  1.0000
  H   H1        1.0  0.01563  0.41101  0.04622  1.0000
  H   H2        1.0  0.36624  0.6376599999999999  0.81824  1.0000
  H   H3        1.0  0.38079  0.56998  0.8946  1.0000
  H   H4        1.0  0.57139  0.47270999999999996  0.81828  1.0000
  H   H5        1.0  0.5536000000000002  0.53977  0.74189  1.0000
  H   H6        1.0  0.36544  0.46496999999999994  0.9231  1.0000
  H   H7        1.0  0.5279300000000002  0.3829099999999999  0.03057  1.0000
  H   H8        1.0  0.61947  0.4853999999999999  0.90305  1.0000
  H   H9        1.0  0.29151  0.3889  0.9422099999999999  1.0000
  H   H10       1.0  0.16899  0.36368999999999996  0.9912799999999999  1.0000
  H   H11       1.0  0.30632  0.3625  0.12997  1.0000
  H   H12       1.0  0.4276300000000001  0.39442  0.08235  1.0000
  H   H13       1.0  0.64067  0.33693  0.023949999999999996  1.0000
  H   H14       1.0  0.77788  0.32371  0.05882999999999999  1.0000
  H   H15       1.0  0.85096  0.49265999999999993  0.98876  1.0000
  H   H16       1.0  0.7133300000000002  0.50818  0.95677  1.0000
  H   H17       1.0  0.4844300000000001  0.58894  0.54548  1.0000
  H   H18       1.0  0.13363  0.36234  0.31813  1.0000
  H   H19       1.0  0.11915000000000003  0.42993  0.39444  1.0000
  H   H20       1.0  0.9285800000000002  0.52726  0.31827  1.0000
  H   H21       1.0  0.9462500000000001  0.46029999999999993  0.24179  1.0000
  H   H22       1.0  0.13454  0.5350199999999999  0.42311  1.0000
  H   H23       1.0  0.97207  0.61709  0.53057  1.0000
  H   H24       1.0  0.8805100000000002  0.51459  0.40305  1.0000
  H   H25       1.0  0.20829000000000006  0.61108  0.44206  1.0000
  H   H26       1.0  0.3309300000000001  0.63626  0.49117999999999995  1.0000
  H   H27       1.0  0.19383  0.63749  0.6298899999999998  1.0000
  H   H28       1.0  0.07239  0.6056  0.58234  1.0000
  H   H29       1.0  0.85933  0.66306  0.52396  1.0000
  H   H30       1.0  0.72207  0.67626  0.5588  1.0000
  H   H31       1.0  0.64907  0.50731  0.48873  1.0000
  H   H32       1.0  0.7867400000000002  0.49178  0.45675  1.0000
  H   H33       1.0  0.01563  0.08898  0.04621  1.0000
  H   H34       1.0  0.36624  0.86233  0.81824  1.0000
  H   H35       1.0  0.38079  0.93002  0.89459  1.0000
  H   H36       1.0  0.57139  0.027289999999999995  0.81828  1.0000
  H   H37       1.0  0.5536000000000002  0.96022  0.74189  1.0000
  H   H38       1.0  0.36544  0.03502999999999999  0.9231  1.0000
  H   H39       1.0  0.5279300000000002  0.11709  0.03057  1.0000
  H   H40       1.0  0.61947  0.0146  0.90305  1.0000
  H   H41       1.0  0.29151  0.1111  0.9422099999999999  1.0000
  H   H42       1.0  0.16899  0.13631  0.9912799999999999  1.0000
  H   H43       1.0  0.30632  0.1375  0.12997  1.0000
  H   H44       1.0  0.4276300000000001  0.10558  0.08235  1.0000
  H   H45       1.0  0.64067  0.16307  0.023949999999999996  1.0000
  H   H46       1.0  0.77788  0.17629  0.05882999999999999  1.0000
  H   H47       1.0  0.85096  0.00734  0.98876  1.0000
  H   H48       1.0  0.7133300000000002  0.9918199999999999  0.95677  1.0000
  H   H49       1.0  0.4844300000000001  0.91106  0.54548  1.0000
  H   H50       1.0  0.13363  0.13766  0.31813  1.0000
  H   H51       1.0  0.11915000000000003  0.07007  0.39443  1.0000
  H   H52       1.0  0.9285800000000002  0.97273  0.31827  1.0000
  H   H53       1.0  0.9462500000000001  0.03969  0.24179  1.0000
  H   H54       1.0  0.13454  0.9649699999999998  0.42311  1.0000
  H   H55       1.0  0.97207  0.88291  0.53057  1.0000
  H   H56       1.0  0.8805100000000002  0.98541  0.40305  1.0000
  H   H57       1.0  0.20829000000000006  0.88892  0.44206  1.0000
  H   H58       1.0  0.3309300000000001  0.86374  0.49117999999999995  1.0000
  H   H59       1.0  0.19383  0.86251  0.6298899999999998  1.0000
  H   H60       1.0  0.07239  0.8944  0.58234  1.0000
  H   H61       1.0  0.85933  0.83694  0.52396  1.0000
  H   H62       1.0  0.72207  0.82374  0.5588  1.0000
  H   H63       1.0  0.64907  0.99269  0.48873  1.0000
  H   H64       1.0  0.7867400000000002  0.00822  0.45675  1.0000
  H   H65       1.0  0.98437  0.91101  0.9537899999999999  1.0000
  H   H66       1.0  0.63375  0.13766999999999996  0.18176  1.0000
  H   H67       1.0  0.6192  0.06998  0.10540999999999999  1.0000
  H   H68       1.0  0.4286  0.97271  0.18172  1.0000
  H   H69       1.0  0.4463900000000001  0.03977  0.25811  1.0000
  H   H70       1.0  0.63455  0.9649699999999998  0.0769  1.0000
  H   H71       1.0  0.47206  0.8829  0.96943  1.0000
  H   H72       1.0  0.38052  0.9853999999999999  0.09695  1.0000
  H   H73       1.0  0.70848  0.8889  0.05778999999999999  1.0000
  H   H74       1.0  0.831  0.8636899999999998  0.00872  1.0000
  H   H75       1.0  0.6936700000000002  0.8625  0.8700299999999999  1.0000
  H   H76       1.0  0.57236  0.89442  0.91765  1.0000
  H   H77       1.0  0.35933  0.83693  0.97605  1.0000
  H   H78       1.0  0.22212  0.82371  0.94117  1.0000
  H   H79       1.0  0.14903  0.9926599999999999  0.01124  1.0000
  H   H80       1.0  0.28667  0.00818  0.04323  1.0000
  H   H81       1.0  0.51556  0.08894  0.45452  1.0000
  H   H82       1.0  0.86636  0.86234  0.68187  1.0000
  H   H83       1.0  0.8808400000000001  0.92993  0.60557  1.0000
  H   H84       1.0  0.07141  0.027259999999999996  0.68174  1.0000
  H   H85       1.0  0.05375  0.9602999999999999  0.75821  1.0000
  H   H86       1.0  0.8654600000000002  0.03502  0.57689  1.0000
  H   H87       1.0  0.02793  0.11709  0.46944  1.0000
  H   H88       1.0  0.11948  0.014589999999999999  0.59695  1.0000
  H   H89       1.0  0.7917  0.11107999999999998  0.55794  1.0000
  H   H90       1.0  0.66906  0.13626  0.50882  1.0000
  H   H91       1.0  0.80616  0.13749  0.3701099999999999  1.0000
  H   H92       1.0  0.92761  0.1056  0.41766  1.0000
  H   H93       1.0  0.14067  0.16306  0.47604  1.0000
  H   H94       1.0  0.27792  0.17625999999999997  0.4412  1.0000
  H   H95       1.0  0.35092  0.00731  0.51127  1.0000
  H   H96       1.0  0.21326  0.9917799999999999  0.54325  1.0000
  H   H97       1.0  0.98437  0.58898  0.9537899999999999  1.0000
  H   H98       1.0  0.63375  0.36233  0.18176  1.0000
  H   H99       1.0  0.6192  0.43002  0.10540999999999999  1.0000
  H   H100      1.0  0.4286  0.52729  0.18172  1.0000
  H   H101      1.0  0.4463900000000001  0.46022  0.25811  1.0000
  H   H102      1.0  0.63455  0.53503  0.0769  1.0000
  H   H103      1.0  0.47206  0.61709  0.96943  1.0000
  H   H104      1.0  0.38053  0.5146  0.09695  1.0000
  H   H105      1.0  0.70848  0.6111  0.05778999999999999  1.0000
  H   H106      1.0  0.831  0.6363099999999999  0.00872  1.0000
  H   H107      1.0  0.6936700000000002  0.6375  0.8700299999999999  1.0000
  H   H108      1.0  0.57236  0.60557  0.91765  1.0000
  H   H109      1.0  0.35933  0.66307  0.97605  1.0000
  H   H110      1.0  0.22211000000000006  0.67629  0.94117  1.0000
  H   H111      1.0  0.14903  0.50734  0.01124  1.0000
  H   H112      1.0  0.28667  0.49182  0.04323  1.0000
  H   H113      1.0  0.51556  0.4110599999999999  0.45452  1.0000
  H   H114      1.0  0.86636  0.6376599999999999  0.68187  1.0000
  H   H115      1.0  0.8808400000000001  0.57007  0.60557  1.0000
  H   H116      1.0  0.07141  0.47273  0.68174  1.0000
  H   H117      1.0  0.05375  0.53969  0.75821  1.0000
  H   H118      1.0  0.86545  0.46496999999999994  0.57689  1.0000
  H   H119      1.0  0.02793  0.3829099999999999  0.46944  1.0000
  H   H120      1.0  0.11948  0.4854099999999999  0.59695  1.0000
  H   H121      1.0  0.7917  0.38892  0.55794  1.0000
  H   H122      1.0  0.66906  0.36374  0.50882  1.0000
  H   H123      1.0  0.80616  0.36250999999999994  0.3701099999999999  1.0000
  H   H124      1.0  0.92761  0.3944  0.41766  1.0000
  H   H125      1.0  0.14067  0.33694  0.47604  1.0000
  H   H126      1.0  0.27792  0.32373999999999997  0.4412  1.0000
  H   H127      1.0  0.35092  0.49268999999999996  0.51127  1.0000
  H   H128      1.0  0.21326  0.50822  0.54325  1.0000
  C   C1        1.0  0.4517100000000001  0.63408  0.7303299999999998  1.0000
  C   C2        1.0  0.4592900000000001  0.59285  0.77572  1.0000
  C   C3        1.0  0.4103100000000001  0.60098  0.81876  1.0000
  C   C4        1.0  0.41881  0.5629999999999998  0.8612099999999999  1.0000
  C   C5        1.0  0.47787  0.5169  0.8619  1.0000
  C   C6        1.0  0.52662  0.50898  0.81849  1.0000
  C   C7        1.0  0.51685  0.54606  0.77577  1.0000
  C   C8        1.0  0.49085  0.47843  0.9075999999999997  1.0000
  C   C9        1.0  0.4262400000000001  0.45467  0.93548  1.0000
  C   C10       1.0  0.43847000000000014  0.41891  0.97938  1.0000
  C   C11       1.0  0.51755  0.40882999999999997  0.9957999999999998  1.0000
  C   C12       1.0  0.58346  0.43286  0.9689999999999998  1.0000
  C   C13       1.0  0.56923  0.46671  0.92445  1.0000
  C   C14       1.0  0.36869000000000013  0.39542  0.00832  1.0000
  C   C15       1.0  0.29489  0.38488  0.98352  1.0000
  C   C16       1.0  0.22594  0.37006  0.01092  1.0000
  C   C17       1.0  0.22964000000000007  0.36268  0.06404  1.0000
  C   C18       1.0  0.30385  0.36933  0.08885  1.0000
  C   C19       1.0  0.37207  0.3863  0.06156  1.0000
  C   C20       1.0  0.15737  0.34604  0.09472  1.0000
  C   C21       1.0  0.66616  0.4238  0.98794  1.0000
  C   C22       1.0  0.6859  0.37175  0.01705  1.0000
  C   C23       1.0  0.76271  0.36369999999999997  0.03624  1.0000
  C   C24       1.0  0.82313  0.40699  0.02599  1.0000
  C   C25       1.0  0.8049700000000002  0.45856  0.99633  1.0000
  C   C26       1.0  0.72718  0.46687999999999996  0.97802  1.0000
  C   C27       1.0  0.90229  0.3957  0.048889999999999996  1.0000
  C   C28       1.0  0.04821  0.3657599999999999  0.23032  1.0000
  C   C29       1.0  0.04067  0.40727  0.27553  1.0000
  C   C30       1.0  0.0896  0.39903999999999995  0.3186  1.0000
  C   C31       1.0  0.08111  0.43694  0.36108  1.0000
  C   C32       1.0  0.02209  0.4830599999999999  0.36183999999999994  1.0000
  C   C33       1.0  0.9733200000000001  0.49099999999999994  0.31844  1.0000
  C   C34       1.0  0.9830700000000001  0.4540199999999999  0.27564  1.0000
  C   C35       1.0  0.00914  0.52152  0.40756  1.0000
  C   C36       1.0  0.07373000000000003  0.5453  0.43545999999999996  1.0000
  C   C37       1.0  0.061470000000000004  0.58106  0.47935999999999995  1.0000
  C   C38       1.0  0.98242  0.59116  0.49579  1.0000
  C   C39       1.0  0.9165400000000002  0.56714  0.46898  1.0000
  C   C40       1.0  0.93077  0.53327  0.42443  1.0000
  C   C41       1.0  0.13124  0.60456  0.50829  1.0000
  C   C42       1.0  0.20492  0.61507  0.48337  1.0000
  C   C43       1.0  0.27393  0.62981  0.5107  1.0000
  C   C44       1.0  0.27041  0.63714  0.56379  1.0000
  C   C45       1.0  0.1963  0.63059  0.58877  1.0000
  C   C46       1.0  0.12796000000000005  0.61368  0.56154  1.0000
  C   C47       1.0  0.343  0.65399  0.59402  1.0000
  C   C48       1.0  0.8338600000000003  0.57619  0.48793  1.0000
  C   C49       1.0  0.81412  0.62821  0.51708  1.0000
  C   C50       1.0  0.73729  0.63626  0.53622  1.0000
  C   C51       1.0  0.6768600000000002  0.59307  0.52585  1.0000
  C   C52       1.0  0.69508  0.54141  0.49629  1.0000
  C   C53       1.0  0.7728800000000002  0.53307  0.47802  1.0000
  C   C54       1.0  0.5974700000000002  0.60461  0.54835  1.0000
  C   C55       1.0  0.4517100000000001  0.86591  0.73032  1.0000
  C   C56       1.0  0.4592900000000001  0.90715  0.77572  1.0000
  C   C57       1.0  0.41030000000000005  0.8990099999999999  0.81876  1.0000
  C   C58       1.0  0.41881  0.93699  0.8612099999999999  1.0000
  C   C59       1.0  0.47787  0.9831  0.8619  1.0000
  C   C60       1.0  0.52662  0.9910099999999998  0.81849  1.0000
  C   C61       1.0  0.51685  0.95394  0.77577  1.0000
  C   C62       1.0  0.49085  0.02157  0.9075999999999997  1.0000
  C   C63       1.0  0.4262400000000001  0.045329999999999995  0.93548  1.0000
  C   C64       1.0  0.43847000000000014  0.08109  0.97938  1.0000
  C   C65       1.0  0.51756  0.09116  0.9957999999999998  1.0000
  C   C66       1.0  0.58346  0.06714  0.9689999999999998  1.0000
  C   C67       1.0  0.56923  0.03328999999999999  0.92445  1.0000
  C   C68       1.0  0.36869000000000013  0.10457999999999999  0.00832  1.0000
  C   C69       1.0  0.29489  0.11512  0.98352  1.0000
  C   C70       1.0  0.22594  0.12993  0.01092  1.0000
  C   C71       1.0  0.22964000000000007  0.13732  0.06404  1.0000
  C   C72       1.0  0.30385  0.13067  0.08885  1.0000
  C   C73       1.0  0.37207  0.1137  0.06156  1.0000
  C   C74       1.0  0.15737  0.15396  0.09472  1.0000
  C   C75       1.0  0.66616  0.0762  0.98794  1.0000
  C   C76       1.0  0.6859  0.12825  0.01705  1.0000
  C   C77       1.0  0.76271  0.13629999999999998  0.03624  1.0000
  C   C78       1.0  0.82313  0.09301999999999999  0.02599  1.0000
  C   C79       1.0  0.8049700000000002  0.04144  0.99633  1.0000
  C   C80       1.0  0.72718  0.03312  0.97802  1.0000
  C   C81       1.0  0.90229  0.10431  0.048889999999999996  1.0000
  C   C82       1.0  0.0482  0.13424  0.23032  1.0000
  C   C83       1.0  0.04067  0.09272999999999999  0.27553  1.0000
  C   C84       1.0  0.0896  0.10095999999999998  0.3186  1.0000
  C   C85       1.0  0.08111  0.06306  0.36108  1.0000
  C   C86       1.0  0.02209  0.01694  0.36183999999999994  1.0000
  C   C87       1.0  0.9733200000000001  0.009  0.31844  1.0000
  C   C88       1.0  0.9830700000000001  0.045979999999999986  0.27564  1.0000
  C   C89       1.0  0.00914  0.97848  0.40756  1.0000
  C   C90       1.0  0.07373000000000003  0.9547  0.43545999999999996  1.0000
  C   C91       1.0  0.06146  0.91894  0.47935999999999995  1.0000
  C   C92       1.0  0.98242  0.90884  0.49579  1.0000
  C   C93       1.0  0.9165400000000002  0.9328599999999999  0.46898  1.0000
  C   C94       1.0  0.93077  0.96673  0.42443  1.0000
  C   C95       1.0  0.13123  0.89544  0.50829  1.0000
  C   C96       1.0  0.20492  0.88493  0.48337  1.0000
  C   C97       1.0  0.27393  0.87019  0.5107  1.0000
  C   C98       1.0  0.27041  0.86286  0.56379  1.0000
  C   C99       1.0  0.19629  0.8694099999999999  0.58877  1.0000
  C   C100      1.0  0.12796000000000005  0.88631  0.56154  1.0000
  C   C101      1.0  0.343  0.84601  0.59402  1.0000
  C   C102      1.0  0.8338600000000003  0.9238099999999999  0.48793  1.0000
  C   C103      1.0  0.81412  0.87179  0.51708  1.0000
  C   C104      1.0  0.7373  0.8637299999999999  0.53622  1.0000
  C   C105      1.0  0.6768600000000002  0.9069299999999998  0.52585  1.0000
  C   C106      1.0  0.69508  0.9585899999999999  0.4963  1.0000
  C   C107      1.0  0.7728800000000002  0.9669299999999998  0.47802  1.0000
  C   C108      1.0  0.5974700000000002  0.89538  0.54834  1.0000
  C   C109      1.0  0.54828  0.13408  0.26968  1.0000
  C   C110      1.0  0.54071  0.09284999999999999  0.22428  1.0000
  C   C111      1.0  0.58969  0.10097999999999999  0.18124  1.0000
  C   C112      1.0  0.58118  0.06301  0.13879  1.0000
  C   C113      1.0  0.52213  0.0169  0.1381  1.0000
  C   C114      1.0  0.47337  0.00898  0.18151  1.0000
  C   C115      1.0  0.48314000000000007  0.04606  0.22422999999999998  1.0000
  C   C116      1.0  0.5091500000000002  0.97843  0.09239999999999998  1.0000
  C   C117      1.0  0.57376  0.95467  0.06452  1.0000
  C   C118      1.0  0.56152  0.91891  0.02063  1.0000
  C   C119      1.0  0.48244000000000004  0.9088299999999999  0.0042  1.0000
  C   C120      1.0  0.41653  0.9328599999999999  0.031  1.0000
  C   C121      1.0  0.4307600000000001  0.96671  0.07555  1.0000
  C   C122      1.0  0.6313000000000002  0.89542  0.9916799999999999  1.0000
  C   C123      1.0  0.7051000000000002  0.8848799999999999  0.01648  1.0000
  C   C124      1.0  0.7740600000000002  0.87006  0.98908  1.0000
  C   C125      1.0  0.77036  0.8626799999999999  0.9359599999999999  1.0000
  C   C126      1.0  0.6961500000000003  0.8693299999999998  0.91115  1.0000
  C   C127      1.0  0.62792  0.8862999999999999  0.9384399999999998  1.0000
  C   C128      1.0  0.8426200000000003  0.84604  0.90528  1.0000
  C   C129      1.0  0.33384000000000014  0.9237999999999997  0.01206  1.0000
  C   C130      1.0  0.31409  0.8717499999999999  0.98295  1.0000
  C   C131      1.0  0.23728000000000005  0.8637  0.96376  1.0000
  C   C132      1.0  0.17686  0.90698  0.97401  1.0000
  C   C133      1.0  0.19502  0.9585499999999999  0.00367  1.0000
  C   C134      1.0  0.27281  0.96688  0.021979999999999996  1.0000
  C   C135      1.0  0.09771  0.89569  0.95111  1.0000
  C   C136      1.0  0.9517900000000002  0.8657599999999999  0.76969  1.0000
  C   C137      1.0  0.95933  0.90727  0.7244699999999998  1.0000
  C   C138      1.0  0.91039  0.89904  0.6813999999999999  1.0000
  C   C139      1.0  0.9188900000000001  0.9369399999999999  0.63892  1.0000
  C   C140      1.0  0.9779100000000001  0.9830599999999999  0.63816  1.0000
  C   C141      1.0  0.02667  0.991  0.68156  1.0000
  C   C142      1.0  0.01693  0.9540199999999998  0.72436  1.0000
  C   C143      1.0  0.99086  0.02152  0.59244  1.0000
  C   C144      1.0  0.9262600000000002  0.0453  0.56454  1.0000
  C   C145      1.0  0.93853  0.08105999999999998  0.52064  1.0000
  C   C146      1.0  0.01758  0.09116  0.50421  1.0000
  C   C147      1.0  0.08346000000000003  0.06714  0.53102  1.0000
  C   C148      1.0  0.06922000000000003  0.03327  0.57557  1.0000
  C   C149      1.0  0.86876  0.10456  0.49172  1.0000
  C   C150      1.0  0.7950700000000002  0.11507  0.51663  1.0000
  C   C151      1.0  0.72607  0.12981  0.4893  1.0000
  C   C152      1.0  0.7295900000000002  0.13714  0.43622  1.0000
  C   C153      1.0  0.8037  0.13059  0.41123  1.0000
  C   C154      1.0  0.87203  0.11368  0.43847  1.0000
  C   C155      1.0  0.657  0.15399  0.40597999999999995  1.0000
  C   C156      1.0  0.16614  0.07619  0.51207  1.0000
  C   C157      1.0  0.18587  0.12820999999999996  0.48292  1.0000
  C   C158      1.0  0.2627  0.13626  0.46378  1.0000
  C   C159      1.0  0.32314000000000004  0.09306999999999999  0.47416  1.0000
  C   C160      1.0  0.30491  0.041409999999999995  0.5037  1.0000
  C   C161      1.0  0.22712  0.03307  0.52198  1.0000
  C   C162      1.0  0.4025200000000001  0.10461  0.45166  1.0000
  C   C163      1.0  0.54828  0.36592  0.26968  1.0000
  C   C164      1.0  0.54071  0.40714999999999996  0.22428  1.0000
  C   C165      1.0  0.58969  0.3990099999999999  0.18124  1.0000
  C   C166      1.0  0.58118  0.43699  0.13879  1.0000
  C   C167      1.0  0.52213  0.4830999999999999  0.1381  1.0000
  C   C168      1.0  0.47337  0.49100999999999995  0.18151  1.0000
  C   C169      1.0  0.48314000000000007  0.45394  0.22422999999999998  1.0000
  C   C170      1.0  0.5091500000000002  0.52157  0.09239999999999998  1.0000
  C   C171      1.0  0.57376  0.54533  0.06452  1.0000
  C   C172      1.0  0.56152  0.58109  0.02063  1.0000
  C   C173      1.0  0.48244000000000004  0.59116  0.0042  1.0000
  C   C174      1.0  0.41654  0.56714  0.031  1.0000
  C   C175      1.0  0.4307600000000001  0.53329  0.07555  1.0000
  C   C176      1.0  0.63131  0.60457  0.9916799999999999  1.0000
  C   C177      1.0  0.70511  0.6151199999999999  0.01648  1.0000
  C   C178      1.0  0.7740600000000002  0.62993  0.98908  1.0000
  C   C179      1.0  0.77036  0.63732  0.9359599999999999  1.0000
  C   C180      1.0  0.6961500000000003  0.63066  0.91115  1.0000
  C   C181      1.0  0.62792  0.61369  0.9384399999999998  1.0000
  C   C182      1.0  0.8426200000000003  0.65396  0.90528  1.0000
  C   C183      1.0  0.33384000000000014  0.5762  0.01206  1.0000
  C   C184      1.0  0.31409  0.62825  0.98295  1.0000
  C   C185      1.0  0.23728000000000005  0.6362899999999999  0.9637699999999998  1.0000
  C   C186      1.0  0.17686  0.59301  0.97401  1.0000
  C   C187      1.0  0.19503  0.54144  0.00367  1.0000
  C   C188      1.0  0.27281  0.53312  0.021979999999999996  1.0000
  C   C189      1.0  0.09771  0.6043  0.95111  1.0000
  C   C190      1.0  0.9517900000000002  0.63423  0.76969  1.0000
  C   C191      1.0  0.95933  0.59273  0.7244699999999998  1.0000
  C   C192      1.0  0.91039  0.60096  0.6813999999999999  1.0000
  C   C193      1.0  0.9188900000000001  0.56306  0.63892  1.0000
  C   C194      1.0  0.9779100000000001  0.51694  0.63816  1.0000
  C   C195      1.0  0.02667  0.509  0.68156  1.0000
  C   C196      1.0  0.01693  0.54598  0.72436  1.0000
  C   C197      1.0  0.99086  0.47847999999999996  0.59244  1.0000
  C   C198      1.0  0.9262600000000002  0.4547  0.56454  1.0000
  C   C199      1.0  0.93853  0.4189399999999999  0.52064  1.0000
  C   C200      1.0  0.01758  0.40884  0.50421  1.0000
  C   C201      1.0  0.08346000000000003  0.43286  0.53102  1.0000
  C   C202      1.0  0.06922000000000003  0.46673  0.57557  1.0000
  C   C203      1.0  0.86876  0.39544  0.49172  1.0000
  C   C204      1.0  0.7950700000000002  0.38493  0.51663  1.0000
  C   C205      1.0  0.72607  0.37018999999999996  0.4893  1.0000
  C   C206      1.0  0.72958  0.36286  0.43621  1.0000
  C   C207      1.0  0.8037  0.36941  0.41123  1.0000
  C   C208      1.0  0.87203  0.38632  0.43847  1.0000
  C   C209      1.0  0.657  0.34601  0.40597999999999995  1.0000
  C   C210      1.0  0.16614  0.42381  0.51207  1.0000
  C   C211      1.0  0.18587  0.37179  0.48292  1.0000
  C   C212      1.0  0.2627  0.36373  0.46378  1.0000
  C   C213      1.0  0.32314000000000004  0.40692999999999996  0.47416  1.0000
  C   C214      1.0  0.30491  0.45859  0.50371  1.0000
  C   C215      1.0  0.22712  0.46693  0.52198  1.0000
  C   C216      1.0  0.4025200000000001  0.39539  0.4516499999999999  1.0000
  O   O1        1.0  0.4076300000000001  0.68129  0.73532  1.0000
  O   O2        1.0  0.49161  0.61813  0.69053  1.0000
  O   O3        1.0  0.08722  0.36364  0.07773  1.0000
  O   O4        1.0  0.16734  0.31591  0.1351  1.0000
  O   O5        1.0  0.90823  0.35735  0.08404  1.0000
  O   O6        1.0  0.96467  0.42701  0.0306  1.0000
  O   O7        1.0  0.09135  0.31818  0.23605  1.0000
  O   O8        1.0  0.00926  0.38177  0.19007999999999997  1.0000
  O   O9        1.0  0.41314000000000006  0.63657  0.57683  1.0000
  O   O10       1.0  0.3331  0.68427  0.63427  1.0000
  O   O11       1.0  0.59125  0.64266  0.58375  1.0000
  O   O12       1.0  0.53534  0.5734  0.52951  1.0000
  O   O13       1.0  0.4076300000000001  0.8187099999999999  0.73532  1.0000
  O   O14       1.0  0.49161  0.8818699999999998  0.69053  1.0000
  O   O15       1.0  0.08722  0.13636  0.07773  1.0000
  O   O16       1.0  0.16734  0.18409  0.1351  1.0000
  O   O17       1.0  0.90823  0.14266999999999996  0.08403  1.0000
  O   O18       1.0  0.96466  0.07299  0.0306  1.0000
  O   O19       1.0  0.09135  0.18181  0.23605  1.0000
  O   O20       1.0  0.00926  0.11822999999999999  0.19007999999999997  1.0000
  O   O21       1.0  0.41314000000000006  0.86343  0.57683  1.0000
  O   O22       1.0  0.3331  0.8157199999999999  0.63427  1.0000
  O   O23       1.0  0.59125  0.8573  0.58372  1.0000
  O   O24       1.0  0.53534  0.9266  0.52951  1.0000
  O   O25       1.0  0.50424  0.75  0.6472799999999999  1.0000
  O   O26       1.0  0.99625  0.25  0.14609  1.0000
  O   O27       1.0  0.59236  0.18129  0.26468  1.0000
  O   O28       1.0  0.50838  0.11813  0.30946999999999997  1.0000
  O   O29       1.0  0.91277  0.86364  0.92227  1.0000
  O   O30       1.0  0.83266  0.8159099999999999  0.8649  1.0000
  O   O31       1.0  0.09176  0.8573299999999999  0.91597  1.0000
  O   O32       1.0  0.03533  0.9270099999999999  0.9694  1.0000
  O   O33       1.0  0.9086400000000002  0.81818  0.76395  1.0000
  O   O34       1.0  0.99073  0.88177  0.8099199999999999  1.0000
  O   O35       1.0  0.5868500000000002  0.13657  0.42316999999999994  1.0000
  O   O36       1.0  0.6668900000000002  0.18426999999999996  0.36573  1.0000
  O   O37       1.0  0.40875  0.1427  0.41628  1.0000
  O   O38       1.0  0.46466000000000013  0.0734  0.47049  1.0000
  O   O39       1.0  0.5923700000000001  0.31871  0.26468  1.0000
  O   O40       1.0  0.50838  0.38187  0.30946999999999997  1.0000
  O   O41       1.0  0.91277  0.63635  0.92227  1.0000
  O   O42       1.0  0.83266  0.68408  0.8649  1.0000
  O   O43       1.0  0.09176  0.64265  0.91596  1.0000
  O   O44       1.0  0.03533  0.57299  0.9694  1.0000
  O   O45       1.0  0.9086400000000002  0.6818099999999999  0.76395  1.0000
  O   O46       1.0  0.99073  0.61823  0.8099199999999999  1.0000
  O   O47       1.0  0.5868500000000002  0.36343  0.42316999999999994  1.0000
  O   O48       1.0  0.6668900000000002  0.31572  0.36573  1.0000
  O   O49       1.0  0.40874  0.35733  0.41624999999999995  1.0000
  O   O50       1.0  0.46466000000000013  0.4265999999999999  0.47049  1.0000
  O   O51       1.0  0.4957500000000001  0.25  0.3527199999999999  1.0000
  O   O52       1.0  0.0037500000000000003  0.75  0.85391  1.0000
