data_image0
_chemical_formula_structural       Sr10H136C216O56
_chemical_formula_sum              "Sr10 H136 C216 O56"
_cell_length_a       18.28108
_cell_length_b       18.3819
_cell_length_c       29.999679999999998
_cell_angle_alpha    84.97108
_cell_angle_beta     79.70144
_cell_angle_gamma    60.150580000000005

_symmetry_space_group_name_H-M    'P 1'
_symmetry_Int_Tables_number       1

loop_
  _symmetry_equiv_pos_as_xyz
  'x,y,z'

loop_
  _atom_site_type_symbol
  _atom_site_label
  _atom_site_symmetry_multiplicity
  _atom_site_fract_x
  _atom_site_fract_y
  _atom_site_fract_z
  _atom_site_occupancy
  Sr  Sr1       1.0  0.052770000000000046  0.29433  0.5775699999999998  1.0000
  Sr  Sr2       1.0  0.10994000000000001  0.08093  0.52818  1.0000
  Sr  Sr3       1.0  0.6538099999999998  0.29376000000000013  0.9226  1.0000
  Sr  Sr4       1.0  0.8094299999999999  0.08086000000000003  0.97158  1.0000
  Sr  Sr5       1.0  0.9472300000000002  0.70596  0.42193  1.0000
  Sr  Sr6       1.0  0.8901300000000001  0.9193200000000002  0.47174  1.0000
  Sr  Sr7       1.0  0.34652999999999984  0.7057100000000002  0.07745  1.0000
  Sr  Sr8       1.0  0.19058999999999993  0.91906  0.02843  1.0000
  Sr  Sr9       1.0  0.9998499999999999  0.4997300000000001  0.49938  1.0000
  Sr  Sr10      1.0  0.4999800000000001  0.50023  6e-05  1.0000
  H   H1        1.0  0.04975  0.026320000000000007  0.62672  1.0000
  H   H2        1.0  0.1467599999999999  0.9902200000000002  0.62354  1.0000
  H   H3        1.0  0.08388999999999996  0.91509  0.4993  1.0000
  H   H4        1.0  0.09669000000000003  0.92217  0.54867  1.0000
  H   H5        1.0  0.03502999999999996  0.3975900000000001  0.40546  1.0000
  H   H6        1.0  0.09390999999999998  0.38007  0.32349  1.0000
  H   H7        1.0  0.27081  0.1205  0.34598  1.0000
  H   H8        1.0  0.21313  0.13861000000000007  0.4283299999999999  1.0000
  H   H9        1.0  0.23268999999999995  0.3463100000000001  0.27142  1.0000
  H   H10       1.0  0.29999  0.20097000000000007  0.15055  1.0000
  H   H11       1.0  0.21201999999999993  0.12344  0.2785  1.0000
  H   H12       1.0  0.24371999999999996  0.13650000000000007  0.12443  1.0000
  H   H13       1.0  0.29852999999999996  0.9995700000000001  0.24965  1.0000
  H   H14       1.0  0.31299  0.87516  0.21348  1.0000
  H   H15       1.0  0.20609999999999995  0.44712000000000013  0.22555  1.0000
  H   H16       1.0  0.37812  0.2526800000000001  0.12754  1.0000
  H   H17       1.0  0.41067  0.35441  0.08184  1.0000
  H   H18       1.0  0.17704  0.50424  0.51466  1.0000
  H   H19       1.0  0.3028100000000001  0.30871  0.60867  1.0000
  H   H20       1.0  0.24435  0.54655  0.18041  1.0000
  H   H21       1.0  0.26661  0.009330000000000003  0.08827  1.0000
  H   H22       1.0  0.7926700000000002  0.19002  0.52355  1.0000
  H   H23       1.0  0.6408399999999999  0.29598000000000013  0.52937  1.0000
  H   H24       1.0  0.6856900000000001  0.46348  0.5981  1.0000
  H   H25       1.0  0.8382999999999999  0.35544  0.5929  1.0000
  H   H26       1.0  0.5172  0.3630600000000001  0.57029  1.0000
  H   H27       1.0  0.3265899999999999  0.6184900000000002  0.55193  1.0000
  H   H28       1.0  0.5859299999999998  0.5570899999999999  0.555  1.0000
  H   H29       1.0  0.2811399999999999  0.5529100000000002  0.51445  1.0000
  H   H30       1.0  0.4059599999999999  0.3595600000000001  0.6104799999999999  1.0000
  H   H31       1.0  0.2508299999999999  0.8816700000000002  0.55474  1.0000
  H   H32       1.0  0.2994999999999999  0.7355600000000002  0.58086  1.0000
  H   H33       1.0  0.5502399999999997  0.6613300000000002  0.50516  1.0000
  H   H34       1.0  0.50137  0.80922  0.4811  1.0000
  H   H35       1.0  0.92482  0.02585000000000001  0.87333  1.0000
  H   H36       1.0  0.86345  0.99047  0.87604  1.0000
  H   H37       1.0  0.0015199999999998307  0.9147100000000002  0.0006  1.0000
  H   H38       1.0  0.9811499999999999  0.9217000000000002  0.95132  1.0000
  H   H39       1.0  0.56645  0.39805  0.09482  1.0000
  H   H40       1.0  0.5259699999999999  0.37996000000000013  0.1768  1.0000
  H   H41       1.0  0.60924  0.12040000000000002  0.15359  1.0000
  H   H42       1.0  0.64821  0.13905000000000006  0.07128  1.0000
  H   H43       1.0  0.4211599999999999  0.3466200000000001  0.22838999999999995  1.0000
  H   H44       1.0  0.4984700000000001  0.20185  0.34929  1.0000
  H   H45       1.0  0.66479  0.12347000000000002  0.22144  1.0000
  H   H46       1.0  0.61925  0.13717  0.37546  1.0000
  H   H47       1.0  0.7017799999999998  0.9998300000000001  0.25012  1.0000
  H   H48       1.0  0.81161  0.8754900000000002  0.28626  1.0000
  H   H49       1.0  0.34595999999999993  0.4475600000000001  0.27397  1.0000
  H   H50       1.0  0.36862000000000006  0.25361  0.37212  1.0000
  H   H51       1.0  0.23410999999999998  0.35588  0.41794  1.0000
  H   H52       1.0  0.3207900000000001  0.50272  0.98471  1.0000
  H   H53       1.0  0.38958  0.30686  0.89095  1.0000
  H   H54       1.0  0.20811999999999992  0.5472800000000002  0.31941  1.0000
  H   H55       1.0  0.72356  0.00999  0.41156  1.0000
  H   H56       1.0  0.017749999999999995  0.18991000000000005  0.97652  1.0000
  H   H57       1.0  0.06357999999999993  0.29582  0.9708  1.0000
  H   H58       1.0  0.85115  0.4632300000000001  0.9021799999999998  1.0000
  H   H59       1.0  0.8066599999999999  0.3552500000000001  0.90727  1.0000
  H   H60       1.0  0.12048999999999994  0.3623  0.92995  1.0000
  H   H61       1.0  0.055879999999999985  0.6178  0.94808  1.0000
  H   H62       1.0  0.85772  0.55682  0.9449899999999998  1.0000
  H   H63       1.0  0.1678099999999999  0.5516400000000002  0.9855999999999999  1.0000
  H   H64       1.0  0.23544999999999996  0.3579700000000001  0.88959  1.0000
  H   H65       1.0  0.8680599999999998  0.8811500000000002  0.94497  1.0000
  H   H66       1.0  0.96554  0.7348  0.91887  1.0000
  H   H67       1.0  0.7886999999999997  0.66143  0.99478  1.0000
  H   H68       1.0  0.6898100000000001  0.80945  0.01887  1.0000
  H   H69       1.0  0.95028  0.9738200000000002  0.37325  1.0000
  H   H70       1.0  0.8533  0.009760000000000003  0.37645  1.0000
  H   H71       1.0  0.9162000000000001  0.085  0.5007  1.0000
  H   H72       1.0  0.90326  0.07807000000000003  0.45136  1.0000
  H   H73       1.0  0.96435  0.6016800000000002  0.59371  1.0000
  H   H74       1.0  0.90698  0.61919  0.6757999999999997  1.0000
  H   H75       1.0  0.7300499999999998  0.8790500000000002  0.65371  1.0000
  H   H76       1.0  0.7868299999999999  0.8609200000000002  0.57128  1.0000
  H   H77       1.0  0.76789  0.6533  0.72824  1.0000
  H   H78       1.0  0.70021  0.79893  0.84903  1.0000
  H   H79       1.0  0.7886599999999999  0.8761600000000003  0.7211299999999999  1.0000
  H   H80       1.0  0.7565099999999999  0.8631900000000002  0.87525  1.0000
  H   H81       1.0  0.70171  0.00041000000000000037  0.75007  1.0000
  H   H82       1.0  0.6870199999999999  0.12479  0.78642  1.0000
  H   H83       1.0  0.7939799999999999  0.5525700000000002  0.77423  1.0000
  H   H84       1.0  0.6220499999999998  0.7472000000000002  0.87212  1.0000
  H   H85       1.0  0.5896799999999999  0.6455500000000002  0.91795  1.0000
  H   H86       1.0  0.8233900000000001  0.49586000000000013  0.48457  1.0000
  H   H87       1.0  0.6964899999999999  0.69173  0.3909499999999999  1.0000
  H   H88       1.0  0.7560999999999999  0.4531300000000001  0.81955  1.0000
  H   H89       1.0  0.7334299999999998  0.9903300000000003  0.91151  1.0000
  H   H90       1.0  0.20721999999999988  0.8100200000000002  0.4765  1.0000
  H   H91       1.0  0.3590299999999999  0.7040700000000002  0.47072  1.0000
  H   H92       1.0  0.31428999999999996  0.5365700000000002  0.40192999999999995  1.0000
  H   H93       1.0  0.16165000000000004  0.6446  0.4070999999999999  1.0000
  H   H94       1.0  0.48268  0.63707  0.42972  1.0000
  H   H95       1.0  0.67341  0.38171  0.44815  1.0000
  H   H96       1.0  0.41414000000000006  0.44292  0.44503  1.0000
  H   H97       1.0  0.7190599999999999  0.4472800000000001  0.48527  1.0000
  H   H98       1.0  0.5933399999999999  0.64072  0.38947  1.0000
  H   H99       1.0  0.7491599999999999  0.11838000000000003  0.44523  1.0000
  H   H100      1.0  0.70056  0.2645300000000001  0.41922  1.0000
  H   H101      1.0  0.44980999999999993  0.3387700000000001  0.4949  1.0000
  H   H102      1.0  0.49859  0.19086000000000006  0.51888  1.0000
  H   H103      1.0  0.07522999999999982  0.9741300000000003  0.12668  1.0000
  H   H104      1.0  0.13659  0.00955  0.12395  1.0000
  H   H105      1.0  0.9984999999999998  0.08527000000000003  0.99941  1.0000
  H   H106      1.0  0.018879999999999997  0.07828  0.0487  1.0000
  H   H107      1.0  0.4337399999999999  0.60192  0.90513  1.0000
  H   H108      1.0  0.4741999999999999  0.6199000000000002  0.82315  1.0000
  H   H109      1.0  0.3909299999999998  0.8794600000000002  0.84627  1.0000
  H   H110      1.0  0.3517999999999999  0.8609700000000002  0.92858  1.0000
  H   H111      1.0  0.57898  0.6533500000000002  0.77142  1.0000
  H   H112      1.0  0.5014999999999998  0.79828  0.6506  1.0000
  H   H113      1.0  0.3353599999999998  0.8765600000000002  0.77853  1.0000
  H   H114      1.0  0.3807599999999999  0.8630200000000002  0.62437  1.0000
  H   H115      1.0  0.2982199999999999  0.0002399999999999996  0.74973  1.0000
  H   H116      1.0  0.1883  0.12453000000000003  0.7136999999999998  1.0000
  H   H117      1.0  0.65405  0.55267  0.72577  1.0000
  H   H118      1.0  0.6312900000000001  0.74651  0.6276399999999999  1.0000
  H   H119      1.0  0.7655999999999997  0.6444500000000002  0.58173  1.0000
  H   H120      1.0  0.6792299999999999  0.4972200000000001  0.015339999999999996  1.0000
  H   H121      1.0  0.6104899999999999  0.6931100000000002  0.10911  1.0000
  H   H122      1.0  0.7918299999999999  0.45290000000000014  0.68042  1.0000
  H   H123      1.0  0.2764  0.9901200000000002  0.58832  1.0000
  H   H124      1.0  0.98236  0.81001  0.02354  1.0000
  H   H125      1.0  0.93649  0.7041200000000002  0.029229999999999992  1.0000
  H   H126      1.0  0.14889999999999998  0.53661  0.09783  1.0000
  H   H127      1.0  0.19348  0.64454  0.09274  1.0000
  H   H128      1.0  0.8795799999999999  0.63769  0.07001  1.0000
  H   H129      1.0  0.9441099999999999  0.38222  0.05187  1.0000
  H   H130      1.0  0.14229999999999993  0.4431100000000001  0.05503  1.0000
  H   H131      1.0  0.83221  0.44829  0.01453  1.0000
  H   H132      1.0  0.7646099999999998  0.6419600000000002  0.11047  1.0000
  H   H133      1.0  0.13194999999999998  0.11883000000000003  0.05502  1.0000
  H   H134      1.0  0.03443999999999994  0.26518000000000014  0.08112  1.0000
  H   H135      1.0  0.21127999999999988  0.33856000000000014  0.00522  1.0000
  H   H136      1.0  0.31019999999999986  0.19054000000000004  0.98113  1.0000
  C   C1        1.0  0.08517000000000001  0.27768  0.47159  1.0000
  C   C2        1.0  0.11954999999999999  0.26881  0.4221  1.0000
  C   C3        1.0  0.08707999999999995  0.3370700000000001  0.39245  1.0000
  C   C4        1.0  0.12021000000000003  0.32726  0.34642  1.0000
  C   C5        1.0  0.18586999999999998  0.24888000000000005  0.32899  1.0000
  C   C6        1.0  0.21864000000000003  0.18093  0.35898  1.0000
  C   C7        1.0  0.18628000000000003  0.19075  0.40501  1.0000
  C   C8        1.0  0.21866  0.23655  0.27993  1.0000
  C   C9        1.0  0.23794  0.29387000000000013  0.25419  1.0000
  C   C10       1.0  0.26767999999999975  0.28188  0.20724999999999993  1.0000
  C   C11       1.0  0.27751999999999993  0.21084000000000006  0.18674  1.0000
  C   C12       1.0  0.25921  0.15217000000000006  0.21177999999999994  1.0000
  C   C13       1.0  0.22981000000000004  0.16609  0.2585  1.0000
  C   C14       1.0  0.26914000000000005  0.07794  0.19003  1.0000
  C   C15       1.0  0.25989  0.07958  0.14431  1.0000
  C   C16       1.0  0.28862  0.003150000000000001  0.21466  1.0000
  C   C17       1.0  0.2975299999999999  0.9330700000000002  0.19468  1.0000
  C   C18       1.0  0.28903  0.34181  0.1802  1.0000
  C   C19       1.0  0.25217000000000006  0.42572  0.19456  1.0000
  C   C20       1.0  0.34674  0.31726  0.13911  1.0000
  C   C21       1.0  0.36612  0.37392  0.11341  1.0000
  C   C22       1.0  0.17056999999999992  0.37302000000000013  0.56407  1.0000
  C   C23       1.0  0.2329599999999999  0.4038100000000001  0.5624  1.0000
  C   C24       1.0  0.22670000000000007  0.47306  0.53594  1.0000
  C   C25       1.0  0.2988599999999999  0.3624600000000001  0.58864  1.0000
  C   C26       1.0  0.35081  0.51818  0.1005  1.0000
  C   C27       1.0  0.3296599999999999  0.4569800000000001  0.12821  1.0000
  C   C28       1.0  0.27261  0.48207  0.16918999999999995  1.0000
  C   C29       1.0  0.29800999999999983  0.8600200000000002  0.12717  1.0000
  C   C30       1.0  0.28825  0.93532  0.14908  1.0000
  C   C31       1.0  0.27034  0.008940000000000003  0.12409  1.0000
  C   C32       1.0  0.91952  0.20376000000000005  0.55162  1.0000
  C   C33       1.0  0.82635  0.26640000000000014  0.55695  1.0000
  C   C34       1.0  0.7695199999999999  0.24969000000000005  0.53994  1.0000
  C   C35       1.0  0.6834899999999998  0.3095000000000001  0.54356  1.0000
  C   C36       1.0  0.6519300000000001  0.38826  0.5634799999999998  1.0000
  C   C37       1.0  0.7088499999999999  0.4040200000000001  0.58137  1.0000
  C   C38       1.0  0.7947599999999999  0.34355000000000013  0.57846  1.0000
  C   C39       1.0  0.5617299999999998  0.45279000000000014  0.56344  1.0000
  C   C40       1.0  0.49899999999999994  0.42903000000000013  0.5663  1.0000
  C   C41       1.0  0.41386000000000006  0.48803000000000013  0.5623399999999998  1.0000
  C   C42       1.0  0.3917699999999999  0.5725800000000002  0.55615  1.0000
  C   C43       1.0  0.45284000000000013  0.59856  0.5538399999999999  1.0000
  C   C44       1.0  0.5377399999999999  0.53796  0.55766  1.0000
  C   C45       1.0  0.35078  0.46021  0.56281  1.0000
  C   C46       1.0  0.28509000000000007  0.50073  0.53608  1.0000
  C   C47       1.0  0.3566099999999999  0.3905500000000001  0.58906  1.0000
  C   C48       1.0  0.34045999999999993  0.9423300000000002  0.49787999999999993  1.0000
  C   C49       1.0  0.37258  0.8545100000000002  0.51568  1.0000
  C   C50       1.0  0.3165999999999998  0.8333500000000003  0.54463  1.0000
  C   C51       1.0  0.3438299999999999  0.75112  0.55878  1.0000
  C   C52       1.0  0.4280300000000001  0.68716  0.54425  1.0000
  C   C53       1.0  0.4852099999999999  0.7096600000000002  0.51714  1.0000
  C   C54       1.0  0.45785999999999993  0.7921800000000002  0.50296  1.0000
  C   C55       1.0  0.63652  0.27828  0.02838  1.0000
  C   C56       1.0  0.61111  0.2692600000000001  0.07784  1.0000
  C   C57       1.0  0.57527  0.3374300000000001  0.10766  1.0000
  C   C58       1.0  0.55242  0.3273100000000001  0.15369  1.0000
  C   C59       1.0  0.56548  0.24884000000000006  0.17091999999999993  1.0000
  C   C60       1.0  0.60067  0.18096  0.14078  1.0000
  C   C61       1.0  0.62285  0.19108000000000006  0.09474999999999997  1.0000
  C   C62       1.0  0.5449599999999999  0.23666000000000006  0.21994  1.0000
  C   C63       1.0  0.46820999999999996  0.29419  0.24564  1.0000
  C   C64       1.0  0.45018  0.28246  0.29256  1.0000
  C   C65       1.0  0.51128  0.21147000000000005  0.31311  1.0000
  C   C66       1.0  0.58839  0.15264000000000005  0.28809  1.0000
  C   C67       1.0  0.6041899999999999  0.16629000000000005  0.24138  1.0000
  C   C68       1.0  0.65261  0.07843000000000003  0.30983  1.0000
  C   C69       1.0  0.6601  0.08015  0.35556  1.0000
  C   C70       1.0  0.70797  0.00355  0.28513  1.0000
  C   C71       1.0  0.7691299999999998  0.9335300000000002  0.30506  1.0000
  C   C72       1.0  0.3687499999999999  0.34258  0.31956  1.0000
  C   C73       1.0  0.32157999999999987  0.42637000000000014  0.3051  1.0000
  C   C74       1.0  0.3355  0.31822  0.36065  1.0000
  C   C75       1.0  0.25938  0.37504  0.38636  1.0000
  C   C76       1.0  0.45812999999999987  0.3712  0.93529  1.0000
  C   C77       1.0  0.3648099999999999  0.40222000000000013  0.93706  1.0000
  C   C78       1.0  0.30196  0.4716100000000001  0.96359  1.0000
  C   C79       1.0  0.33992  0.36083  0.9110199999999998  1.0000
  C   C80       1.0  0.13018  0.51929  0.39895999999999987  1.0000
  C   C81       1.0  0.21284000000000003  0.45794  0.3715  1.0000
  C   C82       1.0  0.24472999999999995  0.48282  0.3304999999999999  1.0000
  C   C83       1.0  0.8419899999999999  0.8605800000000002  0.37235  1.0000
  C   C84       1.0  0.7762299999999999  0.9358800000000003  0.35062  1.0000
  C   C85       1.0  0.72033  0.009540000000000003  0.37573  1.0000
  C   C86       1.0  0.8774300000000002  0.20354000000000005  0.94829  1.0000
  C   C87       1.0  0.9078000000000002  0.26622  0.94312  1.0000
  C   C88       1.0  0.9812999999999998  0.24953  0.96015  1.0000
  C   C89       1.0  0.007480000000000096  0.30932  0.9565499999999998  1.0000
  C   C90       1.0  0.9603499999999999  0.3879800000000001  0.93663  1.0000
  C   C91       1.0  0.8875799999999997  0.40376  0.9188  1.0000
  C   C92       1.0  0.8621799999999998  0.3433100000000001  0.92166  1.0000
  C   C93       1.0  0.98621  0.45234000000000013  0.9366599999999999  1.0000
  C   C94       1.0  0.07279000000000004  0.4283500000000001  0.9338699999999998  1.0000
  C   C95       1.0  0.09906999999999996  0.4872400000000001  0.93777  1.0000
  C   C96       1.0  0.03657000000000005  0.57192  0.94391  1.0000
  C   C97       1.0  0.94942  0.5981100000000003  0.9462  1.0000
  C   C98       1.0  0.9250799999999997  0.5375800000000002  0.9424  1.0000
  C   C99       1.0  0.19016999999999995  0.4590800000000001  0.93716  1.0000
  C   C100      1.0  0.2157399999999999  0.4995  0.96375  1.0000
  C   C101      1.0  0.25391999999999987  0.3891700000000001  0.9108399999999999  1.0000
  C   C102      1.0  0.7176499999999998  0.9423600000000002  0.00205  1.0000
  C   C103      1.0  0.7734299999999998  0.8544000000000003  0.98425  1.0000
  C   C104      1.0  0.8505899999999996  0.8329600000000003  0.95521  1.0000
  C   C105      1.0  0.9056399999999999  0.7506300000000002  0.9410499999999998  1.0000
  C   C106      1.0  0.8854400000000001  0.6868  0.95569  1.0000
  C   C107      1.0  0.8056300000000002  0.70955  0.98282  1.0000
  C   C108      1.0  0.7504399999999999  0.7921800000000002  0.997  1.0000
  C   C109      1.0  0.9133899999999999  0.7222900000000002  0.52765  1.0000
  C   C110      1.0  0.87991  0.73055  0.57725  1.0000
  C   C111      1.0  0.9126499999999999  0.6622700000000002  0.60684  1.0000
  C   C112      1.0  0.88029  0.6721300000000002  0.65299  1.0000
  C   C113      1.0  0.8149  0.7505400000000002  0.6706  1.0000
  C   C114      1.0  0.7819499999999999  0.8185500000000002  0.64065  1.0000
  C   C115      1.0  0.8137199999999999  0.8087200000000002  0.5945499999999999  1.0000
  C   C116      1.0  0.7821799999999999  0.7629200000000003  0.7197  1.0000
  C   C117      1.0  0.7626599999999998  0.7057400000000003  0.74545  1.0000
  C   C118      1.0  0.7326699999999999  0.7178400000000003  0.79238  1.0000
  C   C119      1.0  0.72283  0.78893  0.81287  1.0000
  C   C120      1.0  0.7412499999999999  0.84753  0.78783  1.0000
  C   C121      1.0  0.7708799999999998  0.8334900000000002  0.74111  1.0000
  C   C122      1.0  0.7311899999999999  0.9218200000000002  0.80963  1.0000
  C   C123      1.0  0.7403199999999999  0.92013  0.85538  1.0000
  C   C124      1.0  0.7115999999999998  0.9967100000000002  0.78507  1.0000
  C   C125      1.0  0.7025499999999999  0.06678000000000003  0.80514  1.0000
  C   C126      1.0  0.71115  0.658  0.81947  1.0000
  C   C127      1.0  0.74794  0.57404  0.80522  1.0000
  C   C128      1.0  0.65343  0.68261  0.86056  1.0000
  C   C129      1.0  0.6341699999999999  0.62596  0.88636  1.0000
  C   C130      1.0  0.8297299999999999  0.6267600000000002  0.43501  1.0000
  C   C131      1.0  0.7669899999999998  0.59634  0.43694999999999995  1.0000
  C   C132      1.0  0.77343  0.52711  0.4634799999999999  1.0000
  C   C133      1.0  0.70069  0.63789  0.41098  1.0000
  C   C134      1.0  0.6502399999999999  0.4814700000000001  0.8998  1.0000
  C   C135      1.0  0.6708399999999999  0.54276  0.87177  1.0000
  C   C136      1.0  0.7276999999999999  0.5176600000000002  0.83072  1.0000
  C   C137      1.0  0.7020700000000001  0.13964000000000004  0.87274  1.0000
  C   C138      1.0  0.7118100000000002  0.06443  0.85075  1.0000
  C   C139      1.0  0.72974  0.99075  0.87569  1.0000
  C   C140      1.0  0.08045999999999988  0.7964000000000002  0.44832999999999995  1.0000
  C   C141      1.0  0.17359999999999987  0.7336800000000002  0.4430399999999999  1.0000
  C   C142      1.0  0.2303999999999999  0.7503700000000002  0.46009  1.0000
  C   C143      1.0  0.31641999999999987  0.6905500000000002  0.45649  1.0000
  C   C144      1.0  0.348  0.61181  0.4365599999999999  1.0000
  C   C145      1.0  0.29109999999999986  0.5960500000000002  0.41864999999999997  1.0000
  C   C146      1.0  0.20519  0.65653  0.42153  1.0000
  C   C147      1.0  0.43818999999999986  0.5473000000000002  0.43659999999999993  1.0000
  C   C148      1.0  0.5008799999999999  0.5711100000000002  0.43370999999999993  1.0000
  C   C149      1.0  0.58602  0.5121100000000002  0.43764  1.0000
  C   C150      1.0  0.60821  0.42755  0.4439099999999999  1.0000
  C   C151      1.0  0.5471900000000001  0.40152  0.44624  1.0000
  C   C152      1.0  0.4622900000000002  0.4621000000000001  0.44239  1.0000
  C   C153      1.0  0.6490299999999998  0.5400200000000002  0.43703  1.0000
  C   C154      1.0  0.7149499999999999  0.4994800000000001  0.4636099999999999  1.0000
  C   C155      1.0  0.6429199999999998  0.6097600000000002  0.41076  1.0000
  C   C156      1.0  0.65953  0.05771  0.50211  1.0000
  C   C157      1.0  0.62742  0.14553  0.48430999999999996  1.0000
  C   C158      1.0  0.6834099999999999  0.16671000000000005  0.4553799999999999  1.0000
  C   C159      1.0  0.6562099999999998  0.24896000000000004  0.44127  1.0000
  C   C160      1.0  0.57203  0.31292  0.45583  1.0000
  C   C161      1.0  0.51483  0.29042  0.48292  1.0000
  C   C162      1.0  0.5421399999999998  0.20788  0.49704  1.0000
  C   C163      1.0  0.36333999999999994  0.7217600000000002  0.97155  1.0000
  C   C164      1.0  0.38893999999999995  0.7307400000000002  0.92209  1.0000
  C   C165      1.0  0.4248699999999999  0.6625500000000002  0.89227  1.0000
  C   C166      1.0  0.4477500000000001  0.6726  0.8462299999999999  1.0000
  C   C167      1.0  0.43470999999999993  0.7510600000000002  0.82896  1.0000
  C   C168      1.0  0.3994800000000001  0.81894  0.8591099999999998  1.0000
  C   C169      1.0  0.37721999999999967  0.8088900000000002  0.90514  1.0000
  C   C170      1.0  0.4551899999999997  0.7633300000000002  0.77993  1.0000
  C   C171      1.0  0.53192  0.7058200000000002  0.7542  1.0000
  C   C172      1.0  0.5499199999999996  0.71763  0.70727  1.0000
  C   C173      1.0  0.4887499999999999  0.7886300000000003  0.68678  1.0000
  C   C174      1.0  0.41163999999999995  0.84747  0.71181  1.0000
  C   C175      1.0  0.39592999999999995  0.8337700000000002  0.75854  1.0000
  C   C176      1.0  0.34738999999999987  0.92166  0.69005  1.0000
  C   C177      1.0  0.33984999999999993  0.91999  0.64432  1.0000
  C   C178      1.0  0.29196000000000005  0.99653  0.7147399999999999  1.0000
  C   C179      1.0  0.23075  0.06656000000000002  0.69483  1.0000
  C   C180      1.0  0.6313600000000001  0.65758  0.68023  1.0000
  C   C181      1.0  0.6785300000000001  0.5738000000000002  0.69466  1.0000
  C   C182      1.0  0.6645299999999997  0.6819100000000002  0.6391  1.0000
  C   C183      1.0  0.7406399999999999  0.62508  0.61335  1.0000
  C   C184      1.0  0.54177  0.6290300000000002  0.06482  1.0000
  C   C185      1.0  0.6351500000000001  0.59784  0.06297  1.0000
  C   C186      1.0  0.69799  0.52841  0.03646  1.0000
  C   C187      1.0  0.6601099999999999  0.63919  0.089  1.0000
  C   C188      1.0  0.8703399999999999  0.4806200000000001  0.60105  1.0000
  C   C189      1.0  0.7873399999999999  0.5421800000000002  0.62824  1.0000
  C   C190      1.0  0.75537  0.51734  0.66925  1.0000
  C   C191      1.0  0.15805999999999995  0.13971000000000006  0.6274699999999999  1.0000
  C   C192      1.0  0.22366999999999998  0.06429000000000003  0.64925  1.0000
  C   C193      1.0  0.27958999999999995  0.99061  0.62415  1.0000
  C   C194      1.0  0.12271999999999988  0.7962900000000003  0.05174  1.0000
  C   C195      1.0  0.0923399999999999  0.7336200000000003  0.05691  1.0000
  C   C196      1.0  0.018810000000000007  0.75036  0.03988999999999999  1.0000
  C   C197      1.0  0.9925999999999997  0.6906100000000002  0.04347  1.0000
  C   C198      1.0  0.03972000000000004  0.61193  0.06337  1.0000
  C   C199      1.0  0.11249999999999998  0.59609  0.08121  1.0000
  C   C200      1.0  0.13795000000000002  0.65651  0.07835  1.0000
  C   C201      1.0  0.013829999999999964  0.5476  0.06334  1.0000
  C   C202      1.0  0.92724  0.57163  0.06613  1.0000
  C   C203      1.0  0.9009300000000001  0.5127600000000002  0.06224  1.0000
  C   C204      1.0  0.96342  0.4280800000000001  0.056079999999999984  1.0000
  C   C205      1.0  0.050580000000000014  0.40186  0.05378  1.0000
  C   C206      1.0  0.07494  0.46236  0.05758999999999999  1.0000
  C   C207      1.0  0.8098199999999998  0.5409600000000002  0.06285  1.0000
  C   C208      1.0  0.78422  0.50055  0.03629  1.0000
  C   C209      1.0  0.74611  0.61086  0.08917  1.0000
  C   C210      1.0  0.28235000000000005  0.05762  0.9979399999999999  1.0000
  C   C211      1.0  0.22656999999999997  0.14557000000000003  0.01575  1.0000
  C   C212      1.0  0.14941  0.16701  0.04478  1.0000
  C   C213      1.0  0.09434999999999999  0.24934000000000006  0.05894  1.0000
  C   C214      1.0  0.11455999999999993  0.3131700000000001  0.04429  1.0000
  C   C215      1.0  0.1943699999999999  0.29043000000000013  0.01718  1.0000
  C   C216      1.0  0.24956999999999996  0.20779000000000006  0.003  1.0000
  O   O1        1.0  0.10663000000000003  0.21123  0.49553  1.0000
  O   O2        1.0  0.036829999999999925  0.3507200000000001  0.48905  1.0000
  O   O3        1.0  0.19256000000000004  0.29814  0.57587  1.0000
  O   O4        1.0  0.09582999999999998  0.42497  0.55431  1.0000
  O   O5        1.0  0.38893  0.49746  0.0599  1.0000
  O   O6        1.0  0.32838  0.58779  0.11861  1.0000
  O   O7        1.0  0.2856699999999998  0.8680900000000003  0.08547999999999999  1.0000
  O   O8        1.0  0.31728000000000006  0.79304  0.14937  1.0000
  O   O9        1.0  0.9691099999999997  0.21842000000000006  0.5695999999999999  1.0000
  O   O10       1.0  0.9486  0.13627  0.52877  1.0000
  O   O11       1.0  0.10365999999999982  0.9927800000000002  0.6072499999999997  1.0000
  O   O12       1.0  0.10036999999999985  0.9449400000000002  0.51841  1.0000
  O   O13       1.0  0.25926999999999994  0.9889800000000002  0.49962999999999996  1.0000
  O   O14       1.0  0.39265999999999995  0.9670500000000002  0.4820799999999999  1.0000
  O   O15       1.0  0.68217  0.21179  0.00436  1.0000
  O   O16       1.0  0.6113399999999999  0.3513400000000001  0.01102  1.0000
  O   O17       1.0  0.5106699999999997  0.29585  0.92408  1.0000
  O   O18       1.0  0.48160999999999987  0.4231100000000001  0.9443  1.0000
  O   O19       1.0  0.11291999999999994  0.49913  0.43969  1.0000
  O   O20       1.0  0.08297999999999983  0.5881400000000002  0.38025  1.0000
  O   O21       1.0  0.8473399999999999  0.8688900000000003  0.41376  1.0000
  O   O22       1.0  0.8890299999999999  0.7931600000000002  0.35029  1.0000
  O   O23       1.0  0.81371  0.21793000000000007  0.92991  1.0000
  O   O24       1.0  0.9154  0.13634  0.97132  1.0000
  O   O25       1.0  0.9036199999999999  0.9929000000000002  0.89269  1.0000
  O   O26       1.0  0.9551399999999993  0.9448900000000002  0.98155  1.0000
  O   O27       1.0  0.7521099999999998  0.9890300000000002  0.0003  1.0000
  O   O28       1.0  0.64069  0.9671100000000002  0.01786  1.0000
  O   O29       1.0  0.8931599999999998  0.78924  0.50433  1.0000
  O   O30       1.0  0.95975  0.64968  0.50936  1.0000
  O   O31       1.0  0.8073099999999999  0.7020900000000002  0.42412  1.0000
  O   O32       1.0  0.9051000000000002  0.5740800000000003  0.44363  1.0000
  O   O33       1.0  0.6107299999999999  0.50329  0.9401  1.0000
  O   O34       1.0  0.6744899999999999  0.4110200000000001  0.88203  1.0000
  O   O35       1.0  0.7145500000000001  0.13139  0.91441  1.0000
  O   O36       1.0  0.68276  0.20671  0.8506099999999999  1.0000
  O   O37       1.0  0.030889999999999893  0.7818600000000002  0.43027  1.0000
  O   O38       1.0  0.051429999999999906  0.8638100000000002  0.47125  1.0000
  O   O39       1.0  0.8963599999999999  0.007320000000000002  0.39273  1.0000
  O   O40       1.0  0.89966  0.055210000000000016  0.48159  1.0000
  O   O41       1.0  0.74073  0.011060000000000002  0.50037  1.0000
  O   O42       1.0  0.60733  0.033  0.51791  1.0000
  O   O43       1.0  0.31762000000000007  0.78819  0.9955899999999998  1.0000
  O   O44       1.0  0.38847000000000004  0.64869  0.98892  1.0000
  O   O45       1.0  0.4893499999999999  0.7045000000000002  0.07582999999999997  1.0000
  O   O46       1.0  0.51817  0.57708  0.05601  1.0000
  O   O47       1.0  0.88834  0.50003  0.56026  1.0000
  O   O48       1.0  0.9173  0.41205  0.62009  1.0000
  O   O49       1.0  0.15312999999999996  0.13158  0.58593  1.0000
  O   O50       1.0  0.11083999999999995  0.20701000000000006  0.6496  1.0000
  O   O51       1.0  0.18641999999999984  0.7819100000000002  0.07013  1.0000
  O   O52       1.0  0.08470999999999988  0.8634700000000002  0.0287  1.0000
  O   O53       1.0  0.09643000000000002  0.007060000000000002  0.10731  1.0000
  O   O54       1.0  0.04489  0.05511  0.01846  1.0000
  O   O55       1.0  0.24789000000000005  0.010960000000000003  0.9996999999999999  1.0000
  O   O56       1.0  0.35931  0.03289  0.98214  1.0000
