data_image0
_chemical_formula_structural       Ni12H168C240N18O48
_chemical_formula_sum              "Ni12 H168 C240 N18 O48"
_cell_length_a       23.37969
_cell_length_b       23.37927
_cell_length_c       23.379359999999995
_cell_angle_alpha    109.49851
_cell_angle_beta     109.50457
_cell_angle_gamma    109.50463999999998

_symmetry_space_group_name_H-M    'P 1'
_symmetry_Int_Tables_number       1

loop_
  _symmetry_equiv_pos_as_xyz
  'x,y,z'

loop_
  _atom_site_type_symbol
  _atom_site_label
  _atom_site_symmetry_multiplicity
  _atom_site_fract_x
  _atom_site_fract_y
  _atom_site_fract_z
  _atom_site_occupancy
  Ni  Ni1       1.0  0.4999199999999999  0.2827  0.78254  1.0000
  Ni  Ni2       1.0  0.50026  0.37049  0.87007  1.0000
  Ni  Ni3       1.0  0.50008  0.7173  0.21745999999999996  1.0000
  Ni  Ni4       1.0  0.4997499999999999  0.62951  0.12993  1.0000
  Ni  Ni5       1.0  0.7172999999999998  0.21745999999999996  0.50008  1.0000
  Ni  Ni6       1.0  0.6294899999999999  0.12990999999999994  0.49974  1.0000
  Ni  Ni7       1.0  0.28269999999999995  0.7825399999999999  0.49992  1.0000
  Ni  Ni8       1.0  0.37051  0.8700899999999998  0.50026  1.0000
  Ni  Ni9       1.0  0.21745999999999985  0.50008  0.7173  1.0000
  Ni  Ni10      1.0  0.12992  0.49975  0.62951  1.0000
  Ni  Ni11      1.0  0.78254  0.4999199999999999  0.2827  1.0000
  Ni  Ni12      1.0  0.8700899999999999  0.5002499999999999  0.37049  1.0000
  H   H1        1.0  0.6318099999999999  0.3061499999999999  0.7392899999999999  1.0000
  H   H2        1.0  0.9692800000000001  0.60259  0.09368  1.0000
  H   H3        1.0  0.7330699999999999  0.53181  0.00633  1.0000
  H   H4        1.0  0.8591799999999999  0.59994  0.04265  1.0000
  H   H5        1.0  0.8358  0.42043  0.88253  1.0000
  H   H6        1.0  0.71144  0.35280000000000006  0.8486200000000002  1.0000
  H   H7        1.0  0.36807999999999996  0.10756999999999997  0.6743  1.0000
  H   H8        1.0  0.030859999999999985  0.12516000000000002  0.63352  1.0000
  H   H9        1.0  0.26762  0.27401999999999993  0.79897  1.0000
  H   H10       1.0  0.14148999999999995  0.1844299999999999  0.74125  1.0000
  H   H11       1.0  0.16407999999999998  0.04694  0.58489  1.0000
  H   H12       1.0  0.28843999999999986  0.13725  0.6415  1.0000
  H   H13       1.0  0.43323999999999996  0.6938500000000001  0.32544  1.0000
  H   H14       1.0  0.4913799999999999  0.39756  0.36656  1.0000
  H   H15       1.0  0.47463999999999984  0.46847999999999973  0.20122  1.0000
  H   H16       1.0  0.44285000000000013  0.40027  0.25905  1.0000
  H   H17       1.0  0.4619599999999999  0.57951  0.41523  1.0000
  H   H18       1.0  0.49558999999999986  0.64711  0.3586  1.0000
  H   H19       1.0  0.56704  0.89226  0.26071  1.0000
  H   H20       1.0  0.50833  0.87478  0.90609  1.0000
  H   H21       1.0  0.5251899999999999  0.72618  0.99372  1.0000
  H   H22       1.0  0.55696  0.8158999999999998  0.95746  1.0000
  H   H23       1.0  0.53785  0.95284  0.11762  1.0000
  H   H24       1.0  0.5041399999999998  0.8624299999999999  0.15138  1.0000
  H   H25       1.0  0.8922599999999999  0.26071  0.56704  1.0000
  H   H26       1.0  0.87477  0.90608  0.50832  1.0000
  H   H27       1.0  0.72617  0.9937099999999999  0.52519  1.0000
  H   H28       1.0  0.8159  0.9574399999999997  0.5569499999999998  1.0000
  H   H29       1.0  0.9528499999999998  0.11761999999999996  0.53785  1.0000
  H   H30       1.0  0.86245  0.15139  0.50413  1.0000
  H   H31       1.0  0.6938399999999999  0.32544  0.43323  1.0000
  H   H32       1.0  0.39757  0.36656  0.4914  1.0000
  H   H33       1.0  0.4684599999999999  0.2012  0.47463  1.0000
  H   H34       1.0  0.40026  0.25905  0.44286  1.0000
  H   H35       1.0  0.5795099999999999  0.41524  0.4619599999999999  1.0000
  H   H36       1.0  0.64712  0.35861  0.49559  1.0000
  H   H37       1.0  0.10757  0.6743  0.36807  1.0000
  H   H38       1.0  0.12516  0.63352  0.03086  1.0000
  H   H39       1.0  0.27404  0.79899  0.26762  1.0000
  H   H40       1.0  0.18445000000000003  0.74126  0.14148  1.0000
  H   H41       1.0  0.046939999999999975  0.58489  0.16408  1.0000
  H   H42       1.0  0.13725  0.6415  0.28845  1.0000
  H   H43       1.0  0.30615999999999993  0.73929  0.63181  1.0000
  H   H44       1.0  0.6025799999999998  0.0936899999999999  0.96927  1.0000
  H   H45       1.0  0.5318199999999998  0.006349999999999978  0.73306  1.0000
  H   H46       1.0  0.5999499999999998  0.04266999999999996  0.85917  1.0000
  H   H47       1.0  0.4204199999999999  0.88253  0.83579  1.0000
  H   H48       1.0  0.35279  0.8486099999999999  0.71143  1.0000
  H   H49       1.0  0.32543999999999995  0.43324  0.69385  1.0000
  H   H50       1.0  0.36656  0.49139  0.39756  1.0000
  H   H51       1.0  0.20120999999999994  0.47463  0.46845  1.0000
  H   H52       1.0  0.2590599999999999  0.44285  0.40025999999999995  1.0000
  H   H53       1.0  0.41523999999999994  0.4619599999999999  0.5795  1.0000
  H   H54       1.0  0.35861999999999994  0.4955899999999999  0.64711  1.0000
  H   H55       1.0  0.26071999999999995  0.56704  0.89226  1.0000
  H   H56       1.0  0.90609  0.5083199999999999  0.8747699999999999  1.0000
  H   H57       1.0  0.99371  0.5251999999999999  0.72618  1.0000
  H   H58       1.0  0.9574499999999999  0.55695  0.8159  1.0000
  H   H59       1.0  0.11760999999999996  0.5378499999999999  0.9528599999999999  1.0000
  H   H60       1.0  0.15138999999999997  0.50414  0.86245  1.0000
  H   H61       1.0  0.7392899999999998  0.63181  0.30615  1.0000
  H   H62       1.0  0.09368000000000003  0.96928  0.60258  1.0000
  H   H63       1.0  0.006360000000000039  0.73308  0.53183  1.0000
  H   H64       1.0  0.04267000000000002  0.85918  0.59996  1.0000
  H   H65       1.0  0.88253  0.8358  0.42042  1.0000
  H   H66       1.0  0.8486199999999999  0.71145  0.35279  1.0000
  H   H67       1.0  0.6743  0.36807  0.10757  1.0000
  H   H68       1.0  0.63352  0.030860000000000002  0.12516  1.0000
  H   H69       1.0  0.79899  0.2676  0.27402  1.0000
  H   H70       1.0  0.7412499999999999  0.14147  0.18443  1.0000
  H   H71       1.0  0.58488  0.16407  0.04693  1.0000
  H   H72       1.0  0.64149  0.2884300000000001  0.13724  1.0000
  H   H73       1.0  0.36819  0.69385  0.26071  1.0000
  H   H74       1.0  0.030730000000000045  0.39741  0.90632  1.0000
  H   H75       1.0  0.2669299999999999  0.4682  0.99367  1.0000
  H   H76       1.0  0.14082999999999993  0.4000599999999999  0.9573499999999999  1.0000
  H   H77       1.0  0.16420999999999997  0.57958  0.11747  1.0000
  H   H78       1.0  0.28856  0.6472  0.15138  1.0000
  H   H79       1.0  0.63193  0.8924299999999998  0.3257  1.0000
  H   H80       1.0  0.9691499999999994  0.87484  0.36648  1.0000
  H   H81       1.0  0.7323799999999999  0.7259899999999999  0.20102  1.0000
  H   H82       1.0  0.8585199999999997  0.8155699999999999  0.25875  1.0000
  H   H83       1.0  0.8359299999999998  0.95306  0.41511  1.0000
  H   H84       1.0  0.71156  0.86275  0.3585  1.0000
  H   H85       1.0  0.56677  0.30615999999999993  0.67456  1.0000
  H   H86       1.0  0.5086199999999999  0.6024399999999999  0.63344  1.0000
  H   H87       1.0  0.52537  0.53152  0.79878  1.0000
  H   H88       1.0  0.55715  0.59973  0.74095  1.0000
  H   H89       1.0  0.53804  0.4204899999999999  0.58477  1.0000
  H   H90       1.0  0.50441  0.35289  0.6414  1.0000
  H   H91       1.0  0.4329599999999999  0.10773999999999992  0.7392899999999999  1.0000
  H   H92       1.0  0.4916799999999999  0.12523  0.09391  1.0000
  H   H93       1.0  0.47481  0.27382  0.00628  1.0000
  H   H94       1.0  0.44305  0.18409999999999999  0.04254  1.0000
  H   H95       1.0  0.46215999999999985  0.04715999999999991  0.8823799999999999  1.0000
  H   H96       1.0  0.4958699999999997  0.13756999999999983  0.8486099999999999  1.0000
  H   H97       1.0  0.10774000000000002  0.73929  0.43296  1.0000
  H   H98       1.0  0.12524  0.09392000000000005  0.49168  1.0000
  H   H99       1.0  0.27384  0.0062999999999999905  0.47481  1.0000
  H   H100      1.0  0.18411  0.04255999999999999  0.44305  1.0000
  H   H101      1.0  0.04714999999999998  0.88238  0.46214999999999995  1.0000
  H   H102      1.0  0.1375599999999999  0.8486099999999999  0.4958699999999999  1.0000
  H   H103      1.0  0.30615999999999993  0.67456  0.56677  1.0000
  H   H104      1.0  0.60244  0.63344  0.5086  1.0000
  H   H105      1.0  0.5315399999999998  0.7987999999999998  0.52537  1.0000
  H   H106      1.0  0.59974  0.74096  0.55714  1.0000
  H   H107      1.0  0.4204999999999999  0.5847599999999998  0.53804  1.0000
  H   H108      1.0  0.3528899999999999  0.64139  0.50441  1.0000
  H   H109      1.0  0.89244  0.3257  0.63193  1.0000
  H   H110      1.0  0.87484  0.36648  0.96914  1.0000
  H   H111      1.0  0.72597  0.20101  0.73238  1.0000
  H   H112      1.0  0.8155599999999997  0.25873999999999997  0.8585199999999998  1.0000
  H   H113      1.0  0.95307  0.41511999999999993  0.83592  1.0000
  H   H114      1.0  0.8627599999999999  0.35850999999999994  0.71155  1.0000
  H   H115      1.0  0.69385  0.26071  0.36819  1.0000
  H   H116      1.0  0.39741999999999994  0.90631  0.03073  1.0000
  H   H117      1.0  0.4681799999999998  0.9936599999999999  0.26694  1.0000
  H   H118      1.0  0.4000499999999999  0.9573299999999999  0.14083  1.0000
  H   H119      1.0  0.57958  0.11748  0.16421  1.0000
  H   H120      1.0  0.6472099999999997  0.1514  0.28857  1.0000
  H   H121      1.0  0.67456  0.56676  0.30615  1.0000
  H   H122      1.0  0.6334499999999997  0.50861  0.60244  1.0000
  H   H123      1.0  0.7987899999999999  0.5253799999999998  0.53155  1.0000
  H   H124      1.0  0.74095  0.55715  0.59974  1.0000
  H   H125      1.0  0.58476  0.53804  0.4205  1.0000
  H   H126      1.0  0.64139  0.50441  0.35289  1.0000
  H   H127      1.0  0.7392899999999998  0.43296  0.10773999999999999  1.0000
  H   H128      1.0  0.09391999999999998  0.49168  0.12523  1.0000
  H   H129      1.0  0.006299999999999984  0.4748  0.27382  1.0000
  H   H130      1.0  0.04255999999999999  0.44304999999999994  0.1841  1.0000
  H   H131      1.0  0.8823899999999999  0.46214999999999995  0.04714  1.0000
  H   H132      1.0  0.8486199999999999  0.49586  0.13755  1.0000
  H   H133      1.0  0.26071  0.36818999999999996  0.69385  1.0000
  H   H134      1.0  0.9063199999999999  0.03073  0.39742  1.0000
  H   H135      1.0  0.99365  0.26691999999999994  0.46817  1.0000
  H   H136      1.0  0.9573399999999999  0.14081999999999995  0.40004  1.0000
  H   H137      1.0  0.11747999999999995  0.16419999999999996  0.57958  1.0000
  H   H138      1.0  0.15138999999999994  0.28855  0.64721  1.0000
  H   H139      1.0  0.32571  0.63193  0.89243  1.0000
  H   H140      1.0  0.36647999999999986  0.9691399999999999  0.87484  1.0000
  H   H141      1.0  0.20101999999999995  0.7323999999999999  0.72598  1.0000
  H   H142      1.0  0.2587499999999999  0.8585399999999999  0.81557  1.0000
  H   H143      1.0  0.41512  0.83593  0.95307  1.0000
  H   H144      1.0  0.3585199999999999  0.7115699999999999  0.86276  1.0000
  H   H145      1.0  0.54681  0.1353  0.58854  1.0000
  H   H146      1.0  0.61728  0.26848  0.65087  1.0000
  H   H147      1.0  0.45267999999999997  0.041380000000000035  0.58829  1.0000
  H   H148      1.0  0.3822299999999999  0.03348999999999999  0.651  1.0000
  H   H149      1.0  0.45319999999999994  0.8647  0.41145999999999994  1.0000
  H   H150      1.0  0.3827299999999999  0.7315199999999998  0.34913  1.0000
  H   H151      1.0  0.5473199999999999  0.9586199999999999  0.41171  1.0000
  H   H152      1.0  0.6177799999999998  0.9665099999999998  0.349  1.0000
  H   H153      1.0  0.9586199999999997  0.41170999999999996  0.54731  1.0000
  H   H154      1.0  0.9665199999999999  0.34900999999999993  0.61777  1.0000
  H   H155      1.0  0.8647099999999999  0.41146999999999995  0.4532  1.0000
  H   H156      1.0  0.73153  0.34912999999999994  0.38272  1.0000
  H   H157      1.0  0.04139000000000001  0.58829  0.45269  1.0000
  H   H158      1.0  0.033489999999999895  0.6509899999999997  0.38223  1.0000
  H   H159      1.0  0.13529999999999998  0.58854  0.5468  1.0000
  H   H160      1.0  0.26848  0.65087  0.61728  1.0000
  H   H161      1.0  0.41146999999999984  0.4532099999999999  0.86471  1.0000
  H   H162      1.0  0.34913999999999984  0.38272999999999996  0.73154  1.0000
  H   H163      1.0  0.41172  0.54731  0.95861  1.0000
  H   H164      1.0  0.3490099999999998  0.6177699999999998  0.9665  1.0000
  H   H165      1.0  0.58854  0.54679  0.13529  1.0000
  H   H166      1.0  0.65087  0.61727  0.26846  1.0000
  H   H167      1.0  0.58829  0.45268999999999987  0.04139  1.0000
  H   H168      1.0  0.6509999999999999  0.38224  0.03349  1.0000
  C   C1        1.0  0.6365400000000001  0.39776  0.8949300000000001  1.0000
  C   C2        1.0  0.9293799999999995  0.5534699999999999  0.9822699999999999  1.0000
  C   C3        1.0  0.98282  0.59519  0.05255  1.0000
  C   C4        1.0  0.7137999999999999  0.43847000000000014  0.92398  1.0000
  C   C5        1.0  0.75625  0.50779  0.9799699999999999  1.0000
  C   C6        1.0  0.8266199999999997  0.5458199999999999  0.9998699999999999  1.0000
  C   C7        1.0  0.8555499999999999  0.51562  0.9635599999999999  1.0000
  C   C8        1.0  0.81325  0.44536000000000003  0.9090100000000001  1.0000
  C   C9        1.0  0.74376  0.4073299999999999  0.8901199999999999  1.0000
  C   C10       1.0  0.36365999999999987  0.25900000000000006  0.76113  1.0000
  C   C11       1.0  0.07062999999999998  0.05359999999999999  0.62427  1.0000
  C   C12       1.0  0.017269999999999938  0.07043999999999997  0.61256  1.0000
  C   C13       1.0  0.28637999999999997  0.2107899999999999  0.72467  1.0000
  C   C14       1.0  0.24414999999999995  0.22444  0.75164  1.0000
  C   C15       1.0  0.17375  0.17405000000000004  0.71943  1.0000
  C   C16       1.0  0.14452999999999994  0.10866999999999997  0.6602  1.0000
  C   C17       1.0  0.18668999999999994  0.09617999999999997  0.63227  1.0000
  C   C18       1.0  0.25622  0.14672  0.66364  1.0000
  C   C19       1.0  0.49735  0.60232  0.23892999999999998  1.0000
  C   C20       1.0  0.42911  0.4466  0.37584  1.0000
  C   C21       1.0  0.45764999999999995  0.40494  0.38749  1.0000
  C   C22       1.0  0.48569000000000007  0.56166  0.27543  1.0000
  C   C23       1.0  0.47239  0.49243  0.2485  1.0000
  C   C24       1.0  0.45428999999999975  0.45438  0.28076  1.0000
  C   C25       1.0  0.4482  0.4845  0.33992999999999995  1.0000
  C   C26       1.0  0.46371000000000007  0.5546500000000001  0.36786  1.0000
  C   C27       1.0  0.4827999999999999  0.59269  0.33645  1.0000
  C   C28       1.0  0.50245  0.74106  0.10493  1.0000
  C   C29       1.0  0.57078  0.9464399999999998  0.01761  1.0000
  C   C30       1.0  0.5422199999999999  0.92951  0.94733  1.0000
  C   C31       1.0  0.51404  0.78919  0.07584  1.0000
  C   C32       1.0  0.52737  0.77566  0.01995  1.0000
  C   C33       1.0  0.54548  0.8261  8e-05  1.0000
  C   C34       1.0  0.55159  0.89138  0.03634  1.0000
  C   C35       1.0  0.53606  0.90371  0.09094  1.0000
  C   C36       1.0  0.51693  0.8531199999999998  0.10978999999999998  1.0000
  C   C37       1.0  0.7410599999999998  0.10492999999999998  0.50245  1.0000
  C   C38       1.0  0.94644  0.017610000000000004  0.57077  1.0000
  C   C39       1.0  0.9295  0.9473299999999998  0.54221  1.0000
  C   C40       1.0  0.7891899999999998  0.07583999999999999  0.51404  1.0000
  C   C41       1.0  0.7756499999999998  0.01994  0.52736  1.0000
  C   C42       1.0  0.82609  5.9999999999985324e-05  0.54547  1.0000
  C   C43       1.0  0.8913699999999999  0.036339999999999935  0.55158  1.0000
  C   C44       1.0  0.9037099999999997  0.09093999999999994  0.53605  1.0000
  C   C45       1.0  0.85313  0.10979000000000003  0.51693  1.0000
  C   C46       1.0  0.6023099999999999  0.23892  0.49734  1.0000
  C   C47       1.0  0.4465999999999999  0.37583999999999995  0.42912  1.0000
  C   C48       1.0  0.4049399999999999  0.38749  0.45766  1.0000
  C   C49       1.0  0.5616499999999999  0.27543  0.48568  1.0000
  C   C50       1.0  0.49242  0.24849  0.47239  1.0000
  C   C51       1.0  0.45437  0.28076  0.4543  1.0000
  C   C52       1.0  0.4845  0.33994  0.44821000000000005  1.0000
  C   C53       1.0  0.5546499999999999  0.36785999999999996  0.46370999999999996  1.0000
  C   C54       1.0  0.59269  0.3364599999999999  0.4828  1.0000
  C   C55       1.0  0.25900999999999996  0.76114  0.36367  1.0000
  C   C56       1.0  0.0536099999999999  0.6242799999999998  0.07063  1.0000
  C   C57       1.0  0.07043999999999997  0.6125599999999999  0.01727  1.0000
  C   C58       1.0  0.21080000000000002  0.72467  0.28638  1.0000
  C   C59       1.0  0.22444999999999998  0.75165  0.24415  1.0000
  C   C60       1.0  0.17405999999999988  0.71943  0.17374  1.0000
  C   C61       1.0  0.10867999999999997  0.6602  0.14453  1.0000
  C   C62       1.0  0.09617999999999992  0.6322699999999999  0.1867  1.0000
  C   C63       1.0  0.14671999999999993  0.66364  0.25623  1.0000
  C   C64       1.0  0.39776999999999996  0.89493  0.63653  1.0000
  C   C65       1.0  0.5534699999999999  0.9822799999999999  0.9293799999999999  1.0000
  C   C66       1.0  0.59519  0.05256000000000012  0.9828100000000001  1.0000
  C   C67       1.0  0.43848  0.92398  0.71379  1.0000
  C   C68       1.0  0.5078  0.97999  0.75625  1.0000
  C   C69       1.0  0.54583  0.9999  0.82662  1.0000
  C   C70       1.0  0.5156199999999996  0.9635699999999998  0.8555399999999999  1.0000
  C   C71       1.0  0.44535999999999987  0.90901  0.81325  1.0000
  C   C72       1.0  0.4073299999999998  0.89011  0.7437499999999999  1.0000
  C   C73       1.0  0.2389299999999999  0.49734  0.60231  1.0000
  C   C74       1.0  0.37583999999999984  0.42911  0.44659999999999994  1.0000
  C   C75       1.0  0.38749  0.45766  0.40494  1.0000
  C   C76       1.0  0.27543  0.48568  0.56164  1.0000
  C   C77       1.0  0.24848999999999996  0.47237999999999997  0.4924  1.0000
  C   C78       1.0  0.28075999999999995  0.45429  0.45436  1.0000
  C   C79       1.0  0.3399399999999999  0.4482  0.4845  1.0000
  C   C80       1.0  0.36785999999999996  0.46371  0.55464  1.0000
  C   C81       1.0  0.3364599999999998  0.48279  0.59268  1.0000
  C   C82       1.0  0.10491999999999997  0.50245  0.74106  1.0000
  C   C83       1.0  0.017609999999999883  0.5707799999999998  0.9464399999999998  1.0000
  C   C84       1.0  0.9473299999999997  0.5422199999999999  0.9294999999999999  1.0000
  C   C85       1.0  0.07582999999999995  0.51404  0.78919  1.0000
  C   C86       1.0  0.01993999999999996  0.52737  0.77566  1.0000
  C   C87       1.0  7.00000000000509e-05  0.54548  0.82609  1.0000
  C   C88       1.0  0.03634000000000001  0.55159  0.89138  1.0000
  C   C89       1.0  0.09094000000000002  0.53606  0.9037100000000001  1.0000
  C   C90       1.0  0.10977999999999999  0.5169299999999999  0.8531300000000002  1.0000
  C   C91       1.0  0.8949399999999995  0.63654  0.39777  1.0000
  C   C92       1.0  0.98227  0.92938  0.55347  1.0000
  C   C93       1.0  0.05254999999999998  0.98281  0.59519  1.0000
  C   C94       1.0  0.9239899999999998  0.7138  0.43848  1.0000
  C   C95       1.0  0.97999  0.75626  0.5078  1.0000
  C   C96       1.0  0.9998899999999998  0.8266199999999998  0.54583  1.0000
  C   C97       1.0  0.9635599999999998  0.85555  0.51562  1.0000
  C   C98       1.0  0.9090099999999998  0.81325  0.44536  1.0000
  C   C99       1.0  0.8901199999999996  0.7437599999999998  0.40733  1.0000
  C   C100      1.0  0.7611399999999999  0.36365999999999987  0.259  1.0000
  C   C101      1.0  0.6242799999999998  0.07063  0.0536  1.0000
  C   C102      1.0  0.61257  0.01727  0.07044  1.0000
  C   C103      1.0  0.7246799999999998  0.28637999999999997  0.21079  1.0000
  C   C104      1.0  0.7516499999999999  0.24413999999999997  0.22444  1.0000
  C   C105      1.0  0.7194299999999999  0.17374  0.17405  1.0000
  C   C106      1.0  0.66021  0.14453  0.10867  1.0000
  C   C107      1.0  0.63227  0.18669  0.09617  1.0000
  C   C108      1.0  0.6636399999999998  0.25622  0.14671  1.0000
  C   C109      1.0  0.36347  0.60225  0.10507  1.0000
  C   C110      1.0  0.07062  0.44653  0.01773  1.0000
  C   C111      1.0  0.017189999999999997  0.40480999999999995  0.94745  1.0000
  C   C112      1.0  0.2862099999999999  0.5615299999999999  0.07602  1.0000
  C   C113      1.0  0.2437499999999999  0.49220999999999987  0.02003  1.0000
  C   C114      1.0  0.17338999999999996  0.45418  0.00012  1.0000
  C   C115      1.0  0.14445999999999998  0.4843799999999999  0.03644  1.0000
  C   C116      1.0  0.18675  0.55464  0.09099  1.0000
  C   C117      1.0  0.2562499999999999  0.59267  0.10987999999999999  1.0000
  C   C118      1.0  0.63634  0.741  0.23886999999999997  1.0000
  C   C119      1.0  0.9293799999999999  0.9464  0.37572  1.0000
  C   C120      1.0  0.9827399999999997  0.9295599999999999  0.38744  1.0000
  C   C121      1.0  0.7136199999999998  0.78921  0.27533  1.0000
  C   C122      1.0  0.7558499999999998  0.77556  0.24836  1.0000
  C   C123      1.0  0.8262599999999999  0.82595  0.28057  1.0000
  C   C124      1.0  0.8554799999999999  0.89133  0.3398  1.0000
  C   C125      1.0  0.8133099999999998  0.9038299999999999  0.36773  1.0000
  C   C126      1.0  0.7437799999999998  0.8532899999999999  0.33636  1.0000
  C   C127      1.0  0.5026599999999999  0.3976799999999999  0.76107  1.0000
  C   C128      1.0  0.5708999999999997  0.5534  0.62416  1.0000
  C   C129      1.0  0.54235  0.59506  0.61251  1.0000
  C   C130      1.0  0.5143199999999999  0.43834  0.72457  1.0000
  C   C131      1.0  0.5276199999999998  0.5075699999999999  0.7514999999999998  1.0000
  C   C132      1.0  0.54571  0.54562  0.71924  1.0000
  C   C133      1.0  0.5518100000000001  0.5155  0.66007  1.0000
  C   C134      1.0  0.5363  0.44534999999999997  0.63214  1.0000
  C   C135      1.0  0.5172099999999998  0.40731  0.66355  1.0000
  C   C136      1.0  0.49755999999999995  0.2589399999999999  0.8950699999999999  1.0000
  C   C137      1.0  0.4292299999999998  0.05355999999999988  0.9823899999999999  1.0000
  C   C138      1.0  0.45778  0.07050000000000001  0.05267000000000001  1.0000
  C   C139      1.0  0.4859699999999999  0.21080999999999997  0.9241599999999999  1.0000
  C   C140      1.0  0.47264000000000006  0.22435000000000002  0.9800500000000001  1.0000
  C   C141      1.0  0.4545199999999999  0.17389999999999994  0.99992  1.0000
  C   C142      1.0  0.44842  0.10861999999999995  0.9636599999999999  1.0000
  C   C143      1.0  0.46395  0.09629000000000007  0.90906  1.0000
  C   C144      1.0  0.4830699999999999  0.14688  0.89021  1.0000
  C   C145      1.0  0.25893999999999995  0.89507  0.49754999999999994  1.0000
  C   C146      1.0  0.053569999999999916  0.9823900000000001  0.42923  1.0000
  C   C147      1.0  0.07049999999999995  0.052669999999999974  0.4577899999999999  1.0000
  C   C148      1.0  0.21082  0.92416  0.48596  1.0000
  C   C149      1.0  0.22434999999999994  0.98006  0.47264  1.0000
  C   C150      1.0  0.17390999999999995  0.9999399999999999  0.45453  1.0000
  C   C151      1.0  0.10862999999999995  0.9636699999999998  0.44842  1.0000
  C   C152      1.0  0.09629999999999996  0.90906  0.46395  1.0000
  C   C153      1.0  0.14687999999999987  0.8902099999999997  0.48307  1.0000
  C   C154      1.0  0.3977  0.76109  0.50266  1.0000
  C   C155      1.0  0.5534  0.6241599999999999  0.57088  1.0000
  C   C156      1.0  0.5950599999999999  0.6125099999999999  0.5423399999999999  1.0000
  C   C157      1.0  0.43835  0.72457  0.51432  1.0000
  C   C158      1.0  0.50759  0.7515099999999998  0.52761  1.0000
  C   C159      1.0  0.5456399999999999  0.71925  0.5457  1.0000
  C   C160      1.0  0.5155099999999999  0.6600599999999999  0.55179  1.0000
  C   C161      1.0  0.44535999999999987  0.6321399999999999  0.53629  1.0000
  C   C162      1.0  0.4073099999999999  0.6635399999999999  0.5172  1.0000
  C   C163      1.0  0.7409999999999999  0.23885999999999993  0.63633  1.0000
  C   C164      1.0  0.9464  0.37572  0.9293700000000001  1.0000
  C   C165      1.0  0.9295599999999996  0.38743999999999984  0.9827299999999999  1.0000
  C   C166      1.0  0.7892099999999999  0.27533  0.71362  1.0000
  C   C167      1.0  0.7755499999999997  0.24834999999999996  0.75585  1.0000
  C   C168      1.0  0.82594  0.28057  0.82626  1.0000
  C   C169      1.0  0.8913299999999997  0.3398  0.85547  1.0000
  C   C170      1.0  0.9038299999999997  0.36773  0.8133  1.0000
  C   C171      1.0  0.85329  0.33636000000000005  0.74377  1.0000
  C   C172      1.0  0.6022299999999999  0.10507000000000001  0.36347  1.0000
  C   C173      1.0  0.44654  0.01772  0.07062  1.0000
  C   C174      1.0  0.40480999999999995  0.94744  0.01719  1.0000
  C   C175      1.0  0.56153  0.07601999999999998  0.28621  1.0000
  C   C176      1.0  0.49220999999999987  0.020010000000000003  0.24374999999999997  1.0000
  C   C177      1.0  0.45418  0.00011000000000000332  0.17338  1.0000
  C   C178      1.0  0.48439  0.03643  0.14446  1.0000
  C   C179      1.0  0.5546499999999999  0.09098999999999999  0.18675  1.0000
  C   C180      1.0  0.59268  0.10989  0.25625  1.0000
  C   C181      1.0  0.76108  0.50266  0.39769  1.0000
  C   C182      1.0  0.6241699999999999  0.57089  0.5534  1.0000
  C   C183      1.0  0.6125199999999998  0.5423499999999999  0.59506  1.0000
  C   C184      1.0  0.72458  0.51433  0.43835999999999997  1.0000
  C   C185      1.0  0.7515100000000001  0.52762  0.50759  1.0000
  C   C186      1.0  0.7192499999999998  0.54571  0.54564  1.0000
  C   C187      1.0  0.66007  0.5518  0.5155  1.0000
  C   C188      1.0  0.6321399999999999  0.5363  0.44536  1.0000
  C   C189      1.0  0.66355  0.51721  0.40731  1.0000
  C   C190      1.0  0.89509  0.49756  0.25894  1.0000
  C   C191      1.0  0.9823899999999998  0.42922999999999994  0.053559999999999997  1.0000
  C   C192      1.0  0.05266999999999995  0.4577799999999999  0.0705  1.0000
  C   C193      1.0  0.9241699999999998  0.48595999999999995  0.21081  1.0000
  C   C194      1.0  0.98007  0.47263  0.22434  1.0000
  C   C195      1.0  0.9999399999999998  0.45451999999999976  0.17390999999999998  1.0000
  C   C196      1.0  0.9636699999999998  0.44841999999999993  0.10862  1.0000
  C   C197      1.0  0.9090699999999999  0.46394  0.09629  1.0000
  C   C198      1.0  0.8902199999999999  0.48307  0.14687  1.0000
  C   C199      1.0  0.10506999999999997  0.36347  0.60223  1.0000
  C   C200      1.0  0.017729999999999965  0.07062999999999993  0.4465299999999999  1.0000
  C   C201      1.0  0.94745  0.017190000000000028  0.40481  1.0000
  C   C202      1.0  0.07602  0.2862  0.56152  1.0000
  C   C203      1.0  0.020009999999999955  0.24374999999999994  0.49219999999999997  1.0000
  C   C204      1.0  0.00011000000000001758  0.17338000000000003  0.4541700000000001  1.0000
  C   C205      1.0  0.036440000000000014  0.14446  0.48438  1.0000
  C   C206      1.0  0.09099  0.18675000000000003  0.55464  1.0000
  C   C207      1.0  0.10987999999999992  0.25623999999999997  0.59267  1.0000
  C   C208      1.0  0.23886999999999992  0.63634  0.741  1.0000
  C   C209      1.0  0.37572999999999995  0.92937  0.9464  1.0000
  C   C210      1.0  0.38743999999999995  0.98273  0.92956  1.0000
  C   C211      1.0  0.27532999999999996  0.71363  0.78921  1.0000
  C   C212      1.0  0.2483599999999999  0.7558599999999999  0.77556  1.0000
  C   C213      1.0  0.2805699999999999  0.8262699999999997  0.82595  1.0000
  C   C214      1.0  0.3397999999999998  0.8554699999999998  0.8913299999999998  1.0000
  C   C215      1.0  0.3677400000000002  0.8133100000000002  0.9038300000000001  1.0000
  C   C216      1.0  0.33635999999999994  0.7437799999999999  0.85329  1.0000
  C   C217      1.0  0.5400999999999999  0.20781999999999995  0.66761  1.0000
  C   C218      1.0  0.5925299999999999  0.2757  0.68307  1.0000
  C   C219      1.0  0.4596299999999999  0.12741  0.66761  1.0000
  C   C220      1.0  0.40718999999999994  0.09051999999999999  0.68304  1.0000
  C   C221      1.0  0.45991  0.79218  0.33239  1.0000
  C   C222      1.0  0.40747  0.7243  0.31693  1.0000
  C   C223      1.0  0.54037  0.87259  0.33239  1.0000
  C   C224      1.0  0.5928099999999997  0.9094799999999998  0.31696  1.0000
  C   C225      1.0  0.8725999999999998  0.33238999999999996  0.54037  1.0000
  C   C226      1.0  0.9094899999999999  0.31696  0.59281  1.0000
  C   C227      1.0  0.7921799999999998  0.33237999999999995  0.4599  1.0000
  C   C228      1.0  0.7243  0.31692  0.40747  1.0000
  C   C229      1.0  0.1274099999999999  0.66761  0.45963  1.0000
  C   C230      1.0  0.09051999999999999  0.68304  0.40719  1.0000
  C   C231      1.0  0.20782999999999985  0.6676199999999999  0.5401  1.0000
  C   C232      1.0  0.27571  0.68308  0.59253  1.0000
  C   C233      1.0  0.33238  0.4599  0.79218  1.0000
  C   C234      1.0  0.31693  0.40747999999999995  0.72431  1.0000
  C   C235      1.0  0.33238999999999996  0.54037  0.87259  1.0000
  C   C236      1.0  0.3169699999999998  0.59281  0.9094799999999998  1.0000
  C   C237      1.0  0.6676199999999999  0.5401  0.20782  1.0000
  C   C238      1.0  0.6830799999999999  0.59253  0.27569  1.0000
  C   C239      1.0  0.6676199999999999  0.4596299999999999  0.12741  1.0000
  C   C240      1.0  0.6830399999999998  0.40718999999999994  0.09052  1.0000
  N   N1        1.0  0.49988999999999995  0.1975  0.69744  1.0000
  N   N2        1.0  0.5001099999999999  0.8024999999999999  0.30256  1.0000
  N   N3        1.0  0.8024999999999999  0.30256  0.50011  1.0000
  N   N4        1.0  0.1975099999999999  0.6974399999999998  0.49989  1.0000
  N   N5        1.0  0.30255999999999994  0.50011  0.8025  1.0000
  N   N6        1.0  0.69744  0.49989  0.1975  1.0000
  N   N7        1.0  0.5251799999999999  0.14502  0.61978  1.0000
  N   N8        1.0  0.4744799999999999  0.09433000000000002  0.6198  1.0000
  N   N9        1.0  0.47482  0.85498  0.38022  1.0000
  N   N10       1.0  0.52552  0.90567  0.3802  1.0000
  N   N11       1.0  0.9056699999999998  0.38020999999999994  0.52552  1.0000
  N   N12       1.0  0.8549799999999996  0.38022  0.47482  1.0000
  N   N13       1.0  0.09434000000000001  0.6198  0.47448  1.0000
  N   N14       1.0  0.14502999999999994  0.6197799999999999  0.52518  1.0000
  N   N15       1.0  0.38021999999999995  0.47482  0.85498  1.0000
  N   N16       1.0  0.3802099999999999  0.52552  0.9056699999999999  1.0000
  N   N17       1.0  0.61978  0.52518  0.14502  1.0000
  N   N18       1.0  0.6198  0.47448  0.09433  1.0000
  O   O1        1.0  0.6077699999999998  0.4244799999999999  0.9253400000000002  1.0000
  O   O2        1.0  0.60451  0.3387499999999999  0.8389  1.0000
  O   O3        1.0  0.39277  0.31858  0.81642  1.0000
  O   O4        1.0  0.3953899999999999  0.2345399999999999  0.73421  1.0000
  O   O5        1.0  0.50182  0.57601  0.18386  1.0000
  O   O6        1.0  0.49957999999999975  0.66092  0.26556  1.0000
  O   O7        1.0  0.4974899999999999  0.68125  0.07404  1.0000
  O   O8        1.0  0.5007699999999999  0.76583  0.16157  1.0000
  O   O9        1.0  0.6812599999999999  0.07402999999999998  0.49748999999999993  1.0000
  O   O10       1.0  0.76583  0.16156999999999994  0.50077  1.0000
  O   O11       1.0  0.5759899999999998  0.18385  0.50181  1.0000
  O   O12       1.0  0.6609099999999998  0.26555000000000006  0.49957000000000007  1.0000
  O   O13       1.0  0.31858  0.81644  0.39278  1.0000
  O   O14       1.0  0.23453999999999994  0.73422  0.39538999999999996  1.0000
  O   O15       1.0  0.4244999999999999  0.92533  0.60776  1.0000
  O   O16       1.0  0.33875999999999984  0.8388999999999999  0.6045  1.0000
  O   O17       1.0  0.18385999999999997  0.50182  0.576  1.0000
  O   O18       1.0  0.2655599999999999  0.49957  0.66091  1.0000
  O   O19       1.0  0.07402999999999997  0.49747999999999987  0.68125  1.0000
  O   O20       1.0  0.16155999999999995  0.50077  0.76583  1.0000
  O   O21       1.0  0.9253399999999999  0.60776  0.42448  1.0000
  O   O22       1.0  0.8389199999999999  0.60451  0.33875  1.0000
  O   O23       1.0  0.8164399999999996  0.39277  0.31857  1.0000
  O   O24       1.0  0.7342099999999998  0.39538  0.23453999999999997  1.0000
  O   O25       1.0  0.39224  0.57553  0.07466  1.0000
  O   O26       1.0  0.39549999999999996  0.6612499999999999  0.1611  1.0000
  O   O27       1.0  0.6072399999999998  0.68143  0.18358  1.0000
  O   O28       1.0  0.6046199999999998  0.7654599999999999  0.26579  1.0000
  O   O29       1.0  0.49818  0.42399999999999993  0.81614  1.0000
  O   O30       1.0  0.50043  0.33908  0.73444  1.0000
  O   O31       1.0  0.5025199999999999  0.31875  0.92596  1.0000
  O   O32       1.0  0.49922999999999995  0.23417  0.83843  1.0000
  O   O33       1.0  0.31874999999999987  0.9259699999999998  0.50251  1.0000
  O   O34       1.0  0.23416999999999988  0.8384299999999998  0.49921999999999994  1.0000
  O   O35       1.0  0.42401999999999973  0.8161599999999998  0.4981900000000001  1.0000
  O   O36       1.0  0.33909999999999996  0.7344499999999999  0.50043  1.0000
  O   O37       1.0  0.68143  0.18356  0.60722  1.0000
  O   O38       1.0  0.7654599999999999  0.26578999999999997  0.60461  1.0000
  O   O39       1.0  0.5755100000000001  0.07467000000000003  0.39224  1.0000
  O   O40       1.0  0.6612499999999998  0.16109999999999994  0.3955  1.0000
  O   O41       1.0  0.8161399999999999  0.49818  0.42400000000000004  1.0000
  O   O42       1.0  0.73444  0.50043  0.33909  1.0000
  O   O43       1.0  0.92598  0.50252  0.31875  1.0000
  O   O44       1.0  0.83845  0.49924  0.23417  1.0000
  O   O45       1.0  0.07467000000000001  0.39224  0.57552  1.0000
  O   O46       1.0  0.16108999999999993  0.3954899999999999  0.6612499999999999  1.0000
  O   O47       1.0  0.18356  0.60723  0.68143  1.0000
  O   O48       1.0  0.26579  0.60462  0.76546  1.0000
