data_image0
_chemical_formula_structural       Mg24H72C192N24O104
_chemical_formula_sum              "Mg24 H72 C192 N24 O104"
_cell_length_a       22.28871
_cell_length_b       22.28871
_cell_length_c       22.28871
_cell_angle_alpha    90.0
_cell_angle_beta     90.0
_cell_angle_gamma    90.0

_symmetry_space_group_name_H-M    'P 1'
_symmetry_Int_Tables_number       1

loop_
  _symmetry_equiv_pos_as_xyz
  'x,y,z'

loop_
  _atom_site_type_symbol
  _atom_site_label
  _atom_site_symmetry_multiplicity
  _atom_site_fract_x
  _atom_site_fract_y
  _atom_site_fract_z
  _atom_site_occupancy
  Mg  Mg1       1.0  0.18211  0.23958999999999994  0.6967299999999998  1.0000
  Mg  Mg2       1.0  0.8179  0.7604099999999999  0.6967299999999998  1.0000
  Mg  Mg3       1.0  0.8179  0.23958999999999994  0.30327  1.0000
  Mg  Mg4       1.0  0.18211  0.7604099999999999  0.30327  1.0000
  Mg  Mg5       1.0  0.6967299999999998  0.18211  0.23958999999999994  1.0000
  Mg  Mg6       1.0  0.6967399999999998  0.81789  0.7604099999999999  1.0000
  Mg  Mg7       1.0  0.30327  0.8179  0.23958999999999994  1.0000
  Mg  Mg8       1.0  0.30327  0.18211  0.7604099999999999  1.0000
  Mg  Mg9       1.0  0.23958999999999994  0.6967399999999998  0.18211  1.0000
  Mg  Mg10      1.0  0.7604099999999999  0.6967299999999998  0.8179  1.0000
  Mg  Mg11      1.0  0.23958999999999994  0.30327  0.81789  1.0000
  Mg  Mg12      1.0  0.7604099999999999  0.30327  0.18211  1.0000
  Mg  Mg13      1.0  0.7395899999999997  0.68211  0.19673  1.0000
  Mg  Mg14      1.0  0.2604099999999999  0.31788999999999995  0.19673999999999994  1.0000
  Mg  Mg15      1.0  0.7395899999999997  0.3179  0.8032699999999999  1.0000
  Mg  Mg16      1.0  0.2604099999999999  0.68211  0.8032699999999999  1.0000
  Mg  Mg17      1.0  0.68211  0.19673999999999994  0.7395899999999997  1.0000
  Mg  Mg18      1.0  0.31788999999999995  0.19673  0.2604099999999999  1.0000
  Mg  Mg19      1.0  0.3179  0.8032699999999999  0.7395899999999997  1.0000
  Mg  Mg20      1.0  0.68211  0.8032699999999999  0.2604099999999999  1.0000
  Mg  Mg21      1.0  0.19673  0.7395899999999997  0.68211  1.0000
  Mg  Mg22      1.0  0.19673999999999994  0.2604099999999999  0.3179  1.0000
  Mg  Mg23      1.0  0.8032699999999999  0.7395899999999997  0.3179  1.0000
  Mg  Mg24      1.0  0.8032699999999999  0.2604099999999999  0.68211  1.0000
  H   H1        1.0  0.24767999999999998  0.22126  0.50715  1.0000
  H   H2        1.0  0.40880999999999995  0.20206999999999997  0.61198  1.0000
  H   H3        1.0  0.41932  0.21326999999999996  0.41841999999999996  1.0000
  H   H4        1.0  0.7523199999999998  0.7787499999999999  0.50715  1.0000
  H   H5        1.0  0.59119  0.79792  0.61198  1.0000
  H   H6        1.0  0.5806799999999999  0.78673  0.4184099999999999  1.0000
  H   H7        1.0  0.7523199999999998  0.22126  0.4928499999999999  1.0000
  H   H8        1.0  0.59119  0.20206  0.38803  1.0000
  H   H9        1.0  0.5806799999999999  0.21326999999999996  0.58159  1.0000
  H   H10       1.0  0.24767999999999998  0.7787499999999999  0.4928499999999999  1.0000
  H   H11       1.0  0.40880999999999995  0.7979399999999998  0.38803  1.0000
  H   H12       1.0  0.41932  0.78674  0.58159  1.0000
  H   H13       1.0  0.50715  0.24767999999999998  0.22126  1.0000
  H   H14       1.0  0.61198  0.40880999999999995  0.20206  1.0000
  H   H15       1.0  0.4184099999999999  0.41932  0.21326999999999996  1.0000
  H   H16       1.0  0.50715  0.7523199999999998  0.7787499999999999  1.0000
  H   H17       1.0  0.61198  0.59119  0.79793  1.0000
  H   H18       1.0  0.4184099999999999  0.5806799999999999  0.78673  1.0000
  H   H19       1.0  0.4928499999999999  0.7523199999999998  0.22126  1.0000
  H   H20       1.0  0.38802  0.5911999999999998  0.20206999999999997  1.0000
  H   H21       1.0  0.58159  0.5806799999999999  0.21326999999999996  1.0000
  H   H22       1.0  0.4928499999999999  0.24767999999999998  0.7787399999999999  1.0000
  H   H23       1.0  0.38802  0.40880999999999995  0.7979399999999998  1.0000
  H   H24       1.0  0.58159  0.41932  0.78674  1.0000
  H   H25       1.0  0.22126  0.50715  0.24767999999999998  1.0000
  H   H26       1.0  0.20206999999999997  0.61198  0.40880999999999995  1.0000
  H   H27       1.0  0.21326999999999996  0.4184099999999999  0.41932  1.0000
  H   H28       1.0  0.7787499999999999  0.50715  0.7523199999999998  1.0000
  H   H29       1.0  0.79793  0.61198  0.59119  1.0000
  H   H30       1.0  0.78673  0.4184099999999999  0.5806799999999999  1.0000
  H   H31       1.0  0.22126  0.4928499999999999  0.7523199999999998  1.0000
  H   H32       1.0  0.20206  0.38802  0.59119  1.0000
  H   H33       1.0  0.21325999999999998  0.58159  0.5806799999999999  1.0000
  H   H34       1.0  0.7787399999999999  0.4928499999999999  0.24767999999999998  1.0000
  H   H35       1.0  0.7979399999999998  0.38802  0.40880999999999995  1.0000
  H   H36       1.0  0.78674  0.58159  0.41932  1.0000
  H   H37       1.0  0.7212599999999998  0.7476799999999999  0.007149999999999998  1.0000
  H   H38       1.0  0.70206  0.9088099999999998  0.11197999999999998  1.0000
  H   H39       1.0  0.71327  0.91932  0.9184099999999997  1.0000
  H   H40       1.0  0.27873999999999993  0.25232  0.007139999999999999  1.0000
  H   H41       1.0  0.29794  0.09118999999999997  0.11197999999999998  1.0000
  H   H42       1.0  0.28674  0.08067999999999999  0.9184099999999997  1.0000
  H   H43       1.0  0.7212599999999998  0.25232  0.9928599999999999  1.0000
  H   H44       1.0  0.7020699999999999  0.09119999999999999  0.8880299999999999  1.0000
  H   H45       1.0  0.71327  0.08067999999999999  0.08159  1.0000
  H   H46       1.0  0.27873999999999993  0.7476799999999999  0.9928599999999999  1.0000
  H   H47       1.0  0.29793  0.9088099999999998  0.8880199999999998  1.0000
  H   H48       1.0  0.28673  0.91932  0.08159  1.0000
  H   H49       1.0  0.7476799999999999  0.007139999999999999  0.7212599999999998  1.0000
  H   H50       1.0  0.9088099999999998  0.11197999999999998  0.7020799999999999  1.0000
  H   H51       1.0  0.9193299999999998  0.9184099999999997  0.71328  1.0000
  H   H52       1.0  0.25232  0.007139999999999999  0.27875  1.0000
  H   H53       1.0  0.09119999999999999  0.11197999999999998  0.29793  1.0000
  H   H54       1.0  0.08067999999999999  0.9184099999999997  0.28674  1.0000
  H   H55       1.0  0.25232  0.9928599999999999  0.7212599999999998  1.0000
  H   H56       1.0  0.09118999999999997  0.8880299999999999  0.70206  1.0000
  H   H57       1.0  0.08067999999999999  0.08159  0.7132599999999999  1.0000
  H   H58       1.0  0.7476799999999999  0.9928499999999998  0.27875  1.0000
  H   H59       1.0  0.9088099999999998  0.8880299999999999  0.29794  1.0000
  H   H60       1.0  0.9193299999999998  0.08159  0.28673  1.0000
  H   H61       1.0  0.007149999999999998  0.7212599999999998  0.7476799999999999  1.0000
  H   H62       1.0  0.11197999999999998  0.7020699999999999  0.9088099999999998  1.0000
  H   H63       1.0  0.9184199999999998  0.71327  0.91932  1.0000
  H   H64       1.0  0.007149999999999998  0.27873999999999993  0.25232  1.0000
  H   H65       1.0  0.11197999999999998  0.29793  0.09119999999999999  1.0000
  H   H66       1.0  0.9184099999999997  0.28673  0.08067999999999999  1.0000
  H   H67       1.0  0.9928499999999998  0.7212599999999998  0.25232  1.0000
  H   H68       1.0  0.8880299999999999  0.70206  0.09118999999999997  1.0000
  H   H69       1.0  0.08159  0.71327  0.08067999999999999  1.0000
  H   H70       1.0  0.9928599999999999  0.27873999999999993  0.7476799999999999  1.0000
  H   H71       1.0  0.8880299999999999  0.29794  0.9088099999999998  1.0000
  H   H72       1.0  0.08159  0.28674  0.91932  1.0000
  C   C1        1.0  0.33054  0.21731  0.45659  1.0000
  C   C2        1.0  0.29623999999999995  0.21710999999999994  0.5095899999999999  1.0000
  C   C3        1.0  0.32435  0.21093999999999993  0.56552  1.0000
  C   C4        1.0  0.38686999999999994  0.20640999999999995  0.56863  1.0000
  C   C5        1.0  0.4209  0.20824999999999996  0.51571  1.0000
  C   C6        1.0  0.39276999999999995  0.21330999999999997  0.45933  1.0000
  C   C7        1.0  0.28856  0.20944999999999997  0.6230899999999999  1.0000
  C   C8        1.0  0.30085  0.22132  0.3953999999999999  1.0000
  C   C9        1.0  0.6694599999999999  0.78269  0.45659  1.0000
  C   C10       1.0  0.70377  0.7829  0.5095899999999999  1.0000
  C   C11       1.0  0.6756499999999999  0.7890499999999998  0.56552  1.0000
  C   C12       1.0  0.61314  0.79359  0.56863  1.0000
  C   C13       1.0  0.57911  0.7917499999999997  0.5156999999999999  1.0000
  C   C14       1.0  0.6072299999999999  0.78669  0.4593399999999999  1.0000
  C   C15       1.0  0.7114399999999999  0.79055  0.6230899999999999  1.0000
  C   C16       1.0  0.6991599999999999  0.7786799999999998  0.39541  1.0000
  C   C17       1.0  0.6694599999999999  0.21731  0.54342  1.0000
  C   C18       1.0  0.70377  0.21710999999999994  0.49041  1.0000
  C   C19       1.0  0.6756499999999999  0.21093999999999993  0.4344799999999999  1.0000
  C   C20       1.0  0.61314  0.20639999999999997  0.43138  1.0000
  C   C21       1.0  0.57911  0.20824999999999996  0.48429999999999995  1.0000
  C   C22       1.0  0.6072299999999999  0.21330999999999997  0.54067  1.0000
  C   C23       1.0  0.7114399999999999  0.20944999999999997  0.37691999999999987  1.0000
  C   C24       1.0  0.6991599999999999  0.22131  0.6046  1.0000
  C   C25       1.0  0.33054  0.78269  0.54342  1.0000
  C   C26       1.0  0.29623  0.7829  0.49041  1.0000
  C   C27       1.0  0.32435  0.7890699999999999  0.43449  1.0000
  C   C28       1.0  0.38685999999999987  0.7935999999999999  0.43138  1.0000
  C   C29       1.0  0.42088999999999993  0.7917599999999998  0.48429999999999995  1.0000
  C   C30       1.0  0.39276999999999995  0.7866999999999998  0.54067  1.0000
  C   C31       1.0  0.28856  0.79056  0.37690999999999997  1.0000
  C   C32       1.0  0.30083999999999994  0.7786899999999999  0.6046  1.0000
  C   C33       1.0  0.45659  0.33054  0.21731  1.0000
  C   C34       1.0  0.5095899999999999  0.29623  0.21710999999999994  1.0000
  C   C35       1.0  0.56552  0.32435  0.21093999999999993  1.0000
  C   C36       1.0  0.56863  0.38685999999999987  0.20639999999999997  1.0000
  C   C37       1.0  0.5156999999999999  0.4209  0.20824999999999996  1.0000
  C   C38       1.0  0.45933  0.39276999999999995  0.21330999999999997  1.0000
  C   C39       1.0  0.6230899999999999  0.28856  0.20944999999999997  1.0000
  C   C40       1.0  0.39541  0.30083  0.22131  1.0000
  C   C41       1.0  0.45659  0.6694599999999999  0.78269  1.0000
  C   C42       1.0  0.5095899999999999  0.70377  0.7829  1.0000
  C   C43       1.0  0.56552  0.6756499999999999  0.7890599999999999  1.0000
  C   C44       1.0  0.56863  0.61314  0.7935999999999999  1.0000
  C   C45       1.0  0.5156999999999999  0.57911  0.7917499999999997  1.0000
  C   C46       1.0  0.45933  0.6072299999999999  0.78669  1.0000
  C   C47       1.0  0.6230899999999999  0.7114399999999999  0.79056  1.0000
  C   C48       1.0  0.39541  0.6991599999999999  0.7786799999999998  1.0000
  C   C49       1.0  0.54342  0.6694599999999999  0.21731  1.0000
  C   C50       1.0  0.49041  0.70377  0.21710999999999994  1.0000
  C   C51       1.0  0.4344799999999999  0.6756499999999999  0.21093999999999993  1.0000
  C   C52       1.0  0.43137  0.61314  0.20640999999999995  1.0000
  C   C53       1.0  0.48429999999999995  0.57911  0.20825999999999995  1.0000
  C   C54       1.0  0.54067  0.6072299999999999  0.21330999999999997  1.0000
  C   C55       1.0  0.37690999999999997  0.7114399999999999  0.20944999999999997  1.0000
  C   C56       1.0  0.6046  0.6991599999999999  0.22132  1.0000
  C   C57       1.0  0.54342  0.33054  0.78269  1.0000
  C   C58       1.0  0.49041  0.29623999999999995  0.7829  1.0000
  C   C59       1.0  0.43449  0.32435  0.7890599999999999  1.0000
  C   C60       1.0  0.43138  0.38686999999999994  0.7935999999999999  1.0000
  C   C61       1.0  0.48429999999999995  0.4209  0.7917499999999997  1.0000
  C   C62       1.0  0.54067  0.39276999999999995  0.78669  1.0000
  C   C63       1.0  0.37691999999999987  0.28856  0.79056  1.0000
  C   C64       1.0  0.6046  0.30085  0.7786799999999998  1.0000
  C   C65       1.0  0.21731999999999999  0.45659  0.33054  1.0000
  C   C66       1.0  0.21710999999999994  0.5095899999999999  0.29623999999999995  1.0000
  C   C67       1.0  0.21093999999999993  0.56552  0.32435  1.0000
  C   C68       1.0  0.20640999999999995  0.56863  0.38686999999999994  1.0000
  C   C69       1.0  0.20824999999999996  0.5156999999999999  0.4209  1.0000
  C   C70       1.0  0.21330999999999997  0.45933  0.39276999999999995  1.0000
  C   C71       1.0  0.20944999999999997  0.6230899999999999  0.28856  1.0000
  C   C72       1.0  0.22132999999999997  0.3953999999999999  0.30085  1.0000
  C   C73       1.0  0.78269  0.45659  0.6694599999999999  1.0000
  C   C74       1.0  0.7829  0.5095899999999999  0.70377  1.0000
  C   C75       1.0  0.7890599999999999  0.56552  0.6756499999999999  1.0000
  C   C76       1.0  0.79359  0.56863  0.61314  1.0000
  C   C77       1.0  0.7917499999999997  0.5156999999999999  0.57911  1.0000
  C   C78       1.0  0.78669  0.45933  0.6072299999999999  1.0000
  C   C79       1.0  0.79055  0.6230899999999999  0.7114499999999999  1.0000
  C   C80       1.0  0.7786899999999999  0.3953999999999999  0.6991599999999999  1.0000
  C   C81       1.0  0.21731  0.54341  0.6694599999999999  1.0000
  C   C82       1.0  0.21710999999999994  0.49041  0.7037599999999999  1.0000
  C   C83       1.0  0.21093999999999993  0.43449  0.6756499999999999  1.0000
  C   C84       1.0  0.20640999999999995  0.43137  0.61314  1.0000
  C   C85       1.0  0.20824999999999996  0.48429999999999995  0.5791  1.0000
  C   C86       1.0  0.21330999999999997  0.54067  0.6072299999999999  1.0000
  C   C87       1.0  0.20944999999999997  0.37691999999999987  0.7114399999999999  1.0000
  C   C88       1.0  0.22132  0.6046  0.69915  1.0000
  C   C89       1.0  0.7827  0.54341  0.33054  1.0000
  C   C90       1.0  0.7829  0.49041  0.29623999999999995  1.0000
  C   C91       1.0  0.7890599999999999  0.4344799999999999  0.32435  1.0000
  C   C92       1.0  0.7935999999999999  0.43138  0.38686999999999994  1.0000
  C   C93       1.0  0.7917499999999997  0.48429999999999995  0.4209  1.0000
  C   C94       1.0  0.78669  0.54067  0.39276999999999995  1.0000
  C   C95       1.0  0.79056  0.37691999999999987  0.28856  1.0000
  C   C96       1.0  0.7786799999999998  0.6046  0.30085  1.0000
  C   C97       1.0  0.71731  0.8305399999999998  0.9565899999999998  1.0000
  C   C98       1.0  0.71711  0.79624  0.009589999999999998  1.0000
  C   C99       1.0  0.7109399999999999  0.82435  0.06552  1.0000
  C   C100      1.0  0.7064099999999999  0.88687  0.06863  1.0000
  C   C101      1.0  0.70825  0.9209  0.0157  1.0000
  C   C102      1.0  0.7133099999999999  0.8927699999999998  0.9593399999999999  1.0000
  C   C103      1.0  0.70945  0.7885599999999999  0.12309  1.0000
  C   C104      1.0  0.72132  0.80084  0.89541  1.0000
  C   C105      1.0  0.2827  0.16946  0.9565899999999998  1.0000
  C   C106      1.0  0.2829  0.20376999999999998  0.009589999999999998  1.0000
  C   C107      1.0  0.28905999999999993  0.17565  0.06552  1.0000
  C   C108      1.0  0.29359  0.11314  0.06863  1.0000
  C   C109      1.0  0.29175  0.07909999999999999  0.0157  1.0000
  C   C110      1.0  0.28669  0.10722999999999999  0.9593399999999999  1.0000
  C   C111      1.0  0.29056  0.21143999999999993  0.12309  1.0000
  C   C112      1.0  0.27868999999999994  0.19916  0.89541  1.0000
  C   C113      1.0  0.71731  0.16946  0.043419999999999986  1.0000
  C   C114      1.0  0.71711  0.20376999999999998  0.99042  1.0000
  C   C115      1.0  0.71095  0.17565  0.93449  1.0000
  C   C116      1.0  0.7064099999999999  0.11314  0.9313799999999998  1.0000
  C   C117      1.0  0.70826  0.07911  0.9843  1.0000
  C   C118      1.0  0.71332  0.10722999999999999  0.04066999999999999  1.0000
  C   C119      1.0  0.70945  0.21143999999999993  0.87692  1.0000
  C   C120      1.0  0.7213099999999998  0.19916  0.1046  1.0000
  C   C121      1.0  0.28268999999999994  0.8305399999999998  0.04340999999999998  1.0000
  C   C122      1.0  0.2828899999999999  0.79623  0.99042  1.0000
  C   C123      1.0  0.28905999999999993  0.82435  0.93449  1.0000
  C   C124      1.0  0.29359  0.88686  0.9313799999999998  1.0000
  C   C125      1.0  0.29175  0.9209  0.9843  1.0000
  C   C126      1.0  0.28669  0.8927699999999998  0.04066999999999999  1.0000
  C   C127      1.0  0.29056  0.7885599999999999  0.87692  1.0000
  C   C128      1.0  0.27868  0.8008499999999997  0.1046  1.0000
  C   C129      1.0  0.8305399999999998  0.9565899999999998  0.7173199999999997  1.0000
  C   C130      1.0  0.79624  0.009589999999999998  0.71711  1.0000
  C   C131      1.0  0.82435  0.06552  0.71095  1.0000
  C   C132      1.0  0.88687  0.06863  0.7064099999999999  1.0000
  C   C133      1.0  0.9209  0.0157  0.70826  1.0000
  C   C134      1.0  0.8927699999999998  0.9593299999999998  0.71332  1.0000
  C   C135      1.0  0.7885599999999999  0.12309  0.70945  1.0000
  C   C136      1.0  0.80084  0.89541  0.72132  1.0000
  C   C137      1.0  0.16946  0.9565899999999998  0.28268999999999994  1.0000
  C   C138      1.0  0.20376999999999998  0.009589999999999998  0.2829  1.0000
  C   C139      1.0  0.17565  0.06552  0.28905999999999993  1.0000
  C   C140      1.0  0.11314  0.06863  0.29359999999999997  1.0000
  C   C141      1.0  0.07909999999999999  0.0157  0.29175  1.0000
  C   C142      1.0  0.10722999999999999  0.9593299999999998  0.28669  1.0000
  C   C143      1.0  0.21145  0.12309  0.29055  1.0000
  C   C144      1.0  0.19916  0.89541  0.27868999999999994  1.0000
  C   C145      1.0  0.16946  0.043419999999999986  0.7172999999999999  1.0000
  C   C146      1.0  0.20376  0.9904099999999999  0.7171  1.0000
  C   C147      1.0  0.17565  0.93448  0.7109399999999999  1.0000
  C   C148      1.0  0.11314  0.9313799999999998  0.7064099999999999  1.0000
  C   C149      1.0  0.07909999999999999  0.9843  0.70825  1.0000
  C   C150      1.0  0.10722999999999999  0.04066999999999999  0.7133  1.0000
  C   C151      1.0  0.21143999999999993  0.87691  0.70945  1.0000
  C   C152      1.0  0.19916  0.1046  0.72132  1.0000
  C   C153      1.0  0.8305399999999998  0.043419999999999986  0.2827  1.0000
  C   C154      1.0  0.79624  0.9904099999999999  0.2829  1.0000
  C   C155      1.0  0.82435  0.93448  0.28905999999999993  1.0000
  C   C156      1.0  0.88687  0.93137  0.29359  1.0000
  C   C157      1.0  0.9209  0.9843  0.29175  1.0000
  C   C158      1.0  0.8927699999999998  0.04066999999999999  0.28669  1.0000
  C   C159      1.0  0.7885599999999999  0.87692  0.29056  1.0000
  C   C160      1.0  0.80084  0.1046  0.27868999999999994  1.0000
  C   C161      1.0  0.9565899999999998  0.71731  0.8305399999999998  1.0000
  C   C162      1.0  0.009589999999999998  0.71711  0.79624  1.0000
  C   C163      1.0  0.06552  0.7109399999999999  0.82435  1.0000
  C   C164      1.0  0.06863  0.7064099999999999  0.88687  1.0000
  C   C165      1.0  0.0157  0.70826  0.9209  1.0000
  C   C166      1.0  0.9593399999999999  0.7133099999999999  0.8927699999999998  1.0000
  C   C167      1.0  0.12309  0.70945  0.7885599999999999  1.0000
  C   C168      1.0  0.8954  0.7213099999999998  0.8008499999999997  1.0000
  C   C169      1.0  0.9565899999999998  0.28268999999999994  0.16946  1.0000
  C   C170      1.0  0.009589999999999998  0.2828899999999999  0.20376999999999998  1.0000
  C   C171      1.0  0.06552  0.28905  0.17565  1.0000
  C   C172      1.0  0.06863  0.29359  0.11314  1.0000
  C   C173      1.0  0.0157  0.29174  0.07911  1.0000
  C   C174      1.0  0.9593399999999999  0.28668  0.10722999999999999  1.0000
  C   C175      1.0  0.12309  0.29056  0.21143999999999993  1.0000
  C   C176      1.0  0.89541  0.27868  0.19916  1.0000
  C   C177      1.0  0.04340999999999998  0.71731  0.16946  1.0000
  C   C178      1.0  0.99042  0.71711  0.20376999999999998  1.0000
  C   C179      1.0  0.93449  0.7109399999999999  0.17565  1.0000
  C   C180      1.0  0.9313799999999998  0.7064099999999999  0.11314  1.0000
  C   C181      1.0  0.9843  0.70825  0.07909999999999999  1.0000
  C   C182      1.0  0.04066999999999999  0.7133099999999999  0.10722999999999999  1.0000
  C   C183      1.0  0.87692  0.70945  0.21143999999999993  1.0000
  C   C184      1.0  0.1046  0.72132  0.19916  1.0000
  C   C185      1.0  0.04340999999999998  0.2827  0.8305399999999998  1.0000
  C   C186      1.0  0.99042  0.2829  0.79624  1.0000
  C   C187      1.0  0.93449  0.28905999999999993  0.82435  1.0000
  C   C188      1.0  0.9313799999999998  0.29359999999999997  0.88687  1.0000
  C   C189      1.0  0.9843  0.29175  0.9209  1.0000
  C   C190      1.0  0.04066999999999999  0.28669999999999995  0.8927699999999998  1.0000
  C   C191      1.0  0.87692  0.29056  0.7885599999999999  1.0000
  C   C192      1.0  0.1046  0.27868999999999994  0.80084  1.0000
  N   N1        1.0  0.48334  0.20485999999999993  0.52262  1.0000
  N   N2        1.0  0.51666  0.7951299999999998  0.52261  1.0000
  N   N3        1.0  0.51666  0.20485999999999993  0.47738999999999987  1.0000
  N   N4        1.0  0.48334  0.7951399999999998  0.47738999999999987  1.0000
  N   N5        1.0  0.52261  0.48334  0.20487  1.0000
  N   N6        1.0  0.52261  0.51666  0.7951399999999998  1.0000
  N   N7        1.0  0.47738999999999987  0.51666  0.20485999999999993  1.0000
  N   N8        1.0  0.47738999999999987  0.48334  0.7951399999999998  1.0000
  N   N9        1.0  0.20487  0.52262  0.48334  1.0000
  N   N10       1.0  0.7951399999999998  0.52261  0.51666  1.0000
  N   N11       1.0  0.20485999999999993  0.47738999999999987  0.51666  1.0000
  N   N12       1.0  0.7951399999999998  0.47738999999999987  0.48334  1.0000
  N   N13       1.0  0.7048599999999999  0.9833399999999998  0.022609999999999998  1.0000
  N   N14       1.0  0.29514  0.016659999999999998  0.022609999999999998  1.0000
  N   N15       1.0  0.7048599999999999  0.016659999999999998  0.97739  1.0000
  N   N16       1.0  0.29514  0.9833499999999998  0.97739  1.0000
  N   N17       1.0  0.9833399999999998  0.022609999999999998  0.70487  1.0000
  N   N18       1.0  0.016659999999999998  0.022609999999999998  0.29512999999999995  1.0000
  N   N19       1.0  0.016659999999999998  0.97739  0.7048599999999999  1.0000
  N   N20       1.0  0.9833499999999998  0.97739  0.29514  1.0000
  N   N21       1.0  0.022609999999999998  0.7048599999999999  0.9833399999999998  1.0000
  N   N22       1.0  0.022609999999999998  0.29514  0.016659999999999998  1.0000
  N   N23       1.0  0.97739  0.7048599999999999  0.016659999999999998  1.0000
  N   N24       1.0  0.97739  0.29514  0.9833399999999998  1.0000
  O   O1        1.0  0.24681999999999996  0.2396  0.39416  1.0000
  O   O2        1.0  0.33359999999999995  0.20598999999999998  0.35141999999999995  1.0000
  O   O3        1.0  0.31823  0.19359999999999997  0.66928  1.0000
  O   O4        1.0  0.23349999999999996  0.22405999999999995  0.6208099999999999  1.0000
  O   O5        1.0  0.7531799999999997  0.7604099999999999  0.39416  1.0000
  O   O6        1.0  0.6664  0.7940199999999998  0.35141  1.0000
  O   O7        1.0  0.68177  0.8064  0.66928  1.0000
  O   O8        1.0  0.7665  0.77594  0.6208099999999999  1.0000
  O   O9        1.0  0.7531899999999998  0.23958999999999994  0.60584  1.0000
  O   O10       1.0  0.6664  0.20598999999999998  0.64859  1.0000
  O   O11       1.0  0.68177  0.19359999999999997  0.33072999999999997  1.0000
  O   O12       1.0  0.7665  0.22405999999999995  0.37919  1.0000
  O   O13       1.0  0.24681999999999996  0.7604099999999999  0.60584  1.0000
  O   O14       1.0  0.33359999999999995  0.7940099999999998  0.64859  1.0000
  O   O15       1.0  0.31823  0.8064  0.33072999999999997  1.0000
  O   O16       1.0  0.23349999999999996  0.77595  0.37919  1.0000
  O   O17       1.0  0.39416  0.24681999999999996  0.23957999999999996  1.0000
  O   O18       1.0  0.35141  0.33359999999999995  0.20598999999999998  1.0000
  O   O19       1.0  0.66928  0.31823999999999997  0.19359999999999997  1.0000
  O   O20       1.0  0.6208099999999999  0.23349999999999996  0.22405999999999995  1.0000
  O   O21       1.0  0.39416  0.7531799999999997  0.7604099999999999  1.0000
  O   O22       1.0  0.35141  0.6664  0.7940199999999998  1.0000
  O   O23       1.0  0.66928  0.68177  0.8064  1.0000
  O   O24       1.0  0.6208099999999999  0.7665  0.77595  1.0000
  O   O25       1.0  0.60584  0.7531899999999998  0.23958999999999994  1.0000
  O   O26       1.0  0.64859  0.6664  0.20598999999999998  1.0000
  O   O27       1.0  0.33072  0.68177  0.19359999999999997  1.0000
  O   O28       1.0  0.37919  0.7665  0.22405999999999995  1.0000
  O   O29       1.0  0.60584  0.24681999999999996  0.7603999999999999  1.0000
  O   O30       1.0  0.64859  0.33359999999999995  0.7940099999999998  1.0000
  O   O31       1.0  0.33072999999999997  0.31823  0.8064  1.0000
  O   O32       1.0  0.37919  0.23349999999999996  0.77595  1.0000
  O   O33       1.0  0.23961  0.39416  0.24683  1.0000
  O   O34       1.0  0.20598999999999998  0.35141  0.33359999999999995  1.0000
  O   O35       1.0  0.19359999999999997  0.66928  0.31823  1.0000
  O   O36       1.0  0.22405999999999995  0.6208099999999999  0.23349999999999996  1.0000
  O   O37       1.0  0.76042  0.39416  0.7531899999999998  1.0000
  O   O38       1.0  0.7940099999999998  0.35141  0.6664  1.0000
  O   O39       1.0  0.8064  0.66928  0.68177  1.0000
  O   O40       1.0  0.77595  0.6208099999999999  0.7665  1.0000
  O   O41       1.0  0.23961  0.60584  0.75317  1.0000
  O   O42       1.0  0.20598999999999998  0.64859  0.6664  1.0000
  O   O43       1.0  0.19359999999999997  0.33072999999999997  0.68177  1.0000
  O   O44       1.0  0.22405999999999995  0.37919  0.7665  1.0000
  O   O45       1.0  0.7604099999999999  0.60584  0.24681999999999996  1.0000
  O   O46       1.0  0.7940199999999998  0.64859  0.33359999999999995  1.0000
  O   O47       1.0  0.80641  0.33072999999999997  0.31823  1.0000
  O   O48       1.0  0.77595  0.37919  0.23349999999999996  1.0000
  O   O49       1.0  0.7395899999999997  0.7468199999999999  0.89416  1.0000
  O   O50       1.0  0.70599  0.8335999999999998  0.85141  1.0000
  O   O51       1.0  0.6936  0.81824  0.16927  1.0000
  O   O52       1.0  0.72406  0.7335  0.12080999999999997  1.0000
  O   O53       1.0  0.26042  0.25318999999999997  0.89416  1.0000
  O   O54       1.0  0.29401  0.1664  0.85141  1.0000
  O   O55       1.0  0.3064  0.18176999999999996  0.16927  1.0000
  O   O56       1.0  0.27595  0.2665  0.12080999999999997  1.0000
  O   O57       1.0  0.7395899999999997  0.25318999999999997  0.10584  1.0000
  O   O58       1.0  0.70599  0.1664  0.14859  1.0000
  O   O59       1.0  0.6936  0.18176999999999996  0.8307299999999997  1.0000
  O   O60       1.0  0.72406  0.2665  0.8791899999999999  1.0000
  O   O61       1.0  0.2604  0.7468199999999999  0.10584  1.0000
  O   O62       1.0  0.29401  0.8335999999999998  0.14859  1.0000
  O   O63       1.0  0.3064  0.8182299999999998  0.8307299999999997  1.0000
  O   O64       1.0  0.27595  0.7335  0.8791899999999999  1.0000
  O   O65       1.0  0.7468199999999999  0.89416  0.7395899999999997  1.0000
  O   O66       1.0  0.8335999999999998  0.85141  0.70599  1.0000
  O   O67       1.0  0.81824  0.16927  0.6936  1.0000
  O   O68       1.0  0.73351  0.12080999999999997  0.72406  1.0000
  O   O69       1.0  0.25318  0.89416  0.2604099999999999  1.0000
  O   O70       1.0  0.1664  0.85141  0.29401999999999995  1.0000
  O   O71       1.0  0.18176999999999996  0.16927999999999999  0.3064  1.0000
  O   O72       1.0  0.2665  0.12080999999999997  0.27595  1.0000
  O   O73       1.0  0.25318  0.10584  0.7395899999999997  1.0000
  O   O74       1.0  0.1664  0.14859  0.70599  1.0000
  O   O75       1.0  0.18176999999999996  0.8307299999999997  0.6936  1.0000
  O   O76       1.0  0.2665  0.8791899999999999  0.72406  1.0000
  O   O77       1.0  0.7468199999999999  0.10584  0.2604099999999999  1.0000
  O   O78       1.0  0.8336099999999999  0.14859  0.29401999999999995  1.0000
  O   O79       1.0  0.81824  0.8307299999999997  0.3064  1.0000
  O   O80       1.0  0.7335  0.8791899999999999  0.27595  1.0000
  O   O81       1.0  0.89416  0.7395899999999997  0.7468199999999999  1.0000
  O   O82       1.0  0.8514199999999997  0.70599  0.8335999999999998  1.0000
  O   O83       1.0  0.16927999999999999  0.6936  0.81824  1.0000
  O   O84       1.0  0.12080999999999997  0.72406  0.73351  1.0000
  O   O85       1.0  0.89416  0.2604099999999999  0.25318  1.0000
  O   O86       1.0  0.85141  0.29401  0.1664  1.0000
  O   O87       1.0  0.16927999999999999  0.30640999999999996  0.18176999999999996  1.0000
  O   O88       1.0  0.12080999999999997  0.27594  0.2665  1.0000
  O   O89       1.0  0.10584  0.7395999999999998  0.25318  1.0000
  O   O90       1.0  0.14859  0.70599  0.1664  1.0000
  O   O91       1.0  0.8307299999999997  0.6935899999999999  0.18176999999999996  1.0000
  O   O92       1.0  0.8791899999999999  0.72406  0.2665  1.0000
  O   O93       1.0  0.10584  0.26042  0.7468199999999999  1.0000
  O   O94       1.0  0.14859  0.29401  0.8336099999999999  1.0000
  O   O95       1.0  0.8307299999999997  0.3064  0.81824  1.0000
  O   O96       1.0  0.8791899999999999  0.27595  0.7335  1.0000
  O   O97       1.0  0.24132999999999996  0.24132999999999996  0.75867  1.0000
  O   O98       1.0  0.75867  0.7586599999999999  0.75867  1.0000
  O   O99       1.0  0.75867  0.24133999999999994  0.24133999999999994  1.0000
  O   O100      1.0  0.24133999999999994  0.7586599999999999  0.24133999999999994  1.0000
  O   O101      1.0  0.7413399999999999  0.7413399999999999  0.25866  1.0000
  O   O102      1.0  0.25866  0.25866  0.25866  1.0000
  O   O103      1.0  0.7413399999999999  0.25866  0.7413399999999999  1.0000
  O   O104      1.0  0.25866  0.7413399999999999  0.7413399999999999  1.0000
