data_image0
_chemical_formula_structural       Zn16H144C208O64
_chemical_formula_sum              "Zn16 H144 C208 O64"
_cell_length_a       19.15478
_cell_length_b       19.15479
_cell_length_c       28.06278
_cell_angle_alpha    90.07041999999998
_cell_angle_beta     89.92920999999998
_cell_angle_gamma    90.07066

_symmetry_space_group_name_H-M    'P 1'
_symmetry_Int_Tables_number       1

loop_
  _symmetry_equiv_pos_as_xyz
  'x,y,z'

loop_
  _atom_site_type_symbol
  _atom_site_label
  _atom_site_symmetry_multiplicity
  _atom_site_fract_x
  _atom_site_fract_y
  _atom_site_fract_z
  _atom_site_occupancy
  Zn  Zn1       1.0  0.5376000000000001  0.46239  0.47255  1.0000
  Zn  Zn2       1.0  0.9623200000000002  0.03768  0.47268  1.0000
  Zn  Zn3       1.0  0.03932  0.53744  0.97278  1.0000
  Zn  Zn4       1.0  0.4625600000000001  0.9606700000000001  0.97278  1.0000
  Zn  Zn5       1.0  0.9606800000000001  0.46256  0.02722  1.0000
  Zn  Zn6       1.0  0.53744  0.03932  0.02722  1.0000
  Zn  Zn7       1.0  0.46240000000000003  0.5376  0.52745  1.0000
  Zn  Zn8       1.0  0.03768  0.96232  0.52731  1.0000
  Zn  Zn9       1.0  0.31838  0.25088  0.24936  1.0000
  Zn  Zn10      1.0  0.18046  0.25088  0.25075  1.0000
  Zn  Zn11      1.0  0.25087  0.31838  0.7506400000000001  1.0000
  Zn  Zn12      1.0  0.25088  0.18046  0.74925  1.0000
  Zn  Zn13      1.0  0.6816200000000001  0.74912  0.7506400000000001  1.0000
  Zn  Zn14      1.0  0.8195400000000003  0.74911  0.74925  1.0000
  Zn  Zn15      1.0  0.74913  0.68162  0.24936  1.0000
  Zn  Zn16      1.0  0.7491200000000002  0.81954  0.25075  1.0000
  H   H1        1.0  0.17502000000000006  0.44337  0.32741  1.0000
  H   H2        1.0  0.27482000000000006  0.55284  0.44298  1.0000
  H   H3        1.0  0.3784800000000001  0.37958  0.3758  1.0000
  H   H4        1.0  0.19941  0.60778  0.27679  1.0000
  H   H5        1.0  0.2606  0.57553  0.31871  1.0000
  H   H6        1.0  0.24624000000000001  0.66651  0.31313  1.0000
  H   H7        1.0  0.10806000000000002  0.52305  0.49299  1.0000
  H   H8        1.0  0.14900000000000002  0.46377  0.4532  1.0000
  H   H9        1.0  0.05671000000000001  0.47125  0.4547  1.0000
  H   H10       1.0  0.32503  0.05856999999999999  0.32752  1.0000
  H   H11       1.0  0.22481  0.9477700000000001  0.44235  1.0000
  H   H12       1.0  0.12132  0.12158  0.37611  1.0000
  H   H13       1.0  0.3007800000000001  0.8928899999999999  0.27651  1.0000
  H   H14       1.0  0.23937  0.9256000000000001  0.31822  1.0000
  H   H15       1.0  0.25338  0.83456  0.31274  1.0000
  H   H16       1.0  0.39081000000000016  0.97893  0.4927  1.0000
  H   H17       1.0  0.3501  0.03769  0.45265  1.0000
  H   H18       1.0  0.44234000000000007  0.03032  0.45426  1.0000
  H   H19       1.0  0.05812  0.17433  0.82756  1.0000
  H   H20       1.0  0.9471500000000002  0.27514  0.94213  1.0000
  H   H21       1.0  0.12127000000000002  0.37841  0.87536  1.0000
  H   H22       1.0  0.89272  0.1992  0.77669  1.0000
  H   H23       1.0  0.9253700000000001  0.26055  0.8185099999999998  1.0000
  H   H24       1.0  0.83428  0.24637  0.81305  1.0000
  H   H25       1.0  0.97805  0.10872999999999998  0.9928  1.0000
  H   H26       1.0  0.03709  0.14964  0.95282  1.0000
  H   H27       1.0  0.029580000000000002  0.05733  0.95436  1.0000
  H   H28       1.0  0.44236  0.32454  0.82756  1.0000
  H   H29       1.0  0.5519700000000001  0.22446  0.94264  1.0000
  H   H30       1.0  0.37853  0.12072999999999999  0.87558  1.0000
  H   H31       1.0  0.60742  0.30047  0.77681  1.0000
  H   H32       1.0  0.57507  0.23910000000000003  0.81867  1.0000
  H   H33       1.0  0.66606  0.2536  0.81302  1.0000
  H   H34       1.0  0.52204  0.39138  0.99299  1.0000
  H   H35       1.0  0.46299  0.35039  0.95312  1.0000
  H   H36       1.0  0.4705700000000001  0.44266999999999995  0.95463  1.0000
  H   H37       1.0  0.32454000000000005  0.44236000000000003  0.17244  1.0000
  H   H38       1.0  0.22447000000000006  0.55197  0.05736  1.0000
  H   H39       1.0  0.12074  0.37853  0.12442  1.0000
  H   H40       1.0  0.30048  0.60742  0.22319  1.0000
  H   H41       1.0  0.23910000000000003  0.57507  0.18132000000000004  1.0000
  H   H42       1.0  0.2536  0.66606  0.18698  1.0000
  H   H43       1.0  0.39138  0.52204  0.00701  1.0000
  H   H44       1.0  0.35040000000000004  0.463  0.04688  1.0000
  H   H45       1.0  0.44268  0.47057  0.04537  1.0000
  H   H46       1.0  0.17434  0.05811999999999999  0.17244  1.0000
  H   H47       1.0  0.27515000000000006  0.9471499999999999  0.05787  1.0000
  H   H48       1.0  0.37841  0.12127  0.12464  1.0000
  H   H49       1.0  0.1992  0.8927200000000001  0.22331  1.0000
  H   H50       1.0  0.26056  0.9253699999999999  0.18149  1.0000
  H   H51       1.0  0.24637000000000006  0.83429  0.18695  1.0000
  H   H52       1.0  0.10873  0.9780499999999999  0.0072  1.0000
  H   H53       1.0  0.14964  0.0371  0.04716999999999999  1.0000
  H   H54       1.0  0.05733000000000001  0.02959  0.04564  1.0000
  H   H55       1.0  0.4433700000000001  0.17502  0.67259  1.0000
  H   H56       1.0  0.55284  0.27482  0.55702  1.0000
  H   H57       1.0  0.37958  0.37848  0.6242  1.0000
  H   H58       1.0  0.60778  0.1994  0.72321  1.0000
  H   H59       1.0  0.57553  0.2606  0.6812900000000001  1.0000
  H   H60       1.0  0.6665100000000003  0.24624  0.6868699999999999  1.0000
  H   H61       1.0  0.52305  0.10805999999999999  0.507  1.0000
  H   H62       1.0  0.46377  0.149  0.5468  1.0000
  H   H63       1.0  0.47125  0.05671  0.5453  1.0000
  H   H64       1.0  0.05857000000000001  0.32502  0.67248  1.0000
  H   H65       1.0  0.94777  0.22481  0.55765  1.0000
  H   H66       1.0  0.12158000000000001  0.12130999999999999  0.62389  1.0000
  H   H67       1.0  0.8928900000000002  0.30078  0.72349  1.0000
  H   H68       1.0  0.9256  0.23937  0.6817799999999999  1.0000
  H   H69       1.0  0.8345600000000001  0.25338  0.68726  1.0000
  H   H70       1.0  0.9789400000000001  0.39081  0.5073  1.0000
  H   H71       1.0  0.03769  0.3501  0.54735  1.0000
  H   H72       1.0  0.03032  0.44234  0.54574  1.0000
  H   H73       1.0  0.82497  0.55663  0.67259  1.0000
  H   H74       1.0  0.72518  0.44715  0.55702  1.0000
  H   H75       1.0  0.62152  0.62042  0.6242  1.0000
  H   H76       1.0  0.80059  0.39222  0.72321  1.0000
  H   H77       1.0  0.7394000000000001  0.42446  0.6812900000000001  1.0000
  H   H78       1.0  0.75376  0.33348  0.6868699999999999  1.0000
  H   H79       1.0  0.89194  0.47695  0.507  1.0000
  H   H80       1.0  0.8510000000000001  0.53622  0.5468  1.0000
  H   H81       1.0  0.94329  0.52875  0.5453  1.0000
  H   H82       1.0  0.67497  0.94142  0.67248  1.0000
  H   H83       1.0  0.77519  0.05223  0.55765  1.0000
  H   H84       1.0  0.87868  0.8784199999999999  0.62389  1.0000
  H   H85       1.0  0.6992200000000002  0.10711  0.72349  1.0000
  H   H86       1.0  0.7606300000000001  0.0744  0.6817799999999999  1.0000
  H   H87       1.0  0.74662  0.16544  0.68726  1.0000
  H   H88       1.0  0.60919  0.02106  0.5073  1.0000
  H   H89       1.0  0.6499000000000003  0.9623  0.54735  1.0000
  H   H90       1.0  0.5576600000000002  0.96968  0.54574  1.0000
  H   H91       1.0  0.9418800000000002  0.8256600000000001  0.17244  1.0000
  H   H92       1.0  0.05285  0.72486  0.05787  1.0000
  H   H93       1.0  0.87873  0.62159  0.12464  1.0000
  H   H94       1.0  0.10728000000000001  0.8008  0.22331  1.0000
  H   H95       1.0  0.07463  0.73944  0.18149  1.0000
  H   H96       1.0  0.16572000000000003  0.75363  0.18695  1.0000
  H   H97       1.0  0.02195  0.8912699999999999  0.0072  1.0000
  H   H98       1.0  0.96291  0.8503600000000001  0.04716999999999999  1.0000
  H   H99       1.0  0.9704200000000001  0.9426700000000001  0.04564  1.0000
  H   H100      1.0  0.5576400000000001  0.67546  0.17244  1.0000
  H   H101      1.0  0.44803000000000004  0.77553  0.05736  1.0000
  H   H102      1.0  0.62147  0.8792700000000001  0.12442  1.0000
  H   H103      1.0  0.39258  0.69952  0.22319  1.0000
  H   H104      1.0  0.42493  0.7609000000000001  0.18132000000000004  1.0000
  H   H105      1.0  0.33394  0.7464  0.18698  1.0000
  H   H106      1.0  0.47796000000000005  0.60862  0.00701  1.0000
  H   H107      1.0  0.5370100000000002  0.6496  0.04688  1.0000
  H   H108      1.0  0.52943  0.55732  0.04537  1.0000
  H   H109      1.0  0.67546  0.55764  0.82756  1.0000
  H   H110      1.0  0.7755300000000003  0.44803  0.94264  1.0000
  H   H111      1.0  0.87926  0.62146  0.87558  1.0000
  H   H112      1.0  0.69952  0.39257  0.77681  1.0000
  H   H113      1.0  0.7609  0.4249299999999999  0.81867  1.0000
  H   H114      1.0  0.7464  0.33394  0.81302  1.0000
  H   H115      1.0  0.60862  0.47796000000000005  0.99299  1.0000
  H   H116      1.0  0.6496  0.537  0.95312  1.0000
  H   H117      1.0  0.55732  0.52943  0.95463  1.0000
  H   H118      1.0  0.8256600000000001  0.9418699999999999  0.82756  1.0000
  H   H119      1.0  0.72485  0.05284  0.94213  1.0000
  H   H120      1.0  0.62159  0.87873  0.87536  1.0000
  H   H121      1.0  0.8008  0.10727  0.77669  1.0000
  H   H122      1.0  0.73944  0.07463  0.8185099999999998  1.0000
  H   H123      1.0  0.75363  0.16571  0.81305  1.0000
  H   H124      1.0  0.8912700000000001  0.02194  0.9928  1.0000
  H   H125      1.0  0.85036  0.9629  0.95282  1.0000
  H   H126      1.0  0.9426700000000001  0.9704099999999999  0.95436  1.0000
  H   H127      1.0  0.55663  0.82497  0.32741  1.0000
  H   H128      1.0  0.4471600000000001  0.72518  0.44298  1.0000
  H   H129      1.0  0.62042  0.62152  0.3758  1.0000
  H   H130      1.0  0.39222  0.80059  0.27679  1.0000
  H   H131      1.0  0.42447000000000007  0.7394  0.31871  1.0000
  H   H132      1.0  0.33349  0.75376  0.31313  1.0000
  H   H133      1.0  0.47695  0.8919400000000001  0.49299  1.0000
  H   H134      1.0  0.53623  0.851  0.4532  1.0000
  H   H135      1.0  0.5287500000000002  0.94329  0.4547  1.0000
  H   H136      1.0  0.94143  0.67497  0.32752  1.0000
  H   H137      1.0  0.05223  0.77519  0.44235  1.0000
  H   H138      1.0  0.8784200000000001  0.87868  0.37611  1.0000
  H   H139      1.0  0.10711  0.69922  0.27651  1.0000
  H   H140      1.0  0.0744  0.76063  0.31822  1.0000
  H   H141      1.0  0.16544000000000003  0.74662  0.31274  1.0000
  H   H142      1.0  0.02106  0.60918  0.4927  1.0000
  H   H143      1.0  0.96231  0.6499  0.45265  1.0000
  H   H144      1.0  0.96968  0.55766  0.45426  1.0000
  C   C1        1.0  0.21878  0.45029  0.35166  1.0000
  C   C2        1.0  0.16321000000000005  0.61184  0.34984  1.0000
  C   C3        1.0  0.21836  0.50538  0.38461  1.0000
  C   C4        1.0  0.16152  0.55883  0.38467999999999997  1.0000
  C   C5        1.0  0.27449  0.51159  0.4163  1.0000
  C   C6        1.0  0.27596  0.40455  0.34854  1.0000
  C   C7        1.0  0.10847000000000001  0.55733  0.4195  1.0000
  C   C8        1.0  0.33175  0.46621  0.41339  1.0000
  C   C9        1.0  0.33338  0.41368  0.37866  1.0000
  C   C10       1.0  0.27478  0.3463  0.313  1.0000
  C   C11       1.0  0.22044  0.61516  0.31291  1.0000
  C   C12       1.0  0.10587  0.50082  0.4568499999999999  1.0000
  C   C13       1.0  0.3918500000000001  0.47545  0.44661  1.0000
  C   C14       1.0  0.28119  0.05111  0.35167  1.0000
  C   C15       1.0  0.33635000000000004  0.88897  0.34966  1.0000
  C   C16       1.0  0.28145  0.9958100000000001  0.38431  1.0000
  C   C17       1.0  0.3381200000000001  0.9423000000000001  0.38434  1.0000
  C   C18       1.0  0.22525000000000006  0.98937  0.41598  1.0000
  C   C19       1.0  0.22395000000000004  0.09672  0.34873  1.0000
  C   C20       1.0  0.39078  0.94378  0.41932  1.0000
  C   C21       1.0  0.16805000000000006  0.03477  0.41336  1.0000
  C   C22       1.0  0.16646  0.08752  0.37886  1.0000
  C   C23       1.0  0.22516000000000003  0.15454  0.31304999999999994  1.0000
  C   C24       1.0  0.27943  0.88577  0.31259  1.0000
  C   C25       1.0  0.39321000000000006  0.0007  0.45647  1.0000
  C   C26       1.0  0.10794  0.02483  0.44658  1.0000
  C   C27       1.0  0.050720000000000015  0.21834000000000003  0.85161  1.0000
  C   C28       1.0  0.8886700000000001  0.16336  0.84975  1.0000
  C   C29       1.0  0.9953600000000001  0.21828  0.8842900000000001  1.0000
  C   C30       1.0  0.9418100000000001  0.16158  0.88446  1.0000
  C   C31       1.0  0.9888600000000002  0.27464  0.9158  1.0000
  C   C32       1.0  0.09621000000000002  0.27575  0.84847  1.0000
  C   C33       1.0  0.94332  0.1088  0.91937  1.0000
  C   C34       1.0  0.03442000000000001  0.3318  0.9131999999999999  1.0000
  C   C35       1.0  0.08707000000000001  0.33335  0.87852  1.0000
  C   C36       1.0  0.15430000000000002  0.27463  0.81289  1.0000
  C   C37       1.0  0.88553  0.22046  0.8128  1.0000
  C   C38       1.0  4.9999999999999914e-05  0.10644  0.95658  1.0000
  C   C39       1.0  0.024829999999999998  0.39169  0.94665  1.0000
  C   C40       1.0  0.44937000000000005  0.28082  0.85181  1.0000
  C   C41       1.0  0.61148  0.33642  0.84994  1.0000
  C   C42       1.0  0.50454  0.28118  0.88457  1.0000
  C   C43       1.0  0.55819  0.33805  0.88467  1.0000
  C   C44       1.0  0.5107300000000001  0.22481  0.91604  1.0000
  C   C45       1.0  0.40364  0.22354  0.84876  1.0000
  C   C46       1.0  0.55684  0.39099  0.91956  1.0000
  C   C47       1.0  0.46543  0.16731  0.9131500000000001  1.0000
  C   C48       1.0  0.41273  0.16583  0.87864  1.0000
  C   C49       1.0  0.34575  0.22491000000000003  0.81315  1.0000
  C   C50       1.0  0.6147400000000001  0.27933  0.81289  1.0000
  C   C51       1.0  0.50008  0.39356  0.95681  1.0000
  C   C52       1.0  0.47545000000000004  0.10714000000000001  0.94626  1.0000
  C   C53       1.0  0.2808300000000001  0.44938  0.14819  1.0000
  C   C54       1.0  0.33643  0.61149  0.15006000000000003  1.0000
  C   C55       1.0  0.28118000000000004  0.50455  0.11543  1.0000
  C   C56       1.0  0.33805  0.55819  0.11533  1.0000
  C   C57       1.0  0.22481  0.51074  0.08396  1.0000
  C   C58       1.0  0.22354  0.40364  0.15124  1.0000
  C   C59       1.0  0.391  0.55684  0.08044  1.0000
  C   C60       1.0  0.16732  0.4654400000000001  0.08685  1.0000
  C   C61       1.0  0.16584000000000002  0.41273  0.12136  1.0000
  C   C62       1.0  0.22492  0.34575  0.18685  1.0000
  C   C63       1.0  0.27934  0.61475  0.18711  1.0000
  C   C64       1.0  0.39356  0.50008  0.04319  1.0000
  C   C65       1.0  0.10715000000000001  0.47545  0.05374  1.0000
  C   C66       1.0  0.21834  0.05073  0.14839  1.0000
  C   C67       1.0  0.16336  0.88867  0.15025  1.0000
  C   C68       1.0  0.21828000000000006  0.9953700000000001  0.11571  1.0000
  C   C69       1.0  0.16159000000000004  0.94181  0.11553  1.0000
  C   C70       1.0  0.27464  0.98886  0.0842  1.0000
  C   C71       1.0  0.27576  0.09622  0.15153  1.0000
  C   C72       1.0  0.10881  0.9433199999999999  0.08063  1.0000
  C   C73       1.0  0.3318  0.03442  0.0868  1.0000
  C   C74       1.0  0.33336  0.08708  0.12148  1.0000
  C   C75       1.0  0.27463  0.1543  0.18711  1.0000
  C   C76       1.0  0.22046000000000004  0.88553  0.1872  1.0000
  C   C77       1.0  0.10645000000000002  5.0000000000000016e-05  0.04342  1.0000
  C   C78       1.0  0.3917  0.02483  0.05335  1.0000
  C   C79       1.0  0.45029  0.21877999999999997  0.6483399999999999  1.0000
  C   C80       1.0  0.61184  0.16321  0.65016  1.0000
  C   C81       1.0  0.50538  0.21836  0.61539  1.0000
  C   C82       1.0  0.55883  0.16152  0.61532  1.0000
  C   C83       1.0  0.51159  0.27449  0.5837  1.0000
  C   C84       1.0  0.40455000000000013  0.27595  0.65146  1.0000
  C   C85       1.0  0.5573300000000001  0.10847000000000001  0.5804999999999999  1.0000
  C   C86       1.0  0.4662100000000001  0.33174  0.5866099999999999  1.0000
  C   C87       1.0  0.4136800000000001  0.33338  0.62134  1.0000
  C   C88       1.0  0.3463  0.27478  0.687  1.0000
  C   C89       1.0  0.6151600000000002  0.22044000000000002  0.68709  1.0000
  C   C90       1.0  0.50082  0.10587000000000002  0.54315  1.0000
  C   C91       1.0  0.47545000000000004  0.39185  0.55339  1.0000
  C   C92       1.0  0.051110000000000017  0.28119  0.64833  1.0000
  C   C93       1.0  0.88897  0.33635  0.65034  1.0000
  C   C94       1.0  0.99581  0.28145  0.61569  1.0000
  C   C95       1.0  0.9423000000000001  0.33812000000000003  0.61566  1.0000
  C   C96       1.0  0.9893700000000001  0.22525000000000003  0.58402  1.0000
  C   C97       1.0  0.09672  0.22395  0.65127  1.0000
  C   C98       1.0  0.9437800000000001  0.39078  0.58068  1.0000
  C   C99       1.0  0.034770000000000016  0.16805  0.58664  1.0000
  C   C100      1.0  0.08752  0.16646  0.62114  1.0000
  C   C101      1.0  0.15454  0.22516  0.68695  1.0000
  C   C102      1.0  0.88577  0.27942  0.68741  1.0000
  C   C103      1.0  0.0007  0.39321  0.54353  1.0000
  C   C104      1.0  0.02483  0.10794  0.55342  1.0000
  C   C105      1.0  0.7812200000000002  0.5497  0.6483399999999999  1.0000
  C   C106      1.0  0.83679  0.38816  0.65016  1.0000
  C   C107      1.0  0.78164  0.49461  0.61539  1.0000
  C   C108      1.0  0.83848  0.44116999999999995  0.61531  1.0000
  C   C109      1.0  0.72551  0.48841000000000007  0.5837  1.0000
  C   C110      1.0  0.72404  0.59545  0.65146  1.0000
  C   C111      1.0  0.89153  0.44266999999999995  0.5804999999999999  1.0000
  C   C112      1.0  0.66825  0.53379  0.5866099999999999  1.0000
  C   C113      1.0  0.66662  0.58632  0.62134  1.0000
  C   C114      1.0  0.72522  0.6537  0.687  1.0000
  C   C115      1.0  0.77955  0.38484  0.68709  1.0000
  C   C116      1.0  0.89413  0.49918  0.54315  1.0000
  C   C117      1.0  0.60814  0.52454  0.55339  1.0000
  C   C118      1.0  0.71881  0.94889  0.64833  1.0000
  C   C119      1.0  0.6636500000000002  0.11101999999999998  0.65034  1.0000
  C   C120      1.0  0.71854  0.00419  0.61569  1.0000
  C   C121      1.0  0.66188  0.05770000000000001  0.61566  1.0000
  C   C122      1.0  0.77475  0.01063  0.58402  1.0000
  C   C123      1.0  0.7760500000000001  0.90328  0.65127  1.0000
  C   C124      1.0  0.60922  0.05622  0.58068  1.0000
  C   C125      1.0  0.8319500000000002  0.96523  0.58664  1.0000
  C   C126      1.0  0.83354  0.91248  0.62114  1.0000
  C   C127      1.0  0.7748400000000001  0.84545  0.68695  1.0000
  C   C128      1.0  0.72057  0.11422000000000002  0.68741  1.0000
  C   C129      1.0  0.6067900000000002  0.9992900000000001  0.54353  1.0000
  C   C130      1.0  0.8920600000000001  0.97517  0.55342  1.0000
  C   C131      1.0  0.9492800000000001  0.78166  0.14839  1.0000
  C   C132      1.0  0.11133  0.83664  0.15025  1.0000
  C   C133      1.0  0.00463  0.78172  0.11571  1.0000
  C   C134      1.0  0.058190000000000006  0.8384100000000001  0.11553  1.0000
  C   C135      1.0  0.01114  0.72536  0.0842  1.0000
  C   C136      1.0  0.90379  0.72424  0.15153  1.0000
  C   C137      1.0  0.05668000000000001  0.8912000000000001  0.08063  1.0000
  C   C138      1.0  0.9655800000000001  0.6682  0.0868  1.0000
  C   C139      1.0  0.9129300000000002  0.66664  0.12148  1.0000
  C   C140      1.0  0.8457000000000002  0.72537  0.18711  1.0000
  C   C141      1.0  0.11447000000000002  0.77954  0.1872  1.0000
  C   C142      1.0  0.99995  0.89355  0.04342  1.0000
  C   C143      1.0  0.97517  0.60831  0.05335  1.0000
  C   C144      1.0  0.5506300000000002  0.71918  0.14819  1.0000
  C   C145      1.0  0.38852000000000003  0.66357  0.15006000000000003  1.0000
  C   C146      1.0  0.49545000000000006  0.71882  0.11543  1.0000
  C   C147      1.0  0.4418100000000001  0.66195  0.11533  1.0000
  C   C148      1.0  0.48927  0.77519  0.08396  1.0000
  C   C149      1.0  0.59636  0.77646  0.15124  1.0000
  C   C150      1.0  0.44316  0.609  0.08044  1.0000
  C   C151      1.0  0.53456  0.83268  0.08685  1.0000
  C   C152      1.0  0.58727  0.83417  0.12136  1.0000
  C   C153      1.0  0.65425  0.77508  0.18685  1.0000
  C   C154      1.0  0.3852600000000001  0.72066  0.18711  1.0000
  C   C155      1.0  0.49992  0.60644  0.04319  1.0000
  C   C156      1.0  0.5245500000000001  0.89285  0.05374  1.0000
  C   C157      1.0  0.7191700000000002  0.55062  0.85181  1.0000
  C   C158      1.0  0.66357  0.38851  0.84994  1.0000
  C   C159      1.0  0.71881  0.49544999999999995  0.88457  1.0000
  C   C160      1.0  0.66195  0.4418000000000001  0.88467  1.0000
  C   C161      1.0  0.77519  0.48926  0.91604  1.0000
  C   C162      1.0  0.77646  0.59635  0.84876  1.0000
  C   C163      1.0  0.609  0.44316  0.91956  1.0000
  C   C164      1.0  0.83268  0.53456  0.9131500000000001  1.0000
  C   C165      1.0  0.83416  0.58726  0.87864  1.0000
  C   C166      1.0  0.77508  0.65424  0.81315  1.0000
  C   C167      1.0  0.7206600000000001  0.38525  0.81289  1.0000
  C   C168      1.0  0.60644  0.4999100000000001  0.95681  1.0000
  C   C169      1.0  0.89285  0.52454  0.94626  1.0000
  C   C170      1.0  0.7816600000000002  0.94927  0.85161  1.0000
  C   C171      1.0  0.83663  0.11133  0.84975  1.0000
  C   C172      1.0  0.7817200000000001  0.0046300000000000004  0.8842900000000001  1.0000
  C   C173      1.0  0.83841  0.05818000000000001  0.88446  1.0000
  C   C174      1.0  0.72536  0.011130000000000001  0.9158  1.0000
  C   C175      1.0  0.72424  0.90378  0.84847  1.0000
  C   C176      1.0  0.89119  0.05668  0.91937  1.0000
  C   C177      1.0  0.6682000000000002  0.96558  0.9131999999999999  1.0000
  C   C178      1.0  0.6666400000000002  0.91292  0.87852  1.0000
  C   C179      1.0  0.72537  0.8456999999999999  0.81289  1.0000
  C   C180      1.0  0.77953  0.11447  0.8128  1.0000
  C   C181      1.0  0.89355  0.99995  0.95658  1.0000
  C   C182      1.0  0.60831  0.97517  0.94665  1.0000
  C   C183      1.0  0.5497  0.78122  0.35166  1.0000
  C   C184      1.0  0.3881600000000001  0.8367900000000001  0.34984  1.0000
  C   C185      1.0  0.49462  0.78164  0.38461  1.0000
  C   C186      1.0  0.44117  0.8384799999999999  0.38467999999999997  1.0000
  C   C187      1.0  0.48841000000000007  0.72551  0.4163  1.0000
  C   C188      1.0  0.5954500000000001  0.72404  0.34854  1.0000
  C   C189      1.0  0.44267  0.89153  0.4195  1.0000
  C   C190      1.0  0.53379  0.66825  0.41339  1.0000
  C   C191      1.0  0.58632  0.66662  0.37866  1.0000
  C   C192      1.0  0.6537  0.72522  0.313  1.0000
  C   C193      1.0  0.38484000000000007  0.77955  0.31291  1.0000
  C   C194      1.0  0.49918000000000007  0.8941300000000001  0.4568499999999999  1.0000
  C   C195      1.0  0.5245500000000001  0.60814  0.44661  1.0000
  C   C196      1.0  0.9488900000000001  0.7188  0.35167  1.0000
  C   C197      1.0  0.11103000000000002  0.66365  0.34966  1.0000
  C   C198      1.0  0.00419  0.71854  0.38431  1.0000
  C   C199      1.0  0.05770000000000001  0.66188  0.38434  1.0000
  C   C200      1.0  0.01063  0.77474  0.41598  1.0000
  C   C201      1.0  0.9032800000000001  0.77605  0.34873  1.0000
  C   C202      1.0  0.05622  0.60922  0.41932  1.0000
  C   C203      1.0  0.9652300000000001  0.83195  0.41336  1.0000
  C   C204      1.0  0.9124800000000001  0.83354  0.37886  1.0000
  C   C205      1.0  0.84546  0.7748400000000001  0.31304999999999994  1.0000
  C   C206      1.0  0.11423000000000001  0.72057  0.31259  1.0000
  C   C207      1.0  0.9993  0.60679  0.45647  1.0000
  C   C208      1.0  0.97517  0.89206  0.44658  1.0000
  O   O1        1.0  0.44887  0.44438  0.43568  1.0000
  O   O2        1.0  0.33366000000000007  0.31977  0.30001  1.0000
  O   O3        1.0  0.3820300000000001  0.51427  0.48316  1.0000
  O   O4        1.0  0.21530000000000002  0.32669  0.29776  1.0000
  O   O5        1.0  0.05071000000000001  0.05537999999999999  0.43566  1.0000
  O   O6        1.0  0.16593  0.1807  0.30025  1.0000
  O   O7        1.0  0.11798  0.986  0.48302  1.0000
  O   O8        1.0  0.28445  0.17397000000000007  0.29754  1.0000
  O   O9        1.0  0.05596000000000001  0.44872  0.93583  1.0000
  O   O10       1.0  0.18058  0.33381  0.80006  1.0000
  O   O11       1.0  0.9858100000000001  0.38183  0.98309  1.0000
  O   O12       1.0  0.1739  0.21531  0.79751  1.0000
  O   O13       1.0  0.44554  0.04941  0.9355099999999998  1.0000
  O   O14       1.0  0.31942000000000004  0.16591  0.80002  1.0000
  O   O15       1.0  0.51402  0.11816000000000002  0.9828  1.0000
  O   O16       1.0  0.32648  0.28436  0.79784  1.0000
  O   O17       1.0  0.04942  0.44555  0.06449  1.0000
  O   O18       1.0  0.16592  0.31943  0.19998  1.0000
  O   O19       1.0  0.11817  0.51402  0.01719  1.0000
  O   O20       1.0  0.28437  0.32649  0.20216  1.0000
  O   O21       1.0  0.4487200000000001  0.05596  0.06417  1.0000
  O   O22       1.0  0.33381  0.18058  0.19993999999999998  1.0000
  O   O23       1.0  0.38184  0.98581  0.01691  1.0000
  O   O24       1.0  0.21531000000000003  0.17391  0.20249  1.0000
  O   O25       1.0  0.44438  0.44886  0.56432  1.0000
  O   O26       1.0  0.31977  0.33366  0.6999900000000001  1.0000
  O   O27       1.0  0.5142700000000002  0.38203  0.51684  1.0000
  O   O28       1.0  0.32669  0.2153  0.70224  1.0000
  O   O29       1.0  0.05538  0.05071  0.56434  1.0000
  O   O30       1.0  0.1807  0.16593  0.69975  1.0000
  O   O31       1.0  0.9860000000000001  0.11798  0.51698  1.0000
  O   O32       1.0  0.17397000000000004  0.28445  0.70246  1.0000
  O   O33       1.0  0.55113  0.55561  0.56432  1.0000
  O   O34       1.0  0.66634  0.68023  0.6999900000000001  1.0000
  O   O35       1.0  0.6179700000000001  0.48572  0.51684  1.0000
  O   O36       1.0  0.7846900000000002  0.67331  0.70224  1.0000
  O   O37       1.0  0.94929  0.94461  0.56434  1.0000
  O   O38       1.0  0.83407  0.8193  0.69975  1.0000
  O   O39       1.0  0.8820200000000001  0.013999999999999999  0.51698  1.0000
  O   O40       1.0  0.71555  0.82603  0.70246  1.0000
  O   O41       1.0  0.94404  0.55128  0.06417  1.0000
  O   O42       1.0  0.81942  0.66619  0.19993999999999998  1.0000
  O   O43       1.0  0.0142  0.61816  0.01691  1.0000
  O   O44       1.0  0.82609  0.7846900000000001  0.20249  1.0000
  O   O45       1.0  0.55445  0.95058  0.06449  1.0000
  O   O46       1.0  0.68058  0.83408  0.19998  1.0000
  O   O47       1.0  0.4859800000000001  0.88184  0.01719  1.0000
  O   O48       1.0  0.67352  0.71563  0.20216  1.0000
  O   O49       1.0  0.9505800000000001  0.55445  0.9355099999999998  1.0000
  O   O50       1.0  0.8340800000000002  0.68057  0.80002  1.0000
  O   O51       1.0  0.88183  0.48598  0.9828  1.0000
  O   O52       1.0  0.7156300000000001  0.67351  0.79784  1.0000
  O   O53       1.0  0.55128  0.9440300000000001  0.93583  1.0000
  O   O54       1.0  0.66619  0.81941  0.80006  1.0000
  O   O55       1.0  0.61816  0.014190000000000001  0.98309  1.0000
  O   O56       1.0  0.7846900000000002  0.82609  0.79751  1.0000
  O   O57       1.0  0.5556200000000002  0.55113  0.43568  1.0000
  O   O58       1.0  0.68023  0.66634  0.30001  1.0000
  O   O59       1.0  0.48573  0.61797  0.48316  1.0000
  O   O60       1.0  0.67331  0.7846900000000001  0.29776  1.0000
  O   O61       1.0  0.94462  0.94929  0.43566  1.0000
  O   O62       1.0  0.8193  0.83407  0.30025  1.0000
  O   O63       1.0  0.014  0.88202  0.48302  1.0000
  O   O64       1.0  0.82603  0.71555  0.29754  1.0000
