data_image0
_chemical_formula_structural       Zn8H160C176N32O32
_chemical_formula_sum              "Zn8 H160 C176 N32 O32"
_cell_length_a       12.0407
_cell_length_b       18.35325
_cell_length_c       32.22746000000001
_cell_angle_alpha    88.83213
_cell_angle_beta     86.3795
_cell_angle_gamma    70.78422

_symmetry_space_group_name_H-M    'P 1'
_symmetry_Int_Tables_number       1

loop_
  _symmetry_equiv_pos_as_xyz
  'x,y,z'

loop_
  _atom_site_type_symbol
  _atom_site_label
  _atom_site_symmetry_multiplicity
  _atom_site_fract_x
  _atom_site_fract_y
  _atom_site_fract_z
  _atom_site_occupancy
  Zn  Zn1       1.0  0.8335  0.66829  0.55127  1.0000
  Zn  Zn2       1.0  0.9969199999999999  0.15174  0.65489  1.0000
  Zn  Zn3       1.0  0.49707999999999997  0.6686000000000002  0.94882  1.0000
  Zn  Zn4       1.0  0.84957  0.15343  0.8452  1.0000
  Zn  Zn5       1.0  0.16648999999999994  0.33171  0.44873  1.0000
  Zn  Zn6       1.0  0.00307999999999996  0.84826  0.34511  1.0000
  Zn  Zn7       1.0  0.50291  0.33141  0.05117999999999999  1.0000
  Zn  Zn8       1.0  0.1504199999999999  0.8465700000000003  0.1548  1.0000
  H   H1        1.0  0.8998599999999999  0.68361  0.46079  1.0000
  H   H2        1.0  0.80458  0.72162  0.39651  1.0000
  H   H3        1.0  0.46849000000000013  0.76548  0.46787  1.0000
  H   H4        1.0  0.5833299999999999  0.72535  0.53021  1.0000
  H   H5        1.0  0.39992  0.74629  0.39724  1.0000
  H   H6        1.0  0.40094  0.8355900000000002  0.41733  1.0000
  H   H7        1.0  0.29096  0.85087  0.3551199999999999  1.0000
  H   H8        1.0  0.40744  0.89067  0.34891  1.0000
  H   H9        1.0  0.59801  0.72365  0.28677  1.0000
  H   H10       1.0  0.54583  0.67251  0.32668  1.0000
  H   H11       1.0  0.7090799999999999  0.7093000000000003  0.34949  1.0000
  H   H12       1.0  0.64021  0.8074600000000001  0.33684  1.0000
  H   H13       1.0  0.4778800000000001  0.6899  0.24871999999999994  1.0000
  H   H14       1.0  0.36111999999999994  0.7177300000000002  0.18604  1.0000
  H   H15       1.0  0.13945999999999995  0.9254900000000001  0.23428  1.0000
  H   H16       1.0  0.24418000000000006  0.90919  0.29846  1.0000
  H   H17       1.0  0.025700000000000108  0.73182  0.51848  1.0000
  H   H18       1.0  0.23714999999999986  0.6820900000000002  0.49944  1.0000
  H   H19       1.0  0.22252  0.45254  0.5286  1.0000
  H   H20       1.0  0.011760000000000001  0.5137  0.54604  1.0000
  H   H21       1.0  0.38763  0.41851  0.52544  1.0000
  H   H22       1.0  0.43915  0.4224700000000001  0.4729799999999999  1.0000
  H   H23       1.0  0.4446199999999998  0.5589300000000003  0.4473099999999999  1.0000
  H   H24       1.0  0.39695  0.63448  0.48451  1.0000
  H   H25       1.0  0.51076  0.56102  0.61649  1.0000
  H   H26       1.0  0.47941  0.44492  0.65093  1.0000
  H   H27       1.0  0.6527300000000001  0.32369  0.65764  1.0000
  H   H28       1.0  0.8791699999999999  0.4349200000000001  0.59614  1.0000
  H   H29       1.0  0.8793700000000001  0.7495  0.66757  1.0000
  H   H30       1.0  0.9321199999999998  0.8152700000000002  0.72704  1.0000
  H   H31       1.0  0.9583099999999999  0.94411  0.71571  1.0000
  H   H32       1.0  0.8747800000000001  0.94144  0.58835  1.0000
  H   H33       1.0  0.25568  0.07894  0.65794  1.0000
  H   H34       1.0  0.43134999999999996  0.04049000000000001  0.61065  1.0000
  H   H35       1.0  0.19823999999999997  0.11993  0.50893  1.0000
  H   H36       1.0  0.03414999999999995  0.15231000000000006  0.56135  1.0000
  H   H37       1.0  0.3329  0.10416000000000002  0.47314  1.0000
  H   H38       1.0  0.48421  0.09406000000000003  0.46799  1.0000
  H   H39       1.0  0.61308  0.04098  0.52354  1.0000
  H   H40       1.0  0.55752  0.01117  0.57056  1.0000
  H   H41       1.0  0.41636999999999985  0.6834800000000002  0.03945  1.0000
  H   H42       1.0  0.47421  0.72106  0.10373  1.0000
  H   H43       1.0  0.7655000000000001  0.7654  0.03217  1.0000
  H   H44       1.0  0.6902799999999999  0.7257700000000001  0.96985  1.0000
  H   H45       1.0  0.8540199999999999  0.7461200000000002  0.10273  1.0000
  H   H46       1.0  0.7631500000000001  0.83531  0.08264  1.0000
  H   H47       1.0  0.85821  0.8507900000000002  0.14472  1.0000
  H   H48       1.0  0.7018399999999998  0.8906900000000002  0.15098  1.0000
  H   H49       1.0  0.67881  0.72401  0.21341  1.0000
  H   H50       1.0  0.78226  0.6726200000000001  0.17356  1.0000
  H   H51       1.0  0.5822  0.7091  0.15077  1.0000
  H   H52       1.0  0.5523999999999999  0.80738  0.16324  1.0000
  H   H53       1.0  0.8326300000000001  0.69074  0.25145  1.0000
  H   H54       1.0  0.9211399999999998  0.71911  0.3141  1.0000
  H   H55       1.0  0.9349299999999999  0.9263800000000001  0.26531  1.0000
  H   H56       1.0  0.84674  0.9095000000000001  0.20122  1.0000
  H   H57       1.0  0.24042  0.73253  0.98182  1.0000
  H   H58       1.0  0.07905999999999994  0.6825000000000001  0.0008199999999999998  1.0000
  H   H59       1.0  0.3246899999999999  0.45317000000000013  0.9715099999999998  1.0000
  H   H60       1.0  0.47367999999999993  0.51465  0.95412  1.0000
  H   H61       1.0  0.19439999999999996  0.41885  0.97467  1.0000
  H   H62       1.0  0.13884999999999992  0.42281000000000013  0.02709  1.0000
  H   H63       1.0  0.9955899999999998  0.55915  0.05268  1.0000
  H   H64       1.0  0.96733  0.6345900000000002  0.01546  1.0000
  H   H65       1.0  0.9262100000000001  0.56253  0.88363  1.0000
  H   H66       1.0  0.07505000000000002  0.4466  0.84942  1.0000
  H   H67       1.0  0.024679999999999987  0.3249  0.84259  1.0000
  H   H68       1.0  0.68602  0.4351000000000001  0.90393  1.0000
  H   H69       1.0  0.3707200000000001  0.75052  0.83247  1.0000
  H   H70       1.0  0.25184000000000006  0.81608  0.77307  1.0000
  H   H71       1.0  0.09608999999999993  0.9446100000000001  0.78446  1.0000
  H   H72       1.0  0.18308000000000005  0.94248  0.91176  1.0000
  H   H73       1.0  0.6645300000000001  0.07987  0.84205  1.0000
  H   H74       1.0  0.52817  0.04063  0.88927  1.0000
  H   H75       1.0  0.68145  0.11996  0.99113  1.0000
  H   H76       1.0  0.8123400000000002  0.15303  0.9387299999999997  1.0000
  H   H77       1.0  0.56255  0.1042  0.02687  1.0000
  H   H78       1.0  0.42139999999999994  0.09398  0.032  1.0000
  H   H79       1.0  0.34578999999999993  0.04098  0.97636  1.0000
  H   H80       1.0  0.43153  0.011000000000000001  0.9294  1.0000
  H   H81       1.0  0.10014000000000003  0.3164  0.53921  1.0000
  H   H82       1.0  0.19541000000000008  0.27838  0.6034899999999997  1.0000
  H   H83       1.0  0.5315  0.23452000000000003  0.53213  1.0000
  H   H84       1.0  0.41666999999999993  0.27465  0.46979  1.0000
  H   H85       1.0  0.60008  0.25372  0.60276  1.0000
  H   H86       1.0  0.59905  0.16441  0.58267  1.0000
  H   H87       1.0  0.70904  0.14913000000000004  0.64488  1.0000
  H   H88       1.0  0.59255  0.10934000000000002  0.65109  1.0000
  H   H89       1.0  0.40197999999999995  0.27635  0.71323  1.0000
  H   H90       1.0  0.45416  0.32749  0.67332  1.0000
  H   H91       1.0  0.29091000000000006  0.2907  0.65051  1.0000
  H   H92       1.0  0.35979000000000005  0.19254  0.66316  1.0000
  H   H93       1.0  0.52212  0.3101  0.75128  1.0000
  H   H94       1.0  0.63887  0.28227  0.81396  1.0000
  H   H95       1.0  0.8605399999999999  0.07452  0.76572  1.0000
  H   H96       1.0  0.75581  0.09081000000000002  0.70154  1.0000
  H   H97       1.0  0.9742899999999999  0.26818000000000003  0.48152  1.0000
  H   H98       1.0  0.7628499999999999  0.31791  0.50056  1.0000
  H   H99       1.0  0.7774799999999998  0.54746  0.4714  1.0000
  H   H100      1.0  0.98824  0.48630000000000007  0.45397  1.0000
  H   H101      1.0  0.61236  0.58149  0.47456  1.0000
  H   H102      1.0  0.5608499999999998  0.5775300000000001  0.52702  1.0000
  H   H103      1.0  0.55538  0.44107  0.55269  1.0000
  H   H104      1.0  0.60304  0.36553  0.51549  1.0000
  H   H105      1.0  0.4892399999999999  0.43898  0.38351  1.0000
  H   H106      1.0  0.52059  0.55508  0.34907  1.0000
  H   H107      1.0  0.34726999999999997  0.67631  0.34236  1.0000
  H   H108      1.0  0.12082999999999997  0.5650800000000001  0.40386  1.0000
  H   H109      1.0  0.12062000000000002  0.2505  0.33243  1.0000
  H   H110      1.0  0.06788  0.18473  0.27297  1.0000
  H   H111      1.0  0.04168999999999998  0.05589000000000001  0.28429  1.0000
  H   H112      1.0  0.12522  0.05856000000000001  0.41165  1.0000
  H   H113      1.0  0.7443100000000001  0.92106  0.34206  1.0000
  H   H114      1.0  0.56865  0.95951  0.38935  1.0000
  H   H115      1.0  0.8017500000000002  0.88007  0.49108  1.0000
  H   H116      1.0  0.9658399999999997  0.8476900000000003  0.4386499999999999  1.0000
  H   H117      1.0  0.6671  0.8958400000000002  0.52686  1.0000
  H   H118      1.0  0.51578  0.90594  0.53201  1.0000
  H   H119      1.0  0.38692  0.9590200000000001  0.47646  1.0000
  H   H120      1.0  0.44247999999999993  0.9888300000000001  0.42944  1.0000
  H   H121      1.0  0.58362  0.31653  0.96055  1.0000
  H   H122      1.0  0.5257899999999999  0.27894  0.89627  1.0000
  H   H123      1.0  0.23449  0.23460000000000003  0.96783  1.0000
  H   H124      1.0  0.3097200000000002  0.2742300000000001  0.03015  1.0000
  H   H125      1.0  0.14597999999999994  0.25388000000000005  0.89727  1.0000
  H   H126      1.0  0.23684  0.16469  0.91736  1.0000
  H   H127      1.0  0.14178999999999997  0.14921  0.85528  1.0000
  H   H128      1.0  0.2981599999999999  0.10931  0.84902  1.0000
  H   H129      1.0  0.32117999999999997  0.2759900000000001  0.78659  1.0000
  H   H130      1.0  0.21773999999999982  0.3273800000000001  0.82644  1.0000
  H   H131      1.0  0.41779  0.2909  0.84923  1.0000
  H   H132      1.0  0.4476  0.19262  0.8367599999999997  1.0000
  H   H133      1.0  0.16737000000000002  0.30926  0.74855  1.0000
  H   H134      1.0  0.07885999999999997  0.28089  0.6859  1.0000
  H   H135      1.0  0.06506999999999999  0.07362  0.73469  1.0000
  H   H136      1.0  0.15326000000000004  0.09050000000000002  0.79878  1.0000
  H   H137      1.0  0.75958  0.26747000000000004  0.01818  1.0000
  H   H138      1.0  0.92094  0.31750000000000006  0.99918  1.0000
  H   H139      1.0  0.67531  0.54683  0.02849  1.0000
  H   H140      1.0  0.52632  0.48535000000000006  0.04587999999999998  1.0000
  H   H141      1.0  0.8056  0.58115  0.02532999999999999  1.0000
  H   H142      1.0  0.86115  0.57719  0.97291  1.0000
  H   H143      1.0  0.004409999999999954  0.44085000000000013  0.94732  1.0000
  H   H144      1.0  0.03266999999999998  0.36541  0.98454  1.0000
  H   H145      1.0  0.07379  0.43747  0.11637  1.0000
  H   H146      1.0  0.92495  0.5534000000000002  0.15058  1.0000
  H   H147      1.0  0.9753199999999993  0.6751  0.15741  1.0000
  H   H148      1.0  0.31396999999999986  0.5649000000000001  0.09607  1.0000
  H   H149      1.0  0.62928  0.24948000000000004  0.16753  1.0000
  H   H150      1.0  0.7481600000000002  0.18393  0.22692999999999994  1.0000
  H   H151      1.0  0.9039  0.05539  0.21554  1.0000
  H   H152      1.0  0.81692  0.05753000000000001  0.08824  1.0000
  H   H153      1.0  0.33547  0.92013  0.15795  1.0000
  H   H154      1.0  0.4718300000000001  0.95938  0.11073  1.0000
  H   H155      1.0  0.3185499999999999  0.8800500000000002  0.00887  1.0000
  H   H156      1.0  0.18766000000000002  0.84697  0.06127  1.0000
  H   H157      1.0  0.4374499999999999  0.8958  0.97313  1.0000
  H   H158      1.0  0.5786000000000001  0.90602  0.9679999999999997  1.0000
  H   H159      1.0  0.65421  0.9590200000000001  0.02364  1.0000
  H   H160      1.0  0.56847  0.989  0.0706  1.0000
  C   C1        1.0  0.80416  0.70162  0.46121  1.0000
  C   C2        1.0  0.7487399999999999  0.72227  0.42444  1.0000
  C   C3        1.0  0.62403  0.74623  0.42492999999999986  1.0000
  C   C4        1.0  0.5638999999999998  0.74829  0.46448  1.0000
  C   C5        1.0  0.6268100000000001  0.72688  0.49969  1.0000
  C   C6        1.0  0.43462  0.7944  0.39158  1.0000
  C   C7        1.0  0.3871800000000001  0.83641  0.35193  1.0000
  C   C8        1.0  0.5513299999999999  0.7295000000000003  0.31759  1.0000
  C   C9        1.0  0.6233999999999998  0.7548200000000003  0.34816  1.0000
  C   C10       1.0  0.3740499999999999  0.79804  0.27998  1.0000
  C   C11       1.0  0.4061100000000001  0.74416  0.24673  1.0000
  C   C12       1.0  0.3408500000000001  0.75865  0.21175  1.0000
  C   C13       1.0  0.21558000000000002  0.8745100000000001  0.23884999999999995  1.0000
  C   C14       1.0  0.2749799999999999  0.8647000000000002  0.27485  1.0000
  C   C15       1.0  0.07363000000000006  0.6701  0.51976  1.0000
  C   C16       1.0  0.19308999999999998  0.64128  0.50941  1.0000
  C   C17       1.0  0.25482999999999995  0.5609  0.51252  1.0000
  C   C18       1.0  0.18524  0.51475  0.52599  1.0000
  C   C19       1.0  0.06606999999999995  0.5483400000000002  0.5354499999999998  1.0000
  C   C20       1.0  0.4353099999999999  0.4466500000000001  0.50422  1.0000
  C   C21       1.0  0.44089  0.57237  0.4806  1.0000
  C   C22       1.0  0.71315  0.57545  0.58419  1.0000
  C   C23       1.0  0.69609  0.50478  0.60391  1.0000
  C   C24       1.0  0.58342  0.50736  0.61944  1.0000
  C   C25       1.0  0.5668599999999999  0.44231  0.63852  1.0000
  C   C26       1.0  0.66251  0.37465  0.6421999999999999  1.0000
  C   C27       1.0  0.77565  0.3715  0.62666  1.0000
  C   C28       1.0  0.79152  0.43682  0.6076499999999998  1.0000
  C   C29       1.0  0.8806599999999999  0.30027000000000004  0.63164  1.0000
  C   C30       1.0  0.8456700000000001  0.80074  0.58837  1.0000
  C   C31       1.0  0.8731800000000002  0.8414  0.62446  1.0000
  C   C32       1.0  0.8894  0.80606  0.66375  1.0000
  C   C33       1.0  0.9194699999999999  0.8428100000000002  0.69669  1.0000
  C   C34       1.0  0.9335599999999998  0.91487  0.69065  1.0000
  C   C35       1.0  0.9166400000000001  0.95093  0.65163  1.0000
  C   C36       1.0  0.88625  0.9139700000000002  0.61872  1.0000
  C   C37       1.0  0.93129  0.02823  0.64492  1.0000
  C   C38       1.0  0.24725000000000003  0.08728  0.62458  1.0000
  C   C39       1.0  0.3463  0.06584000000000002  0.59752  1.0000
  C   C40       1.0  0.33501  0.0777  0.5541  1.0000
  C   C41       1.0  0.21784  0.10882  0.54139  1.0000
  C   C42       1.0  0.12421999999999998  0.12817  0.57077  1.0000
  C   C43       1.0  0.42067  0.06728  0.48128  1.0000
  C   C44       1.0  0.54965  0.01421  0.53693  1.0000
  C   C45       1.0  0.49403999999999987  0.7014600000000002  0.03898  1.0000
  C   C46       1.0  0.5291  0.7219000000000002  0.07575  1.0000
  C   C47       1.0  0.62972  0.74593  0.07521  1.0000
  C   C48       1.0  0.68739  0.74817  0.03561  1.0000
  C   C49       1.0  0.6455999999999997  0.727  0.0004099999999999999  1.0000
  C   C50       1.0  0.7709999999999998  0.7941800000000001  0.10842  1.0000
  C   C51       1.0  0.7764599999999997  0.8363900000000002  0.148  1.0000
  C   C52       1.0  0.71959  0.72969  0.18256  1.0000
  C   C53       1.0  0.6221099999999999  0.7547000000000003  0.15198  1.0000
  C   C54       1.0  0.82813  0.79857  0.21997  1.0000
  C   C55       1.0  0.84999  0.74501  0.25335  1.0000
  C   C56       1.0  0.9005899999999997  0.7598200000000003  0.28828999999999994  1.0000
  C   C57       1.0  0.90987  0.8753700000000002  0.26091  1.0000
  C   C58       1.0  0.8604199999999997  0.86524  0.22494  1.0000
  C   C59       1.0  0.25459000000000004  0.67078  0.9805399999999997  1.0000
  C   C60       1.0  0.16414000000000004  0.6418  0.99082  1.0000
  C   C61       1.0  0.1833800000000001  0.56138  0.98763  1.0000
  C   C62       1.0  0.29932  0.51537  0.97418  1.0000
  C   C63       1.0  0.38461000000000006  0.54912  0.9648  1.0000
  C   C64       1.0  0.11834999999999997  0.4468700000000001  0.99585  1.0000
  C   C65       1.0  0.98594  0.57249  0.019379999999999994  1.0000
  C   C66       1.0  0.7090499999999998  0.5762  0.91575  1.0000
  C   C67       1.0  0.7979800000000007  0.5057  0.89616  1.0000
  C   C68       1.0  0.9079299999999999  0.5086500000000003  0.88072  1.0000
  C   C69       1.0  0.9903099999999999  0.44367  0.86174  1.0000
  C   C70       1.0  0.9632600000000001  0.37573  0.85802  1.0000
  C   C71       1.0  0.85347  0.37214  0.87351  1.0000
  C   C72       1.0  0.7715600000000002  0.4374  0.89245  1.0000
  C   C73       1.0  0.8203799999999997  0.3007300000000001  0.86841  1.0000
  C   C74       1.0  0.35262000000000004  0.80101  0.91166  1.0000
  C   C75       1.0  0.28451  0.84224  0.87565  1.0000
  C   C76       1.0  0.3037599999999999  0.80697  0.83634  1.0000
  C   C77       1.0  0.23690000000000003  0.84374  0.8034  1.0000
  C   C78       1.0  0.1503  0.91571  0.80955  1.0000
  C   C79       1.0  0.13128999999999996  0.95208  0.84852  1.0000
  C   C80       1.0  0.19886999999999994  0.9149700000000001  0.8814  1.0000
  C   C81       1.0  0.03923000000000001  0.02973  0.85514  1.0000
  C   C82       1.0  0.6647  0.08802  0.87543  1.0000
  C   C83       1.0  0.5875800000000001  0.06611000000000003  0.9024399999999998  1.0000
  C   C84       1.0  0.58704  0.07778  0.9458999999999997  1.0000
  C   C85       1.0  0.67283  0.10901  0.95865  1.0000
  C   C86       1.0  0.74662  0.1288  0.9292899999999997  1.0000
  C   C87       1.0  0.51183  0.06728  0.01871  1.0000
  C   C88       1.0  0.43617  0.01417  0.96303  1.0000
  C   C89       1.0  0.1958399999999999  0.2983800000000001  0.53879  1.0000
  C   C90       1.0  0.2512599999999999  0.27773  0.57556  1.0000
  C   C91       1.0  0.37597  0.25378  0.57507  1.0000
  C   C92       1.0  0.4360899999999999  0.25171  0.53552  1.0000
  C   C93       1.0  0.37317999999999996  0.2731200000000001  0.50031  1.0000
  C   C94       1.0  0.56538  0.20560000000000006  0.60842  1.0000
  C   C95       1.0  0.61282  0.16359  0.64807  1.0000
  C   C96       1.0  0.4486700000000001  0.2705  0.68241  1.0000
  C   C97       1.0  0.3766  0.24518  0.65184  1.0000
  C   C98       1.0  0.6259500000000001  0.20196  0.72002  1.0000
  C   C99       1.0  0.59388  0.25584  0.75328  1.0000
  C   C100      1.0  0.65915  0.24135000000000004  0.78825  1.0000
  C   C101      1.0  0.78441  0.12549  0.76115  1.0000
  C   C102      1.0  0.7250199999999999  0.1353  0.72515  1.0000
  C   C103      1.0  0.92637  0.3299  0.48024  1.0000
  C   C104      1.0  0.8069099999999999  0.35872  0.49059  1.0000
  C   C105      1.0  0.7451600000000002  0.43911  0.48748  1.0000
  C   C106      1.0  0.8147600000000003  0.48525  0.47401  1.0000
  C   C107      1.0  0.93393  0.4516600000000001  0.46455  1.0000
  C   C108      1.0  0.56469  0.55335  0.49578  1.0000
  C   C109      1.0  0.5591099999999999  0.4276300000000001  0.5194  1.0000
  C   C110      1.0  0.28685000000000005  0.42455  0.41581  1.0000
  C   C111      1.0  0.3039  0.49522000000000005  0.39609  1.0000
  C   C112      1.0  0.41658  0.49264  0.38056  1.0000
  C   C113      1.0  0.4331399999999999  0.5576900000000002  0.36148  1.0000
  C   C114      1.0  0.33749  0.62535  0.3578  1.0000
  C   C115      1.0  0.22434  0.6285  0.3733399999999999  1.0000
  C   C116      1.0  0.20847  0.56318  0.39235  1.0000
  C   C117      1.0  0.11933999999999995  0.69973  0.36836  1.0000
  C   C118      1.0  0.15433  0.19926  0.41163  1.0000
  C   C119      1.0  0.12681999999999993  0.15861000000000006  0.37554  1.0000
  C   C120      1.0  0.11058999999999995  0.19394000000000006  0.33625  1.0000
  C   C121      1.0  0.08053000000000002  0.1572  0.30331  1.0000
  C   C122      1.0  0.06643999999999999  0.08513  0.30935  1.0000
  C   C123      1.0  0.08335999999999999  0.04907  0.34837  1.0000
  C   C124      1.0  0.11373999999999998  0.08603000000000002  0.38128  1.0000
  C   C125      1.0  0.06870999999999992  0.9717700000000001  0.35508  1.0000
  C   C126      1.0  0.7527499999999999  0.91272  0.37541999999999986  1.0000
  C   C127      1.0  0.6537  0.9341600000000001  0.40248  1.0000
  C   C128      1.0  0.66499  0.9223  0.4459  1.0000
  C   C129      1.0  0.7821599999999999  0.89118  0.4586099999999999  1.0000
  C   C130      1.0  0.8757800000000001  0.87183  0.42923  1.0000
  C   C131      1.0  0.57933  0.93272  0.5187199999999998  1.0000
  C   C132      1.0  0.45035000000000003  0.9858  0.46307  1.0000
  C   C133      1.0  0.50596  0.29854  0.96102  1.0000
  C   C134      1.0  0.47090000000000015  0.2781  0.92425  1.0000
  C   C135      1.0  0.37028  0.25407  0.92479  1.0000
  C   C136      1.0  0.31260999999999994  0.25183  0.96439  1.0000
  C   C137      1.0  0.35440000000000005  0.27301  0.99959  1.0000
  C   C138      1.0  0.22898999999999994  0.20582  0.8915799999999998  1.0000
  C   C139      1.0  0.22353999999999993  0.16362  0.852  1.0000
  C   C140      1.0  0.28040999999999994  0.27031000000000005  0.81744  1.0000
  C   C141      1.0  0.37789  0.2453  0.84802  1.0000
  C   C142      1.0  0.17186999999999997  0.20143000000000005  0.78003  1.0000
  C   C143      1.0  0.15001  0.2549900000000001  0.7466499999999998  1.0000
  C   C144      1.0  0.09941000000000001  0.24018  0.71171  1.0000
  C   C145      1.0  0.09013  0.12463000000000002  0.73909  1.0000
  C   C146      1.0  0.13958  0.13476  0.77506  1.0000
  C   C147      1.0  0.74541  0.32922  0.01946  1.0000
  C   C148      1.0  0.8358599999999999  0.35820000000000013  0.00918  1.0000
  C   C149      1.0  0.81662  0.4386200000000001  0.01237  1.0000
  C   C150      1.0  0.70068  0.48463000000000006  0.02582  1.0000
  C   C151      1.0  0.61538  0.45088  0.0352  1.0000
  C   C152      1.0  0.8816399999999999  0.5531300000000001  0.00415  1.0000
  C   C153      1.0  0.014059999999999967  0.42751000000000006  0.98062  1.0000
  C   C154      1.0  0.29094999999999993  0.4238000000000001  0.08425  1.0000
  C   C155      1.0  0.20201999999999998  0.4943  0.10384  1.0000
  C   C156      1.0  0.09206999999999999  0.49135  0.11929  1.0000
  C   C157      1.0  0.00968999999999999  0.55633  0.13826  1.0000
  C   C158      1.0  0.036729999999999964  0.62428  0.14198  1.0000
  C   C159      1.0  0.14653000000000005  0.62786  0.12649  1.0000
  C   C160      1.0  0.22842999999999997  0.5626  0.10755  1.0000
  C   C161      1.0  0.17961999999999984  0.6992700000000002  0.13159  1.0000
  C   C162      1.0  0.64737  0.19899000000000006  0.08834  1.0000
  C   C163      1.0  0.71549  0.15776000000000007  0.12435  1.0000
  C   C164      1.0  0.69624  0.19303000000000006  0.16366  1.0000
  C   C165      1.0  0.7631  0.15626  0.1966  1.0000
  C   C166      1.0  0.8496999999999999  0.08429  0.19045  1.0000
  C   C167      1.0  0.86871  0.04792  0.15148  1.0000
  C   C168      1.0  0.8011199999999999  0.08503  0.1186  1.0000
  C   C169      1.0  0.96077  0.97027  0.14486  1.0000
  C   C170      1.0  0.33529999999999993  0.91198  0.12458  1.0000
  C   C171      1.0  0.4124199999999999  0.9338900000000001  0.09756  1.0000
  C   C172      1.0  0.41295999999999994  0.9222200000000003  0.0541  1.0000
  C   C173      1.0  0.3271699999999999  0.8909900000000002  0.04135  1.0000
  C   C174      1.0  0.25337999999999994  0.8712000000000002  0.07071  1.0000
  C   C175      1.0  0.4881700000000001  0.93272  0.98129  1.0000
  C   C176      1.0  0.56383  0.98584  0.03697  1.0000
  N   N1        1.0  0.74602  0.70296  0.49874  1.0000
  N   N2        1.0  0.56381  0.7666200000000002  0.38963  1.0000
  N   N3        1.0  0.4343499999999999  0.78701  0.31541  1.0000
  N   N4        1.0  0.24683999999999998  0.82301  0.20713  1.0000
  N   N5        1.0  0.00857999999999993  0.6251500000000001  0.53249  1.0000
  N   N6        1.0  0.37400000000000005  0.53002  0.50409  1.0000
  N   N7        1.0  0.13642  0.11911000000000001  0.61223  1.0000
  N   N8        1.0  0.43129  0.06230000000000001  0.52636  1.0000
  N   N9        1.0  0.5503899999999999  0.7030600000000002  0.00139  1.0000
  N   N10       1.0  0.66981  0.76624  0.11047  1.0000
  N   N11       1.0  0.77884  0.78725  0.18461  1.0000
  N   N12       1.0  0.9301  0.82421  0.29277  1.0000
  N   N13       1.0  0.36481  0.6259200000000001  0.96785  1.0000
  N   N14       1.0  0.09544999999999998  0.5302700000000002  0.99597  1.0000
  N   N15       1.0  0.7433299999999999  0.12006  0.88781  1.0000
  N   N16       1.0  0.50626  0.062270000000000006  0.97362  1.0000
  N   N17       1.0  0.25397000000000003  0.29704  0.50126  1.0000
  N   N18       1.0  0.43619  0.23338  0.61037  1.0000
  N   N19       1.0  0.5656500000000001  0.21299  0.68459  1.0000
  N   N20       1.0  0.75316  0.17699  0.79287  1.0000
  N   N21       1.0  0.99142  0.3748500000000001  0.46751  1.0000
  N   N22       1.0  0.6260000000000001  0.46997999999999995  0.4959199999999999  1.0000
  N   N23       1.0  0.8635800000000001  0.88089  0.38777  1.0000
  N   N24       1.0  0.5687000000000001  0.9377  0.47364  1.0000
  N   N25       1.0  0.44961000000000007  0.29694  0.9986099999999999  1.0000
  N   N26       1.0  0.33018999999999993  0.23376000000000002  0.88953  1.0000
  N   N27       1.0  0.22115999999999997  0.21275000000000005  0.81539  1.0000
  N   N28       1.0  0.06989000000000004  0.17579  0.7072299999999998  1.0000
  N   N29       1.0  0.63518  0.3740800000000001  0.03215  1.0000
  N   N30       1.0  0.90455  0.46973  0.00403  1.0000
  N   N31       1.0  0.25667  0.87995  0.11219  1.0000
  N   N32       1.0  0.49374000000000007  0.93773  0.02638  1.0000
  O   O1        1.0  0.82136  0.56907  0.57289  1.0000
  O   O2        1.0  0.62604  0.63473  0.57929  1.0000
  O   O3        1.0  0.85546  0.24009000000000003  0.64574  1.0000
  O   O4        1.0  0.9828699999999999  0.3018100000000001  0.62302  1.0000
  O   O5        1.0  0.82697  0.7365  0.59784  1.0000
  O   O6        1.0  0.8440299999999995  0.8285800000000002  0.55233  1.0000
  O   O7        1.0  0.89974  0.06589  0.61235  1.0000
  O   O8        1.0  0.97652  0.05317  0.67518  1.0000
  O   O9        1.0  0.6078  0.56908  0.9271  1.0000
  O   O10       1.0  0.73497  0.6362  0.92058  1.0000
  O   O11       1.0  0.90578  0.24053000000000002  0.85424  1.0000
  O   O12       1.0  0.71671  0.302  0.87702  1.0000
  O   O13       1.0  0.43382999999999994  0.73594  0.90212  1.0000
  O   O14       1.0  0.32786  0.82887  0.94775  1.0000
  O   O15       1.0  0.03377999999999999  0.0681  0.88744  1.0000
  O   O16       1.0  0.96833  0.054230000000000014  0.82503  1.0000
  O   O17       1.0  0.17863999999999997  0.43093  0.42711  1.0000
  O   O18       1.0  0.37396  0.36527  0.42071  1.0000
  O   O19       1.0  0.14453999999999997  0.75991  0.35426  1.0000
  O   O20       1.0  0.01712999999999998  0.69819  0.37698  1.0000
  O   O21       1.0  0.17302999999999988  0.2635  0.40216  1.0000
  O   O22       1.0  0.15596000000000002  0.17143  0.44768  1.0000
  O   O23       1.0  0.10026000000000004  0.93411  0.3876499999999999  1.0000
  O   O24       1.0  0.023479999999999987  0.9468300000000001  0.32482  1.0000
  O   O25       1.0  0.39219999999999994  0.43092  0.07291  1.0000
  O   O26       1.0  0.26503  0.36381  0.07942  1.0000
  O   O27       1.0  0.09422000000000003  0.75947  0.14576  1.0000
  O   O28       1.0  0.2832899999999999  0.6980000000000002  0.12298  1.0000
  O   O29       1.0  0.56617  0.26406  0.09788  1.0000
  O   O30       1.0  0.67214  0.17114  0.05225  1.0000
  O   O31       1.0  0.96622  0.9319  0.11256  1.0000
  O   O32       1.0  0.03167000000000001  0.94577  0.17497  1.0000
