data_image0
_chemical_formula_structural       Cu8H192C232N32O64
_chemical_formula_sum              "Cu8 H192 C232 N32 O64"
_cell_length_a       15.23209
_cell_length_b       19.954229999999995
_cell_length_c       26.26929
_cell_angle_alpha    90.0068
_cell_angle_beta     89.98675
_cell_angle_gamma    89.76669000000001

_symmetry_space_group_name_H-M    'P 1'
_symmetry_Int_Tables_number       1

loop_
  _symmetry_equiv_pos_as_xyz
  'x,y,z'

loop_
  _atom_site_type_symbol
  _atom_site_label
  _atom_site_symmetry_multiplicity
  _atom_site_fract_x
  _atom_site_fract_y
  _atom_site_fract_z
  _atom_site_occupancy
  Cu  Cu1       1.0  0.49238  0.75675  0.9987899999999998  1.0000
  Cu  Cu2       1.0  0.99358  0.74671  0.50158  1.0000
  Cu  Cu3       1.0  0.006760000000000003  0.24417  0.9980799999999999  1.0000
  Cu  Cu4       1.0  0.50698  0.25403  0.5012  1.0000
  Cu  Cu5       1.0  0.50763  0.24324999999999997  0.00121  1.0000
  Cu  Cu6       1.0  0.00642  0.25329  0.49842  1.0000
  Cu  Cu7       1.0  0.99325  0.7558299999999999  0.00192  1.0000
  Cu  Cu8       1.0  0.49303000000000013  0.74597  0.49880999999999986  1.0000
  H   H1        1.0  0.82002  0.9053899999999999  0.2457  1.0000
  H   H2        1.0  0.84843  0.96804  0.19946999999999998  1.0000
  H   H3        1.0  0.75916  0.9114499999999999  0.03396  1.0000
  H   H4        1.0  0.66178  0.84087  0.9790099999999999  1.0000
  H   H5        1.0  0.51314  0.78293  0.10397  1.0000
  H   H6        1.0  0.60408  0.84998  0.16311  1.0000
  H   H7        1.0  0.7931500000000001  0.07882  0.30599  1.0000
  H   H8        1.0  0.87843  0.04778  0.26589  1.0000
  H   H9        1.0  0.8029700000000002  0.9075  0.39209  1.0000
  H   H10       1.0  0.83243  0.8119999999999999  0.45083  1.0000
  H   H11       1.0  0.10172999999999999  0.83684  0.43867  1.0000
  H   H12       1.0  0.08345  0.93521  0.38084  1.0000
  H   H13       1.0  0.63107  0.06128  0.77195  1.0000
  H   H14       1.0  0.71142  0.07267  0.8204799999999998  1.0000
  H   H15       1.0  0.48625  0.0167  0.9505499999999999  1.0000
  H   H16       1.0  0.42486  0.9207099999999999  0.00022  1.0000
  H   H17       1.0  0.52192  0.78314  0.89639  1.0000
  H   H18       1.0  0.59199  0.8721  0.8445699999999999  1.0000
  H   H19       1.0  0.64669  0.9705  0.70892  1.0000
  H   H20       1.0  0.6747900000000002  0.90685  0.75317  1.0000
  H   H21       1.0  0.89952  0.92027  0.64126  1.0000
  H   H22       1.0  0.00186  0.87292  0.57763  1.0000
  H   H23       1.0  0.83091  0.71789  0.54257  1.0000
  H   H24       1.0  0.71913  0.7605  0.6039  1.0000
  H   H25       1.0  0.31774  0.59509  0.2522  1.0000
  H   H26       1.0  0.3475  0.53357  0.29919  1.0000
  H   H27       1.0  0.25807  0.58896  0.46447  1.0000
  H   H28       1.0  0.16125  0.6594  0.52012  1.0000
  H   H29       1.0  0.01017  0.71889  0.39627  1.0000
  H   H30       1.0  0.10061  0.65219  0.33627  1.0000
  H   H31       1.0  0.29811  0.42207999999999996  0.19275  1.0000
  H   H32       1.0  0.38109  0.45465  0.23351  1.0000
  H   H33       1.0  0.3033  0.59412  0.10699  1.0000
  H   H34       1.0  0.33104  0.68993  0.04859  1.0000
  H   H35       1.0  0.60088  0.66543  0.06056  1.0000
  H   H36       1.0  0.5842  0.56653  0.11775999999999999  1.0000
  H   H37       1.0  0.13354  0.43904  0.72899  1.0000
  H   H38       1.0  0.21366000000000004  0.42695  0.68028  1.0000
  H   H39       1.0  0.98799  0.48292999999999997  0.55042  1.0000
  H   H40       1.0  0.9256100000000003  0.57899  0.50075  1.0000
  H   H41       1.0  0.02188  0.71661  0.60401  1.0000
  H   H42       1.0  0.09338  0.62784  0.65575  1.0000
  H   H43       1.0  0.14749  0.5288  0.7913099999999998  1.0000
  H   H44       1.0  0.17747  0.59347  0.74838  1.0000
  H   H45       1.0  0.40156  0.57861  0.86025  1.0000
  H   H46       1.0  0.50383  0.62759  0.92286  1.0000
  H   H47       1.0  0.3313500000000001  0.78336  0.95616  1.0000
  H   H48       1.0  0.21954000000000007  0.73943  0.89578  1.0000
  H   H49       1.0  0.6802400000000002  0.09512  0.24535  1.0000
  H   H50       1.0  0.65219  0.03238  0.19914  1.0000
  H   H51       1.0  0.74228  0.08822  0.03398  1.0000
  H   H52       1.0  0.83809  0.15976  0.97895  1.0000
  H   H53       1.0  0.98744  0.21802  0.10345  1.0000
  H   H54       1.0  0.8979300000000002  0.15053  0.16279  1.0000
  H   H55       1.0  0.70519  0.92113  0.30518  1.0000
  H   H56       1.0  0.6204800000000001  0.95372  0.26539  1.0000
  H   H57       1.0  0.6957900000000002  0.0919  0.39174  1.0000
  H   H58       1.0  0.66747  0.18745  0.4504599999999999  1.0000
  H   H59       1.0  0.39791  0.16366  0.43901  1.0000
  H   H60       1.0  0.41497  0.06537  0.3811899999999999  1.0000
  H   H61       1.0  0.8669  0.93893  0.77187  1.0000
  H   H62       1.0  0.78722  0.92698  0.8206899999999999  1.0000
  H   H63       1.0  0.01253  0.98338  0.95027  1.0000
  H   H64       1.0  0.07449000000000003  0.07925  0.9998299999999999  1.0000
  H   H65       1.0  0.9779  0.21685  0.89602  1.0000
  H   H66       1.0  0.90698  0.12804  0.84444  1.0000
  H   H67       1.0  0.85075  0.02838  0.7087  1.0000
  H   H68       1.0  0.8233  0.0923  0.7529499999999999  1.0000
  H   H69       1.0  0.59845  0.07964  0.64081  1.0000
  H   H70       1.0  0.4970000000000001  0.12773  0.57674  1.0000
  H   H71       1.0  0.6696000000000001  0.28205  0.54276  1.0000
  H   H72       1.0  0.78044  0.23862  0.60434  1.0000
  H   H73       1.0  0.18193000000000006  0.4051  0.25246  1.0000
  H   H74       1.0  0.15266  0.4668999999999999  0.29913  1.0000
  H   H75       1.0  0.24101  0.41062  0.46454  1.0000
  H   H76       1.0  0.33906  0.34094  0.52021  1.0000
  H   H77       1.0  0.48972  0.28166  0.39599999999999996  1.0000
  H   H78       1.0  0.3979600000000001  0.34802  0.33611  1.0000
  H   H79       1.0  0.20391  0.57613  0.19117999999999996  1.0000
  H   H80       1.0  0.12069  0.54577  0.23269  1.0000
  H   H81       1.0  0.1974  0.4051  0.10655  1.0000
  H   H82       1.0  0.16877  0.30959  0.04797  1.0000
  H   H83       1.0  0.89915  0.33474  0.06061  1.0000
  H   H84       1.0  0.9166400000000001  0.43341  0.11828  1.0000
  H   H85       1.0  0.36831  0.56098  0.72864  1.0000
  H   H86       1.0  0.28729  0.57292  0.6805099999999998  1.0000
  H   H87       1.0  0.51289  0.51698  0.55001  1.0000
  H   H88       1.0  0.57527  0.4207  0.50022  1.0000
  H   H89       1.0  0.47845  0.28331  0.60374  1.0000
  H   H90       1.0  0.40774  0.37247  0.65561  1.0000
  H   H91       1.0  0.35403  0.47013  0.79163  1.0000
  H   H92       1.0  0.32427  0.40601999999999994  0.74819  1.0000
  H   H93       1.0  0.09997000000000003  0.42152  0.85994  1.0000
  H   H94       1.0  0.99662  0.37271  0.92205  1.0000
  H   H95       1.0  0.16825000000000004  0.21647  0.95591  1.0000
  H   H96       1.0  0.28104  0.26063  0.89621  1.0000
  H   H97       1.0  0.17999  0.09461  0.75431  1.0000
  H   H98       1.0  0.15157000000000004  0.03196  0.80053  1.0000
  H   H99       1.0  0.24085  0.08855  0.96605  1.0000
  H   H100      1.0  0.3382300000000001  0.15913  0.02099  1.0000
  H   H101      1.0  0.4868600000000001  0.21706  0.89603  1.0000
  H   H102      1.0  0.39593000000000006  0.15002  0.83689  1.0000
  H   H103      1.0  0.20686000000000002  0.9211799999999999  0.69401  1.0000
  H   H104      1.0  0.12158  0.95222  0.73411  1.0000
  H   H105      1.0  0.19704  0.0925  0.60791  1.0000
  H   H106      1.0  0.16758000000000006  0.18799  0.54917  1.0000
  H   H107      1.0  0.8982800000000002  0.16316  0.56133  1.0000
  H   H108      1.0  0.91656  0.06479  0.61916  1.0000
  H   H109      1.0  0.3689300000000001  0.93872  0.22804999999999997  1.0000
  H   H110      1.0  0.28859  0.9273299999999999  0.17952  1.0000
  H   H111      1.0  0.51375  0.9833  0.04945  1.0000
  H   H112      1.0  0.57515  0.07929  0.99978  1.0000
  H   H113      1.0  0.47808  0.21686000000000002  0.10361  1.0000
  H   H114      1.0  0.40801  0.12789  0.15543  1.0000
  H   H115      1.0  0.35332  0.029499999999999995  0.29108  1.0000
  H   H116      1.0  0.32522  0.09315  0.24683  1.0000
  H   H117      1.0  0.10049000000000001  0.07973  0.35874  1.0000
  H   H118      1.0  0.9981500000000001  0.12708  0.42237  1.0000
  H   H119      1.0  0.16910000000000003  0.28211  0.45743  1.0000
  H   H120      1.0  0.28087  0.23949999999999996  0.3961  1.0000
  H   H121      1.0  0.68227  0.40491  0.7478  1.0000
  H   H122      1.0  0.65251  0.46643  0.70081  1.0000
  H   H123      1.0  0.74194  0.41104  0.53553  1.0000
  H   H124      1.0  0.83876  0.3406  0.47988  1.0000
  H   H125      1.0  0.98983  0.28111  0.60373  1.0000
  H   H126      1.0  0.8994  0.34781  0.66373  1.0000
  H   H127      1.0  0.7019000000000002  0.57792  0.80725  1.0000
  H   H128      1.0  0.61892  0.54535  0.76649  1.0000
  H   H129      1.0  0.6967  0.40588  0.89301  1.0000
  H   H130      1.0  0.66896  0.31007  0.95141  1.0000
  H   H131      1.0  0.39913  0.33457  0.93944  1.0000
  H   H132      1.0  0.4158  0.43346999999999997  0.88225  1.0000
  H   H133      1.0  0.86646  0.56096  0.27101  1.0000
  H   H134      1.0  0.78634  0.57305  0.31971999999999995  1.0000
  H   H135      1.0  0.012020000000000001  0.51707  0.4495799999999999  1.0000
  H   H136      1.0  0.0744  0.42101  0.49925  1.0000
  H   H137      1.0  0.97812  0.28339  0.39599  1.0000
  H   H138      1.0  0.90663  0.37216  0.34424999999999994  1.0000
  H   H139      1.0  0.85252  0.47119999999999995  0.20869  1.0000
  H   H140      1.0  0.82253  0.40652999999999995  0.25162  1.0000
  H   H141      1.0  0.59845  0.42138999999999993  0.13975  1.0000
  H   H142      1.0  0.4961800000000001  0.37241  0.07714  1.0000
  H   H143      1.0  0.6686500000000002  0.21664  0.04383999999999999  1.0000
  H   H144      1.0  0.7804600000000003  0.26057  0.10421999999999998  1.0000
  H   H145      1.0  0.31977  0.90488  0.75465  1.0000
  H   H146      1.0  0.34781  0.9676199999999999  0.80086  1.0000
  H   H147      1.0  0.2577300000000001  0.91178  0.96602  1.0000
  H   H148      1.0  0.16192000000000006  0.84024  0.02105  1.0000
  H   H149      1.0  0.01256  0.7819699999999999  0.89655  1.0000
  H   H150      1.0  0.10208  0.8494699999999998  0.83721  1.0000
  H   H151      1.0  0.2948100000000001  0.07887  0.69482  1.0000
  H   H152      1.0  0.37952  0.04628  0.7346099999999999  1.0000
  H   H153      1.0  0.30422  0.9081  0.60826  1.0000
  H   H154      1.0  0.3325300000000001  0.8125399999999999  0.54954  1.0000
  H   H155      1.0  0.6021  0.83634  0.56099  1.0000
  H   H156      1.0  0.58504  0.93463  0.61881  1.0000
  H   H157      1.0  0.1331  0.061070000000000006  0.22813999999999998  1.0000
  H   H158      1.0  0.21279  0.07302  0.17931  1.0000
  H   H159      1.0  0.98747  0.01662  0.04973  1.0000
  H   H160      1.0  0.9255100000000003  0.9207500000000001  0.00017  1.0000
  H   H161      1.0  0.02211  0.78314  0.10398  1.0000
  H   H162      1.0  0.09303  0.8719599999999998  0.15556  1.0000
  H   H163      1.0  0.14925  0.9716199999999999  0.2913  1.0000
  H   H164      1.0  0.17671  0.9077  0.24704999999999996  1.0000
  H   H165      1.0  0.40156  0.9203599999999998  0.35919  1.0000
  H   H166      1.0  0.503  0.87227  0.42326  1.0000
  H   H167      1.0  0.33041  0.71795  0.45724  1.0000
  H   H168      1.0  0.21956  0.76138  0.39567  1.0000
  H   H169      1.0  0.81808  0.5949  0.7475399999999999  1.0000
  H   H170      1.0  0.84735  0.5331  0.70087  1.0000
  H   H171      1.0  0.759  0.58938  0.53546  1.0000
  H   H172      1.0  0.66095  0.65906  0.47979  1.0000
  H   H173      1.0  0.51028  0.71834  0.604  1.0000
  H   H174      1.0  0.60204  0.65198  0.66389  1.0000
  H   H175      1.0  0.79609  0.42386999999999997  0.8088199999999999  1.0000
  H   H176      1.0  0.87931  0.45423  0.76731  1.0000
  H   H177      1.0  0.8026  0.5949  0.89345  1.0000
  H   H178      1.0  0.83124  0.69041  0.95204  1.0000
  H   H179      1.0  0.10086  0.66526  0.9394  1.0000
  H   H180      1.0  0.08337  0.56659  0.88172  1.0000
  H   H181      1.0  0.6316900000000001  0.43902  0.27136  1.0000
  H   H182      1.0  0.71271  0.42707999999999996  0.31948999999999994  1.0000
  H   H183      1.0  0.48712  0.48302  0.44998999999999995  1.0000
  H   H184      1.0  0.42474000000000006  0.5793  0.49978  1.0000
  H   H185      1.0  0.5215599999999999  0.71669  0.39626  1.0000
  H   H186      1.0  0.59226  0.62753  0.34439  1.0000
  H   H187      1.0  0.64597  0.52987  0.20837  1.0000
  H   H188      1.0  0.67573  0.59398  0.25181  1.0000
  H   H189      1.0  0.9000400000000002  0.57848  0.14006  1.0000
  H   H190      1.0  0.00339  0.62729  0.07795  1.0000
  H   H191      1.0  0.8317500000000002  0.78353  0.04408999999999999  1.0000
  H   H192      1.0  0.7189700000000001  0.73937  0.10379  1.0000
  C   C1        1.0  0.79477  0.9462200000000001  0.22171  1.0000
  C   C2        1.0  0.75627  0.9187999999999998  0.13603  1.0000
  C   C3        1.0  0.69168  0.88502  0.10348  1.0000
  C   C4        1.0  0.70522  0.8830899999999999  0.05031  1.0000
  C   C5        1.0  0.65186  0.84376  0.02003  1.0000
  C   C6        1.0  0.56867  0.81155  0.08992  1.0000
  C   C7        1.0  0.61923  0.8494299999999999  0.12272  1.0000
  C   C8        1.0  0.8203500000000002  0.03358  0.28806  1.0000
  C   C9        1.0  0.931  0.98182  0.34226  1.0000
  C   C10       1.0  0.94159  0.92933  0.38085  1.0000
  C   C11       1.0  0.8699  0.89389  0.40187999999999996  1.0000
  C   C12       1.0  0.88607  0.8405699999999999  0.43436  1.0000
  C   C13       1.0  0.03678  0.855  0.42807  1.0000
  C   C14       1.0  0.026509999999999995  0.9095  0.39598  1.0000
  C   C15       1.0  0.68032  0.03564  0.7955299999999998  1.0000
  C   C16       1.0  0.5887400000000003  0.00834  0.86655  1.0000
  C   C17       1.0  0.54789  0.9523499999999999  0.89464  1.0000
  C   C18       1.0  0.49867  0.9652900000000001  0.93876  1.0000
  C   C19       1.0  0.46294  0.9120599999999999  0.9657199999999999  1.0000
  C   C20       1.0  0.51715  0.83551  0.90772  1.0000
  C   C21       1.0  0.55652  0.8851500000000001  0.87908  1.0000
  C   C22       1.0  0.7015200000000003  0.9473499999999999  0.72973  1.0000
  C   C23       1.0  0.73529  0.8654300000000001  0.66684  1.0000
  C   C24       1.0  0.79965  0.8437999999999999  0.62817  1.0000
  C   C25       1.0  0.88048  0.87616  0.61962  1.0000
  C   C26       1.0  0.9384600000000001  0.84949  0.58417  1.0000
  C   C27       1.0  0.84245  0.76342  0.56426  1.0000
  C   C28       1.0  0.78069  0.78695  0.59851  1.0000
  C   C29       1.0  0.29329  0.55484  0.27692  1.0000
  C   C30       1.0  0.25235  0.58057  0.36292  1.0000
  C   C31       1.0  0.18904  0.61576  0.39539  1.0000
  C   C32       1.0  0.20363  0.61758  0.44849  1.0000
  C   C33       1.0  0.1506  0.65692  0.47919  1.0000
  C   C34       1.0  0.0661  0.68998  0.40986  1.0000
  C   C35       1.0  0.11649  0.65227  0.37656  1.0000
  C   C36       1.0  0.32279  0.46769  0.21112  1.0000
  C   C37       1.0  0.43203  0.5201  0.15672  1.0000
  C   C38       1.0  0.44209  0.57278  0.1184  1.0000
  C   C39       1.0  0.37001  0.60827  0.09749  1.0000
  C   C40       1.0  0.38522  0.66185  0.06527  1.0000
  C   C41       1.0  0.5361600000000002  0.64748  0.0714  1.0000
  C   C42       1.0  0.5268  0.59259  0.10315  1.0000
  C   C43       1.0  0.18274000000000007  0.46420000000000006  0.70525  1.0000
  C   C44       1.0  0.08962  0.49137  0.63475  1.0000
  C   C45       1.0  0.049  0.54727  0.60624  1.0000
  C   C46       1.0  0.9998  0.53432  0.56226  1.0000
  C   C47       1.0  0.96345  0.58761  0.53528  1.0000
  C   C48       1.0  0.01729  0.66419  0.59289  1.0000
  C   C49       1.0  0.05747  0.61454  0.6215599999999999  1.0000
  C   C50       1.0  0.20312000000000005  0.55195  0.7714199999999999  1.0000
  C   C51       1.0  0.23648000000000005  0.6329  0.8348  1.0000
  C   C52       1.0  0.30083  0.65538  0.87284  1.0000
  C   C53       1.0  0.38202  0.62308  0.8813999999999999  1.0000
  C   C54       1.0  0.44002  0.65078  0.91639  1.0000
  C   C55       1.0  0.34318  0.73732  0.9352499999999999  1.0000
  C   C56       1.0  0.28131  0.71293  0.90145  1.0000
  C   C57       1.0  0.70575  0.05421  0.22148  1.0000
  C   C58       1.0  0.7461  0.08032  0.13582  1.0000
  C   C59       1.0  0.81002  0.11473  0.10337  1.0000
  C   C60       1.0  0.79609  0.11682  0.05024  1.0000
  C   C61       1.0  0.84862  0.15668  0.019879999999999995  1.0000
  C   C62       1.0  0.93211  0.18908  0.08953  1.0000
  C   C63       1.0  0.88223  0.15087  0.12246  1.0000
  C   C64       1.0  0.67865  0.9669399999999999  0.28778  1.0000
  C   C65       1.0  0.56768  0.01869  0.34182999999999997  1.0000
  C   C66       1.0  0.55698  0.07085  0.38047  1.0000
  C   C67       1.0  0.62899  0.10583999999999999  0.40158  1.0000
  C   C68       1.0  0.6135  0.15921  0.43409  1.0000
  C   C69       1.0  0.4626800000000001  0.14539  0.42816999999999994  1.0000
  C   C70       1.0  0.47230000000000005  0.09086999999999999  0.39599999999999996  1.0000
  C   C71       1.0  0.8175  0.9642199999999999  0.79558  1.0000
  C   C72       1.0  0.9084500000000002  0.9918899999999999  0.86671  1.0000
  C   C73       1.0  0.95066  0.04772  0.89446  1.0000
  C   C74       1.0  0.0002  0.03474  0.93841  1.0000
  C   C75       1.0  0.03639  0.0879  0.96536  1.0000
  C   C76       1.0  0.9825000000000003  0.1645  0.9073899999999999  1.0000
  C   C77       1.0  0.94265  0.11492  0.8788099999999999  1.0000
  C   C78       1.0  0.7962000000000002  0.05187  0.72957  1.0000
  C   C79       1.0  0.76306  0.13396  0.66676  1.0000
  C   C80       1.0  0.69909  0.15564  0.62791  1.0000
  C   C81       1.0  0.61804  0.1236  0.61919  1.0000
  C   C82       1.0  0.56058  0.15076  0.58361  1.0000
  C   C83       1.0  0.65746  0.23650999999999997  0.56421  1.0000
  C   C84       1.0  0.71876  0.21245999999999998  0.59855  1.0000
  C   C85       1.0  0.20687  0.44534  0.27704  1.0000
  C   C86       1.0  0.24527  0.41792999999999997  0.36299  1.0000
  C   C87       1.0  0.30985  0.38394  0.39552999999999994  1.0000
  C   C88       1.0  0.29571000000000003  0.38226  0.44862  1.0000
  C   C89       1.0  0.34942  0.34334  0.47924  1.0000
  C   C90       1.0  0.43375  0.31052  0.40966  1.0000
  C   C91       1.0  0.38275  0.348  0.37649  1.0000
  C   C92       1.0  0.17886000000000005  0.53142  0.21057  1.0000
  C   C93       1.0  0.06987  0.47923999999999994  0.15658  1.0000
  C   C94       1.0  0.05876000000000001  0.42671  0.1183  1.0000
  C   C95       1.0  0.13053000000000006  0.39124  0.09713  1.0000
  C   C96       1.0  0.11485  0.33789  0.06476  1.0000
  C   C97       1.0  0.96398  0.35266  0.07134  1.0000
  C   C98       1.0  0.97374  0.40730999999999995  0.10329  1.0000
  C   C99       1.0  0.3189300000000001  0.53565  0.70517  1.0000
  C   C100      1.0  0.41037  0.50875  0.63383  1.0000
  C   C101      1.0  0.45168  0.4528  0.60567  1.0000
  C   C102      1.0  0.50118  0.46553  0.56173  1.0000
  C   C103      1.0  0.53749  0.41213999999999995  0.53484  1.0000
  C   C104      1.0  0.48332  0.33576  0.59263  1.0000
  C   C105      1.0  0.44343  0.38557  0.62126  1.0000
  C   C106      1.0  0.29855  0.44741  0.77134  1.0000
  C   C107      1.0  0.26544  0.36704  0.8351599999999999  1.0000
  C   C108      1.0  0.20044  0.34486  0.8730599999999998  1.0000
  C   C109      1.0  0.11909000000000003  0.37705  0.8812599999999999  1.0000
  C   C110      1.0  0.06051  0.34951  0.9158599999999999  1.0000
  C   C111      1.0  0.15683  0.26276  0.93509  1.0000
  C   C112      1.0  0.21926  0.28711999999999993  0.90177  1.0000
  C   C113      1.0  0.74983  0.00021000000000000004  0.25458  1.0000
  C   C114      1.0  0.74878  0.99974  0.7623799999999998  1.0000
  C   C115      1.0  0.25052  0.49982  0.24433999999999997  1.0000
  C   C116      1.0  0.251  0.4998099999999999  0.73847  1.0000
  C   C117      1.0  0.20524  0.05378  0.77829  1.0000
  C   C118      1.0  0.24374  0.0812  0.86397  1.0000
  C   C119      1.0  0.30833  0.11498  0.89652  1.0000
  C   C120      1.0  0.29479  0.11691  0.94969  1.0000
  C   C121      1.0  0.34815  0.15624  0.9799699999999998  1.0000
  C   C122      1.0  0.43134  0.18845  0.9100799999999999  1.0000
  C   C123      1.0  0.38078  0.15057  0.87729  1.0000
  C   C124      1.0  0.17966  0.96642  0.71194  1.0000
  C   C125      1.0  0.06901  0.01818  0.65773  1.0000
  C   C126      1.0  0.05842  0.07067  0.61915  1.0000
  C   C127      1.0  0.1301  0.10611  0.59812  1.0000
  C   C128      1.0  0.11393000000000003  0.15943  0.56564  1.0000
  C   C129      1.0  0.96323  0.145  0.57193  1.0000
  C   C130      1.0  0.9735000000000003  0.0905  0.60402  1.0000
  C   C131      1.0  0.31969  0.9643599999999999  0.20448  1.0000
  C   C132      1.0  0.4112600000000001  0.9916700000000002  0.13346  1.0000
  C   C133      1.0  0.45212  0.04765  0.10536  1.0000
  C   C134      1.0  0.50133  0.03471  0.061239999999999996  1.0000
  C   C135      1.0  0.5370700000000003  0.08794  0.03428  1.0000
  C   C136      1.0  0.4828600000000001  0.16449  0.09227999999999999  1.0000
  C   C137      1.0  0.44349000000000005  0.11484999999999998  0.12092  1.0000
  C   C138      1.0  0.2984800000000001  0.052649999999999995  0.27027  1.0000
  C   C139      1.0  0.2647100000000001  0.13457  0.33316  1.0000
  C   C140      1.0  0.20036  0.1562  0.37184  1.0000
  C   C141      1.0  0.11952  0.12384  0.38038  1.0000
  C   C142      1.0  0.061550000000000014  0.15051  0.41582999999999987  1.0000
  C   C143      1.0  0.15756000000000006  0.23658  0.43574  1.0000
  C   C144      1.0  0.21932000000000004  0.21305  0.40149  1.0000
  C   C145      1.0  0.70671  0.44516  0.72309  1.0000
  C   C146      1.0  0.7476500000000003  0.41943  0.63708  1.0000
  C   C147      1.0  0.8109700000000002  0.38424  0.60461  1.0000
  C   C148      1.0  0.79637  0.38242  0.55151  1.0000
  C   C149      1.0  0.8494  0.34308  0.52081  1.0000
  C   C150      1.0  0.93391  0.31002  0.59014  1.0000
  C   C151      1.0  0.88352  0.34773  0.62344  1.0000
  C   C152      1.0  0.67722  0.53231  0.78888  1.0000
  C   C153      1.0  0.56798  0.4799  0.8432799999999999  1.0000
  C   C154      1.0  0.55792  0.42722  0.8816  1.0000
  C   C155      1.0  0.63  0.39173  0.90251  1.0000
  C   C156      1.0  0.6147800000000002  0.33814  0.93473  1.0000
  C   C157      1.0  0.46385  0.35252  0.9286  1.0000
  C   C158      1.0  0.47321000000000013  0.40740999999999994  0.89685  1.0000
  C   C159      1.0  0.81726  0.5358  0.29475  1.0000
  C   C160      1.0  0.91038  0.50863  0.36525  1.0000
  C   C161      1.0  0.95101  0.45272999999999997  0.39376  1.0000
  C   C162      1.0  0.00020999999999999987  0.46568000000000004  0.43774  1.0000
  C   C163      1.0  0.03655  0.41237999999999997  0.46472  1.0000
  C   C164      1.0  0.9827200000000003  0.33581  0.40710999999999997  1.0000
  C   C165      1.0  0.94254  0.38546  0.37845  1.0000
  C   C166      1.0  0.79689  0.44805000000000006  0.22857999999999998  1.0000
  C   C167      1.0  0.76353  0.3671  0.1652  1.0000
  C   C168      1.0  0.69918  0.34462  0.12716  1.0000
  C   C169      1.0  0.61798  0.37692  0.11859999999999998  1.0000
  C   C170      1.0  0.55999  0.34922  0.08361  1.0000
  C   C171      1.0  0.65683  0.26268  0.06475  1.0000
  C   C172      1.0  0.7187  0.28707  0.09855  1.0000
  C   C173      1.0  0.29426000000000013  0.9457899999999999  0.77852  1.0000
  C   C174      1.0  0.2539  0.91968  0.86418  1.0000
  C   C175      1.0  0.18999000000000005  0.88527  0.89663  1.0000
  C   C176      1.0  0.20391  0.8831800000000001  0.94976  1.0000
  C   C177      1.0  0.15139  0.8433199999999998  0.98012  1.0000
  C   C178      1.0  0.0679  0.81092  0.91047  1.0000
  C   C179      1.0  0.11778  0.84913  0.87754  1.0000
  C   C180      1.0  0.32135  0.03306  0.71222  1.0000
  C   C181      1.0  0.43233  0.98131  0.65817  1.0000
  C   C182      1.0  0.4430300000000001  0.92915  0.61953  1.0000
  C   C183      1.0  0.37101  0.89416  0.59842  1.0000
  C   C184      1.0  0.38650000000000007  0.84079  0.56591  1.0000
  C   C185      1.0  0.53733  0.8546099999999999  0.57183  1.0000
  C   C186      1.0  0.52771  0.90913  0.604  1.0000
  C   C187      1.0  0.1825  0.03578  0.20442  1.0000
  C   C188      1.0  0.09156  0.00812  0.13329  1.0000
  C   C189      1.0  0.04934  0.9522799999999999  0.10554  1.0000
  C   C190      1.0  0.9998  0.96526  0.06159  1.0000
  C   C191      1.0  0.9636100000000002  0.9121  0.03464  1.0000
  C   C192      1.0  0.01751  0.8354999999999999  0.09261  1.0000
  C   C193      1.0  0.05736  0.8850799999999999  0.12119  1.0000
  C   C194      1.0  0.2038  0.94813  0.27043  1.0000
  C   C195      1.0  0.23695  0.8660400000000001  0.33324  1.0000
  C   C196      1.0  0.3009200000000001  0.84436  0.37209  1.0000
  C   C197      1.0  0.38197  0.8764  0.38081  1.0000
  C   C198      1.0  0.43943  0.84924  0.41639  1.0000
  C   C199      1.0  0.34255  0.76349  0.43579  1.0000
  C   C200      1.0  0.28125  0.78754  0.40145  1.0000
  C   C201      1.0  0.79314  0.55466  0.7229599999999998  1.0000
  C   C202      1.0  0.75473  0.58207  0.63701  1.0000
  C   C203      1.0  0.69015  0.61606  0.60447  1.0000
  C   C204      1.0  0.7043  0.61774  0.55138  1.0000
  C   C205      1.0  0.65059  0.65666  0.52076  1.0000
  C   C206      1.0  0.5662600000000002  0.68948  0.59035  1.0000
  C   C207      1.0  0.61726  0.652  0.62351  1.0000
  C   C208      1.0  0.8211400000000002  0.46858  0.7894299999999999  1.0000
  C   C209      1.0  0.93013  0.52076  0.84343  1.0000
  C   C210      1.0  0.94125  0.57329  0.8817  1.0000
  C   C211      1.0  0.8694700000000002  0.60876  0.90287  1.0000
  C   C212      1.0  0.8851500000000002  0.66211  0.93524  1.0000
  C   C213      1.0  0.03602  0.64734  0.9286599999999999  1.0000
  C   C214      1.0  0.02627  0.59269  0.89671  1.0000
  C   C215      1.0  0.68108  0.46435  0.29484  1.0000
  C   C216      1.0  0.58964  0.49124999999999996  0.36617  1.0000
  C   C217      1.0  0.54832  0.54719  0.39433  1.0000
  C   C218      1.0  0.49882  0.53447  0.43827  1.0000
  C   C219      1.0  0.4625200000000001  0.58786  0.46515999999999996  1.0000
  C   C220      1.0  0.51669  0.66424  0.40737  1.0000
  C   C221      1.0  0.55657  0.61443  0.37874  1.0000
  C   C222      1.0  0.7014600000000002  0.55258  0.22866  1.0000
  C   C223      1.0  0.73456  0.63296  0.16484  1.0000
  C   C224      1.0  0.79956  0.65514  0.12694  1.0000
  C   C225      1.0  0.88091  0.62295  0.11875  1.0000
  C   C226      1.0  0.9395  0.65049  0.08414999999999999  1.0000
  C   C227      1.0  0.84317  0.73724  0.06491  1.0000
  C   C228      1.0  0.78075  0.71288  0.09823  1.0000
  C   C229      1.0  0.25018  0.99979  0.7454199999999999  1.0000
  C   C230      1.0  0.25122  0.00026  0.23762  1.0000
  C   C231      1.0  0.74949  0.50018  0.7556599999999999  1.0000
  C   C232      1.0  0.74901  0.50019  0.26153  1.0000
  N   N1        1.0  0.58489  0.80601  0.0391  1.0000
  N   N2        1.0  0.96814  0.81923  0.44669999999999993  1.0000
  N   N3        1.0  0.47133  0.84723  0.95117  1.0000
  N   N4        1.0  0.9222100000000002  0.7926  0.55732  1.0000
  N   N5        1.0  0.08284  0.69476  0.46068  1.0000
  N   N6        1.0  0.4670700000000001  0.68354  0.05306  1.0000
  N   N7        1.0  0.97124  0.65233  0.54975  1.0000
  N   N8        1.0  0.42311  0.70812  0.9424199999999999  1.0000
  N   N9        1.0  0.91536  0.19478  0.038759999999999996  1.0000
  N   N10       1.0  0.53162  0.18107  0.44650999999999996  1.0000
  N   N11       1.0  0.028210000000000006  0.15272  0.9507899999999999  1.0000
  N   N12       1.0  0.5775300000000002  0.20762000000000003  0.557  1.0000
  N   N13       1.0  0.4172900000000001  0.30576  0.4605  1.0000
  N   N14       1.0  0.032810000000000006  0.31663  0.0527  1.0000
  N   N15       1.0  0.52934  0.34741  0.54937  1.0000
  N   N16       1.0  0.07676  0.29196  0.94195  1.0000
  N   N17       1.0  0.4151200000000001  0.19398999999999997  0.9608999999999999  1.0000
  N   N18       1.0  0.03187  0.18077  0.5533  1.0000
  N   N19       1.0  0.52867  0.15277  0.04883  1.0000
  N   N20       1.0  0.07780000000000002  0.2074  0.44269  1.0000
  N   N21       1.0  0.9171700000000003  0.30523999999999996  0.53932  1.0000
  N   N22       1.0  0.53294  0.31646  0.94694  1.0000
  N   N23       1.0  0.028760000000000008  0.34767  0.45025  1.0000
  N   N24       1.0  0.5769000000000002  0.29188  0.057579999999999985  1.0000
  N   N25       1.0  0.08465  0.80522  0.96124  1.0000
  N   N26       1.0  0.46838  0.81893  0.55349  1.0000
  N   N27       1.0  0.9718000000000002  0.84728  0.04921  1.0000
  N   N28       1.0  0.4224700000000001  0.7923799999999999  0.443  1.0000
  N   N29       1.0  0.58272  0.69424  0.5395  1.0000
  N   N30       1.0  0.9672000000000002  0.68337  0.9473  1.0000
  N   N31       1.0  0.47066000000000013  0.65259  0.45063  1.0000
  N   N32       1.0  0.92324  0.70804  0.05806  1.0000
  O   O1        1.0  0.73289  0.9160699999999999  0.18687  1.0000
  O   O2        1.0  0.82431  0.9446399999999999  0.12093  1.0000
  O   O3        1.0  0.8445300000000002  0.98715  0.32806  1.0000
  O   O4        1.0  0.9908800000000002  0.01549  0.32339  1.0000
  O   O5        1.0  0.63702  0.98493  0.82604  1.0000
  O   O6        1.0  0.58278  0.06756  0.87769  1.0000
  O   O7        1.0  0.76463  0.9198199999999999  0.69381  1.0000
  O   O8        1.0  0.6637400000000002  0.83877  0.67432  1.0000
  O   O9        1.0  0.23124  0.5852499999999999  0.31172  1.0000
  O   O10       1.0  0.31919  0.55211  0.37888999999999995  1.0000
  O   O11       1.0  0.3459  0.51488  0.17159  1.0000
  O   O12       1.0  0.4923400000000001  0.4858199999999999  0.17483  1.0000
  O   O13       1.0  0.13959000000000002  0.51478  0.67427  1.0000
  O   O14       1.0  0.08196000000000003  0.43143  0.62444  1.0000
  O   O15       1.0  0.26514  0.57795  0.8084  1.0000
  O   O16       1.0  0.16452  0.66019  0.82709  1.0000
  O   O17       1.0  0.76849  0.08374  0.18679999999999997  1.0000
  O   O18       1.0  0.67845  0.05392  0.12050999999999998  1.0000
  O   O19       1.0  0.65438  0.01264  0.32819  1.0000
  O   O20       1.0  0.50768  0.98532  0.32248999999999994  1.0000
  O   O21       1.0  0.86071  0.015229999999999999  0.8259799999999999  1.0000
  O   O22       1.0  0.91329  0.9326500000000001  0.87853  1.0000
  O   O23       1.0  0.73331  0.07966  0.69362  1.0000
  O   O24       1.0  0.83464  0.16062  0.67434  1.0000
  O   O25       1.0  0.26876  0.41500999999999993  0.31209  1.0000
  O   O26       1.0  0.17672000000000002  0.44372  0.3784799999999999  1.0000
  O   O27       1.0  0.15572  0.483  0.17186  1.0000
  O   O28       1.0  0.01042  0.51471  0.1745  1.0000
  O   O29       1.0  0.362  0.48524  0.67407  1.0000
  O   O30       1.0  0.41605000000000003  0.56865  0.6230899999999999  1.0000
  O   O31       1.0  0.23592000000000005  0.42136999999999997  0.80805  1.0000
  O   O32       1.0  0.33726  0.34032  0.82806  1.0000
  O   O33       1.0  0.26711  0.08392999999999999  0.81313  1.0000
  O   O34       1.0  0.17569  0.05535  0.87908  1.0000
  O   O35       1.0  0.15548  0.012849999999999999  0.67195  1.0000
  O   O36       1.0  0.00913  0.9845099999999999  0.6766099999999999  1.0000
  O   O37       1.0  0.36298  0.01507  0.17396  1.0000
  O   O38       1.0  0.4172300000000001  0.93243  0.12231  1.0000
  O   O39       1.0  0.23538  0.08018  0.3062  1.0000
  O   O40       1.0  0.33626  0.16122999999999998  0.32568  1.0000
  O   O41       1.0  0.76877  0.41475  0.68828  1.0000
  O   O42       1.0  0.68082  0.44788999999999995  0.62111  1.0000
  O   O43       1.0  0.6541  0.48511999999999994  0.82842  1.0000
  O   O44       1.0  0.50766  0.51418  0.8251699999999998  1.0000
  O   O45       1.0  0.86042  0.48521999999999993  0.32573  1.0000
  O   O46       1.0  0.91804  0.56857  0.37556  1.0000
  O   O47       1.0  0.7348700000000001  0.42205  0.19161  1.0000
  O   O48       1.0  0.83548  0.33981  0.17291  1.0000
  O   O49       1.0  0.23152000000000006  0.91626  0.8132  1.0000
  O   O50       1.0  0.32155  0.94608  0.87949  1.0000
  O   O51       1.0  0.34562  0.98736  0.67181  1.0000
  O   O52       1.0  0.49233  0.014689999999999998  0.67751  1.0000
  O   O53       1.0  0.13929000000000002  0.9847599999999999  0.17402  1.0000
  O   O54       1.0  0.08671  0.06734  0.12147999999999999  1.0000
  O   O55       1.0  0.2667  0.92034  0.30637999999999993  1.0000
  O   O56       1.0  0.16537  0.83938  0.32565999999999995  1.0000
  O   O57       1.0  0.73124  0.58499  0.6879099999999999  1.0000
  O   O58       1.0  0.8232800000000002  0.55628  0.62152  1.0000
  O   O59       1.0  0.84429  0.517  0.82814  1.0000
  O   O60       1.0  0.9895900000000002  0.48528999999999994  0.8255  1.0000
  O   O61       1.0  0.638  0.51476  0.32593  1.0000
  O   O62       1.0  0.58396  0.43135  0.37691  1.0000
  O   O63       1.0  0.76409  0.57863  0.19195  1.0000
  O   O64       1.0  0.66274  0.65968  0.17194999999999996  1.0000
