data_image0
_chemical_formula_structural       Zn6H138C192N30O36
_chemical_formula_sum              "Zn6 H138 C192 N30 O36"
_cell_length_a       16.61934
_cell_length_b       16.62229
_cell_length_c       25.71405
_cell_angle_alpha    90.0
_cell_angle_beta     90.0
_cell_angle_gamma    120.04163999999999

_space_group_name_H-M_alt    "P 1"
_space_group_IT_number       1

loop_
  _space_group_symop_operation_xyz
  'x, y, z'

loop_
  _atom_site_type_symbol
  _atom_site_label
  _atom_site_symmetry_multiplicity
  _atom_site_fract_x
  _atom_site_fract_y
  _atom_site_fract_z
  _atom_site_occupancy
  Zn  Zn1       1.0  0.28577  0.57151  0.00028999999999999995  1.0000
  Zn  Zn2       1.0  0.42849  0.71423  0.33332999999999996  1.0000
  Zn  Zn3       1.0  0.28574  0.71424  0.6665499999999999  1.0000
  Zn  Zn4       1.0  0.71423  0.42849  0.00028999999999999995  1.0000
  Zn  Zn5       1.0  0.57151  0.28577  0.33332999999999996  1.0000
  Zn  Zn6       1.0  0.71426  0.28576  0.6665499999999999  1.0000
  H   H1        1.0  0.17768  0.77743  0.08399999999999998  1.0000
  H   H2        1.0  0.36685  0.46849  0.9413899999999998  1.0000
  H   H3        1.0  0.42538  0.36035  0.9639299999999998  1.0000
  H   H4        1.0  0.36328  0.38363  0.12472999999999998  1.0000
  H   H5        1.0  0.3122199999999999  0.49248  0.09637  1.0000
  H   H6        1.0  0.52567  0.21743  0.03297  1.0000
  H   H7        1.0  0.56148  0.09114  0.03996  1.0000
  H   H8        1.0  0.41757  0.0055  0.18597999999999998  1.0000
  H   H9        1.0  0.38302999999999987  0.13602  0.18021  1.0000
  H   H10       1.0  0.46358  0.28907  0.027329999999999997  1.0000
  H   H11       1.0  0.13588999999999998  0.88145  0.19988  1.0000
  H   H12       1.0  0.22251  0.40038  0.41725999999999996  1.0000
  H   H13       1.0  0.53155  0.89833  0.27469  1.0000
  H   H14       1.0  0.6398299999999999  0.06531  0.29731  1.0000
  H   H15       1.0  0.6165499999999998  0.97975  0.45804  1.0000
  H   H16       1.0  0.50752  0.81965  0.42963  1.0000
  H   H17       1.0  0.78254  0.30816  0.36629  1.0000
  H   H18       1.0  0.9089099999999998  0.47055  0.3734  1.0000
  H   H19       1.0  0.9945799999999999  0.41228  0.51932  1.0000
  H   H20       1.0  0.86386  0.24676  0.51346  1.0000
  H   H21       1.0  0.7108799999999997  0.17460000000000003  0.3607099999999999  1.0000
  H   H22       1.0  0.11966  0.25425  0.53332  1.0000
  H   H23       1.0  0.59941  0.82221  0.75055  1.0000
  H   H24       1.0  0.10162999999999998  0.6331799999999999  0.60801  1.0000
  H   H25       1.0  0.9347399999999998  0.57452  0.63066  1.0000
  H   H26       1.0  0.020500000000000008  0.63684  0.7913899999999999  1.0000
  H   H27       1.0  0.18044  0.68789  0.7629299999999998  1.0000
  H   H28       1.0  0.6918799999999999  0.47437  0.69972  1.0000
  H   H29       1.0  0.5296299999999998  0.43844  0.70669  1.0000
  H   H30       1.0  0.58778  0.58235  0.8526699999999998  1.0000
  H   H31       1.0  0.7530900000000001  0.6170600000000002  0.8469299999999997  1.0000
  H   H32       1.0  0.82546  0.53641  0.6940399999999999  1.0000
  H   H33       1.0  0.7456199999999996  0.8640899999999999  0.86646  1.0000
  H   H34       1.0  0.8223199999999998  0.22257  0.08399999999999998  1.0000
  H   H35       1.0  0.63315  0.53151  0.9413899999999998  1.0000
  H   H36       1.0  0.57462  0.63965  0.9639299999999998  1.0000
  H   H37       1.0  0.6367199999999997  0.61637  0.12472999999999998  1.0000
  H   H38       1.0  0.68778  0.50752  0.09637  1.0000
  H   H39       1.0  0.47433  0.78257  0.03297  1.0000
  H   H40       1.0  0.43852  0.90886  0.03996  1.0000
  H   H41       1.0  0.58243  0.9945  0.18597999999999998  1.0000
  H   H42       1.0  0.61697  0.86398  0.18021  1.0000
  H   H43       1.0  0.5364199999999999  0.7109299999999998  0.027329999999999997  1.0000
  H   H44       1.0  0.86411  0.11856  0.19988  1.0000
  H   H45       1.0  0.77749  0.59962  0.41725999999999996  1.0000
  H   H46       1.0  0.46845  0.10167  0.27469  1.0000
  H   H47       1.0  0.36017  0.93469  0.29731  1.0000
  H   H48       1.0  0.38345  0.02025  0.45804  1.0000
  H   H49       1.0  0.49248  0.18035  0.42963  1.0000
  H   H50       1.0  0.21745999999999993  0.69184  0.36629  1.0000
  H   H51       1.0  0.09109  0.52945  0.3734  1.0000
  H   H52       1.0  0.00541999999999997  0.58773  0.51932  1.0000
  H   H53       1.0  0.13614  0.75325  0.51346  1.0000
  H   H54       1.0  0.28912  0.8254  0.3607099999999999  1.0000
  H   H55       1.0  0.8803499999999997  0.74576  0.53332  1.0000
  H   H56       1.0  0.40058  0.17779  0.75055  1.0000
  H   H57       1.0  0.89837  0.36683000000000004  0.60801  1.0000
  H   H58       1.0  0.06526  0.42548  0.63066  1.0000
  H   H59       1.0  0.9794999999999999  0.36316  0.7913899999999999  1.0000
  H   H60       1.0  0.81956  0.31211  0.7629299999999998  1.0000
  H   H61       1.0  0.30811999999999995  0.52563  0.69972  1.0000
  H   H62       1.0  0.47037  0.56156  0.70669  1.0000
  H   H63       1.0  0.41222  0.41765  0.8526699999999998  1.0000
  H   H64       1.0  0.24690999999999996  0.38295  0.8469299999999997  1.0000
  H   H65       1.0  0.17454  0.46359  0.6940399999999999  1.0000
  H   H66       1.0  0.25438  0.13591  0.86646  1.0000
  H   H67       1.0  0.77733  0.17775  0.24950999999999998  1.0000
  H   H68       1.0  0.46840999999999977  0.36689  0.3919899999999999  1.0000
  H   H69       1.0  0.3602799999999999  0.4254200000000001  0.3693199999999999  1.0000
  H   H70       1.0  0.38375000000000004  0.36317000000000005  0.20858999999999994  1.0000
  H   H71       1.0  0.49254999999999993  0.31213  0.23707  1.0000
  H   H72       1.0  0.21753  0.52567  0.30028999999999995  1.0000
  H   H73       1.0  0.09117000000000001  0.56143  0.29337  1.0000
  H   H74       1.0  0.0054099999999999895  0.41751  0.14734999999999998  1.0000
  H   H75       1.0  0.13599  0.38303  0.15306  1.0000
  H   H76       1.0  0.289  0.4634  0.30596999999999996  1.0000
  H   H77       1.0  0.88063  0.13518  0.13346  1.0000
  H   H78       1.0  0.4004400000000001  0.22265  0.9160499999999999  1.0000
  H   H79       1.0  0.8984199999999999  0.53159  0.05872999999999999  1.0000
  H   H80       1.0  0.06538000000000001  0.6399  0.03602  1.0000
  H   H81       1.0  0.97954  0.6164  0.8753299999999999  1.0000
  H   H82       1.0  0.8194899999999998  0.50739  0.90383  1.0000
  H   H83       1.0  0.30814999999999987  0.78251  0.96701  1.0000
  H   H84       1.0  0.47055  0.90889  0.9599199999999998  1.0000
  H   H85       1.0  0.41226  0.99457  0.81402  1.0000
  H   H86       1.0  0.24671999999999997  0.86384  0.81987  1.0000
  H   H87       1.0  0.17458  0.71088  0.9726199999999998  1.0000
  H   H88       1.0  0.2543  0.11929  0.80007  1.0000
  H   H89       1.0  0.8222300000000001  0.59958  0.58277  1.0000
  H   H90       1.0  0.63321  0.10169  0.72531  1.0000
  H   H91       1.0  0.57453  0.93483  0.7027399999999999  1.0000
  H   H92       1.0  0.63677  0.02034  0.54196  1.0000
  H   H93       1.0  0.68785  0.18032  0.57036  1.0000
  H   H94       1.0  0.47437  0.6918  0.6336899999999998  1.0000
  H   H95       1.0  0.43839999999999996  0.52959  0.6266599999999998  1.0000
  H   H96       1.0  0.5823099999999998  0.58782  0.4806699999999999  1.0000
  H   H97       1.0  0.6170600000000002  0.7530900000000001  0.48647  1.0000
  H   H98       1.0  0.53628  0.8254  0.6392999999999999  1.0000
  H   H99       1.0  0.8638100000000001  0.74574  0.46691  1.0000
  H   H100      1.0  0.22267  0.82225  0.24950999999999998  1.0000
  H   H101      1.0  0.53159  0.63311  0.3919899999999999  1.0000
  H   H102      1.0  0.63972  0.57458  0.3693199999999999  1.0000
  H   H103      1.0  0.61625  0.63683  0.20858999999999994  1.0000
  H   H104      1.0  0.5074499999999998  0.6878699999999999  0.23707  1.0000
  H   H105      1.0  0.78247  0.47433  0.30028999999999995  1.0000
  H   H106      1.0  0.90883  0.43857  0.29337  1.0000
  H   H107      1.0  0.9945899999999999  0.58249  0.14734999999999998  1.0000
  H   H108      1.0  0.8640099999999997  0.61697  0.15306  1.0000
  H   H109      1.0  0.711  0.5366  0.30596999999999996  1.0000
  H   H110      1.0  0.11937000000000003  0.86483  0.13346  1.0000
  H   H111      1.0  0.59956  0.77735  0.9160499999999999  1.0000
  H   H112      1.0  0.10158  0.46841  0.05872999999999999  1.0000
  H   H113      1.0  0.93462  0.3601  0.03602  1.0000
  H   H114      1.0  0.020459999999999975  0.38359999999999994  0.8753299999999999  1.0000
  H   H115      1.0  0.18051  0.49261  0.90383  1.0000
  H   H116      1.0  0.69185  0.21749  0.96701  1.0000
  H   H117      1.0  0.52945  0.09111  0.9599199999999998  1.0000
  H   H118      1.0  0.58774  0.00543  0.81402  1.0000
  H   H119      1.0  0.7532799999999997  0.13617  0.81987  1.0000
  H   H120      1.0  0.82542  0.28913  0.9726199999999998  1.0000
  H   H121      1.0  0.7457  0.88071  0.80007  1.0000
  H   H122      1.0  0.17777  0.40042  0.58277  1.0000
  H   H123      1.0  0.36679  0.89831  0.72531  1.0000
  H   H124      1.0  0.4254699999999999  0.06517  0.7027399999999999  1.0000
  H   H125      1.0  0.3632199999999999  0.97966  0.54196  1.0000
  H   H126      1.0  0.31215  0.81968  0.57036  1.0000
  H   H127      1.0  0.52563  0.30821  0.6336899999999998  1.0000
  H   H128      1.0  0.5615999999999998  0.47042000000000006  0.6266599999999998  1.0000
  H   H129      1.0  0.41769000000000006  0.41219000000000006  0.4806699999999999  1.0000
  H   H130      1.0  0.38293999999999995  0.24691  0.48647  1.0000
  H   H131      1.0  0.46372  0.17460000000000003  0.6392999999999999  1.0000
  H   H132      1.0  0.1362  0.25426  0.46691  1.0000
  H   H133      1.0  0.32953  0.67062  0.16669  1.0000
  H   H134      1.0  0.32953  0.65898  0.49994999999999995  1.0000
  H   H135      1.0  0.3408699999999999  0.6704  0.83337  1.0000
  H   H136      1.0  0.67047  0.32938  0.16669  1.0000
  H   H137      1.0  0.67047  0.34102  0.49994999999999995  1.0000
  H   H138      1.0  0.6591300000000001  0.3296  0.83337  1.0000
  C   C1        1.0  0.26045  0.67841  0.07018  1.0000
  C   C2        1.0  0.25306  0.71916  0.12062999999999997  1.0000
  C   C3        1.0  0.20524  0.76864  0.12061  1.0000
  C   C4        1.0  0.36798  0.44811  0.98155  1.0000
  C   C5        1.0  0.39999  0.38803  0.99406  1.0000
  C   C6        1.0  0.39978  0.3627  0.04653999999999999  1.0000
  C   C7        1.0  0.36715  0.40124  0.08401  1.0000
  C   C8        1.0  0.33707  0.46134  0.06798  1.0000
  C   C9        1.0  0.42050999999999994  0.25552  0.10495999999999997  1.0000
  C   C10       1.0  0.4499  0.1841  0.10624  1.0000
  C   C11       1.0  0.50054  0.17154  0.06657  1.0000
  C   C12       1.0  0.52078  0.1  0.07017  1.0000
  C   C13       1.0  0.49101999999999996  0.03925  0.11288999999999998  1.0000
  C   C14       1.0  0.44256999999999996  0.05353  0.15327  1.0000
  C   C15       1.0  0.42232000000000003  0.12515  0.14991999999999997  1.0000
  C   C16       1.0  0.3218500000000001  0.5821800000000001  0.40347999999999995  1.0000
  C   C17       1.0  0.2810499999999999  0.53398  0.45394  1.0000
  C   C18       1.0  0.23138999999999996  0.43662  0.45391  1.0000
  C   C19       1.0  0.55197  0.91991  0.3148299999999999  1.0000
  C   C20       1.0  0.61203  0.012059999999999998  0.3273699999999999  1.0000
  C   C21       1.0  0.63729  0.03709  0.37987  1.0000
  C   C22       1.0  0.5988  0.96589  0.41733  1.0000
  C   C23       1.0  0.5387  0.87567  0.40126  1.0000
  C   C24       1.0  0.74449  0.16496999999999998  0.43829  1.0000
  C   C25       1.0  0.81593  0.26582  0.43956  1.0000
  C   C26       1.0  0.8284399999999997  0.32904  0.3999  1.0000
  C   C27       1.0  0.8999999999999998  0.42087  0.40355  1.0000
  C   C28       1.0  0.96073  0.45177  0.4462799999999999  1.0000
  C   C29       1.0  0.94647  0.38904  0.4866499999999999  1.0000
  C   C30       1.0  0.87483  0.29711  0.48325999999999997  1.0000
  C   C31       1.0  0.4178099999999999  0.73968  0.73681  1.0000
  C   C32       1.0  0.46588  0.74695  0.7872699999999999  1.0000
  C   C33       1.0  0.56324  0.79475  0.78721  1.0000
  C   C34       1.0  0.08009000000000001  0.63203  0.64816  1.0000
  C   C35       1.0  0.98797  0.59996  0.6607199999999998  1.0000
  C   C36       1.0  0.96295  0.60021  0.71322  1.0000
  C   C37       1.0  0.03420999999999997  0.63291  0.7506599999999998  1.0000
  C   C38       1.0  0.12441999999999999  0.66302  0.7345599999999998  1.0000
  C   C39       1.0  0.83509  0.57951  0.7716699999999999  1.0000
  C   C40       1.0  0.73425  0.55015  0.77297  1.0000
  C   C41       1.0  0.6710199999999997  0.49944  0.7333  1.0000
  C   C42       1.0  0.5792  0.47920000000000007  0.7368899999999999  1.0000
  C   C43       1.0  0.54824  0.509  0.7795999999999998  1.0000
  C   C44       1.0  0.61099  0.55746  0.8199899999999998  1.0000
  C   C45       1.0  0.7029  0.57772  0.8166399999999998  1.0000
  C   C46       1.0  0.73955  0.32158999999999993  0.07018  1.0000
  C   C47       1.0  0.7469400000000002  0.28084  0.12062999999999997  1.0000
  C   C48       1.0  0.79476  0.23136  0.12061  1.0000
  C   C49       1.0  0.63202  0.55189  0.98155  1.0000
  C   C50       1.0  0.60001  0.61197  0.99406  1.0000
  C   C51       1.0  0.60022  0.6373  0.04653999999999999  1.0000
  C   C52       1.0  0.6328499999999999  0.59876  0.08401  1.0000
  C   C53       1.0  0.66293  0.53866  0.06798  1.0000
  C   C54       1.0  0.57949  0.74448  0.10495999999999997  1.0000
  C   C55       1.0  0.5501  0.8159  0.10624  1.0000
  C   C56       1.0  0.49946  0.82847  0.06657  1.0000
  C   C57       1.0  0.47922  0.9  0.07017  1.0000
  C   C58       1.0  0.50898  0.96076  0.11288999999999998  1.0000
  C   C59       1.0  0.55743  0.94647  0.15327  1.0000
  C   C60       1.0  0.57768  0.87485  0.14991999999999997  1.0000
  C   C61       1.0  0.67815  0.41782  0.40347999999999995  1.0000
  C   C62       1.0  0.71895  0.46602  0.45394  1.0000
  C   C63       1.0  0.7686099999999999  0.56338  0.45391  1.0000
  C   C64       1.0  0.44803  0.08009  0.3148299999999999  1.0000
  C   C65       1.0  0.38797  0.98794  0.3273699999999999  1.0000
  C   C66       1.0  0.36271  0.96291  0.37987  1.0000
  C   C67       1.0  0.4011999999999999  0.03411  0.41733  1.0000
  C   C68       1.0  0.4613  0.12434  0.40126  1.0000
  C   C69       1.0  0.25551  0.83503  0.43829  1.0000
  C   C70       1.0  0.18407000000000007  0.73418  0.43956  1.0000
  C   C71       1.0  0.17156000000000002  0.67096  0.3999  1.0000
  C   C72       1.0  0.09999999999999996  0.57913  0.40355  1.0000
  C   C73       1.0  0.03926000000000001  0.54823  0.4462799999999999  1.0000
  C   C74       1.0  0.05353  0.61096  0.4866499999999999  1.0000
  C   C75       1.0  0.12517  0.70289  0.48325999999999997  1.0000
  C   C76       1.0  0.58219  0.26032  0.73681  1.0000
  C   C77       1.0  0.53412  0.25305  0.7872699999999999  1.0000
  C   C78       1.0  0.43676  0.20525  0.78721  1.0000
  C   C79       1.0  0.91991  0.36798  0.64816  1.0000
  C   C80       1.0  0.012029999999999982  0.40004  0.6607199999999998  1.0000
  C   C81       1.0  0.03705  0.39979  0.71322  1.0000
  C   C82       1.0  0.9657899999999999  0.36709  0.7506599999999998  1.0000
  C   C83       1.0  0.87558  0.33698  0.7345599999999998  1.0000
  C   C84       1.0  0.16491000000000003  0.42049000000000003  0.7716699999999999  1.0000
  C   C85       1.0  0.26575  0.44985  0.77297  1.0000
  C   C86       1.0  0.32898  0.50056  0.7333  1.0000
  C   C87       1.0  0.42080000000000006  0.5208  0.7368899999999999  1.0000
  C   C88       1.0  0.45175999999999994  0.491  0.7795999999999998  1.0000
  C   C89       1.0  0.38901  0.44254  0.8199899999999998  1.0000
  C   C90       1.0  0.2971  0.42228  0.8166399999999998  1.0000
  C   C91       1.0  0.67824  0.26027  0.26319999999999993  1.0000
  C   C92       1.0  0.71897  0.25291  0.21275  1.0000
  C   C93       1.0  0.76854  0.20518  0.21284999999999996  1.0000
  C   C94       1.0  0.44806  0.36799  0.35181999999999997  1.0000
  C   C95       1.0  0.388  0.39999  0.33924  1.0000
  C   C96       1.0  0.36272  0.39975  0.28674  1.0000
  C   C97       1.0  0.40131  0.36708  0.24933  1.0000
  C   C98       1.0  0.4613900000000001  0.337  0.26542  1.0000
  C   C99       1.0  0.2556  0.42058  0.22829  1.0000
  C   C100      1.0  0.18416  0.44996  0.22702  1.0000
  C   C101      1.0  0.17159999999999995  0.50057  0.2667  1.0000
  C   C102      1.0  0.10003  0.52076  0.26314  1.0000
  C   C103      1.0  0.03925  0.49101  0.22041999999999998  1.0000
  C   C104      1.0  0.05349999999999998  0.44254  0.18003  1.0000
  C   C105      1.0  0.12516  0.42234  0.18335999999999994  1.0000
  C   C106      1.0  0.58233  0.322  0.92986  1.0000
  C   C107      1.0  0.5341  0.28114  0.87939  1.0000
  C   C108      1.0  0.4367199999999999  0.23149  0.87941  1.0000
  C   C109      1.0  0.9199399999999998  0.55197  0.01857  1.0000
  C   C110      1.0  0.01208000000000002  0.61204  0.005989999999999999  1.0000
  C   C111      1.0  0.03704000000000007  0.6372500000000001  0.95349  1.0000
  C   C112      1.0  0.9657699999999999  0.59871  0.9160499999999999  1.0000
  C   C113      1.0  0.87556  0.5386  0.9321699999999999  1.0000
  C   C114      1.0  0.16490999999999995  0.74446  0.8950399999999998  1.0000
  C   C115      1.0  0.2657799999999999  0.8159099999999999  0.89376  1.0000
  C   C116      1.0  0.32902  0.82842  0.9334099999999997  1.0000
  C   C117      1.0  0.4208599999999999  0.89999  0.9297799999999998  1.0000
  C   C118      1.0  0.45175999999999994  0.96073  0.88705  1.0000
  C   C119      1.0  0.38901  0.94645  0.84668  1.0000
  C   C120      1.0  0.29707  0.8748  0.8500699999999999  1.0000
  C   C121      1.0  0.73961  0.41788  0.59654  1.0000
  C   C122      1.0  0.7469400000000002  0.46601  0.54608  1.0000
  C   C123      1.0  0.79479  0.56336  0.54612  1.0000
  C   C124      1.0  0.63205  0.08012  0.68516  1.0000
  C   C125      1.0  0.59997  0.98799  0.6726399999999999  1.0000
  C   C126      1.0  0.60021  0.96292  0.6201499999999999  1.0000
  C   C127      1.0  0.63289  0.03412  0.58268  1.0000
  C   C128      1.0  0.663  0.12433  0.59874  1.0000
  C   C129      1.0  0.57957  0.83508  0.56171  1.0000
  C   C130      1.0  0.55019  0.73423  0.56044  1.0000
  C   C131      1.0  0.4994599999999999  0.6709799999999999  0.6001  1.0000
  C   C132      1.0  0.47918  0.57918  0.5964699999999998  1.0000
  C   C133      1.0  0.50899  0.54823  0.5537599999999999  1.0000
  C   C134      1.0  0.5574399999999999  0.6109800000000001  0.51337  1.0000
  C   C135      1.0  0.57774  0.70288  0.51675  1.0000
  C   C136      1.0  0.32176  0.73973  0.26319999999999993  1.0000
  C   C137      1.0  0.28102999999999995  0.7471  0.21275  1.0000
  C   C138      1.0  0.23146000000000005  0.79482  0.21284999999999996  1.0000
  C   C139      1.0  0.55194  0.63202  0.35181999999999997  1.0000
  C   C140      1.0  0.612  0.60001  0.33924  1.0000
  C   C141      1.0  0.63728  0.60025  0.28674  1.0000
  C   C142      1.0  0.59869  0.63292  0.24933  1.0000
  C   C143      1.0  0.53861  0.663  0.26542  1.0000
  C   C144      1.0  0.7444  0.57942  0.22829  1.0000
  C   C145      1.0  0.81584  0.55005  0.22702  1.0000
  C   C146      1.0  0.8283999999999998  0.49944  0.2667  1.0000
  C   C147      1.0  0.89997  0.47924  0.26314  1.0000
  C   C148      1.0  0.96075  0.50899  0.22041999999999998  1.0000
  C   C149      1.0  0.9464999999999997  0.55746  0.18003  1.0000
  C   C150      1.0  0.87483  0.57766  0.18335999999999994  1.0000
  C   C151      1.0  0.41767  0.678  0.92986  1.0000
  C   C152      1.0  0.4659  0.71886  0.87939  1.0000
  C   C153      1.0  0.56328  0.76851  0.87941  1.0000
  C   C154      1.0  0.08005  0.44803  0.01857  1.0000
  C   C155      1.0  0.98792  0.38796  0.005989999999999999  1.0000
  C   C156      1.0  0.96296  0.36275  0.95349  1.0000
  C   C157      1.0  0.03423000000000002  0.40129  0.9160499999999999  1.0000
  C   C158      1.0  0.12444  0.4614  0.9321699999999999  1.0000
  C   C159      1.0  0.83509  0.25554  0.8950399999999998  1.0000
  C   C160      1.0  0.73422  0.1841  0.89376  1.0000
  C   C161      1.0  0.6709799999999998  0.17158  0.9334099999999997  1.0000
  C   C162      1.0  0.57913  0.10002  0.9297799999999998  1.0000
  C   C163      1.0  0.54824  0.03927  0.88705  1.0000
  C   C164      1.0  0.61099  0.05355  0.84668  1.0000
  C   C165      1.0  0.7029299999999998  0.1252  0.8500699999999999  1.0000
  C   C166      1.0  0.26039  0.58212  0.59654  1.0000
  C   C167      1.0  0.25306  0.53399  0.54608  1.0000
  C   C168      1.0  0.20521  0.43664  0.54612  1.0000
  C   C169      1.0  0.36794999999999983  0.9198799999999999  0.68516  1.0000
  C   C170      1.0  0.40003  0.01201  0.6726399999999999  1.0000
  C   C171      1.0  0.39979  0.03708000000000001  0.6201499999999999  1.0000
  C   C172      1.0  0.3671099999999999  0.96588  0.58268  1.0000
  C   C173      1.0  0.33699999999999997  0.87567  0.59874  1.0000
  C   C174      1.0  0.4204300000000001  0.16492  0.56171  1.0000
  C   C175      1.0  0.44981  0.26577  0.56044  1.0000
  C   C176      1.0  0.50054  0.32902  0.6001  1.0000
  C   C177      1.0  0.52082  0.42082  0.5964699999999998  1.0000
  C   C178      1.0  0.49099999999999994  0.45177  0.5537599999999999  1.0000
  C   C179      1.0  0.44255999999999995  0.38902  0.51337  1.0000
  C   C180      1.0  0.42225999999999997  0.29712  0.51675  1.0000
  C   C181      1.0  0.29185  0.70832  0.16669  1.0000
  C   C182      1.0  0.19316999999999993  0.80671  0.16675  1.0000
  C   C183      1.0  0.29184  0.58358  0.4999999999999999  1.0000
  C   C184      1.0  0.19297  0.38636  0.4999999999999999  1.0000
  C   C185      1.0  0.4162799999999998  0.7081  0.83334  1.0000
  C   C186      1.0  0.61351  0.80687  0.8333099999999998  1.0000
  C   C187      1.0  0.70815  0.29168  0.16669  1.0000
  C   C188      1.0  0.80683  0.19329  0.16675  1.0000
  C   C189      1.0  0.70816  0.41642  0.4999999999999999  1.0000
  C   C190      1.0  0.8070199999999996  0.61364  0.4999999999999999  1.0000
  C   C191      1.0  0.58372  0.2919  0.83334  1.0000
  C   C192      1.0  0.38649  0.19313  0.8333099999999998  1.0000
  N   N1        1.0  0.3366799999999999  0.48508  0.0177  1.0000
  N   N2        1.0  0.43077  0.30092  0.05783999999999999  1.0000
  N   N3        1.0  0.51498  0.85157  0.35097  1.0000
  N   N4        1.0  0.69905  0.12989  0.3911799999999999  1.0000
  N   N5        1.0  0.14846999999999994  0.6634  0.6842699999999998  1.0000
  N   N6        1.0  0.8701500000000001  0.5692  0.7245499999999998  1.0000
  N   N7        1.0  0.6633199999999998  0.51493  0.0177  1.0000
  N   N8        1.0  0.56923  0.69909  0.05783999999999999  1.0000
  N   N9        1.0  0.48501  0.14843  0.35097  1.0000
  N   N10       1.0  0.30095  0.87011  0.3911799999999999  1.0000
  N   N11       1.0  0.85152  0.3366  0.6842699999999998  1.0000
  N   N12       1.0  0.12985  0.4308  0.7245499999999998  1.0000
  N   N13       1.0  0.48506999999999995  0.33663  0.31571  1.0000
  N   N14       1.0  0.30095999999999995  0.43077  0.27543  1.0000
  N   N15       1.0  0.8515400000000001  0.51494  0.98247  1.0000
  N   N16       1.0  0.12985  0.69901  0.94214  1.0000
  N   N17       1.0  0.66339  0.14844  0.64901  1.0000
  N   N18       1.0  0.56921  0.87013  0.60883  1.0000
  N   N19       1.0  0.51493  0.66337  0.31571  1.0000
  N   N20       1.0  0.69903  0.56923  0.27543  1.0000
  N   N21       1.0  0.14846000000000004  0.48506000000000005  0.98247  1.0000
  N   N22       1.0  0.8701499999999996  0.30099  0.94214  1.0000
  N   N23       1.0  0.33661  0.85156  0.64901  1.0000
  N   N24       1.0  0.43079  0.12987  0.60883  1.0000
  N   N25       1.0  0.14463000000000004  0.85401  0.1668  1.0000
  N   N26       1.0  0.14367  0.29039  0.49986999999999987  1.0000
  N   N27       1.0  0.70947  0.85558  0.83339  1.0000
  N   N28       1.0  0.85536  0.14598  0.1668  1.0000
  N   N29       1.0  0.8562999999999998  0.70961  0.49986999999999987  1.0000
  N   N30       1.0  0.29053  0.14442000000000002  0.83339  1.0000
  O   O1        1.0  0.29751  0.62606  0.07075999999999999  1.0000
  O   O2        1.0  0.22966  0.69464  0.028949999999999993  1.0000
  O   O3        1.0  0.38542  0.27016  0.14361999999999997  1.0000
  O   O4        1.0  0.37429  0.67164  0.40403  1.0000
  O   O5        1.0  0.30547  0.53509  0.36226  1.0000
  O   O6        1.0  0.72984  0.11519  0.47693  1.0000
  O   O7        1.0  0.32838  0.70284  0.73731  1.0000
  O   O8        1.0  0.46504  0.7704  0.69563  1.0000
  O   O9        1.0  0.8849  0.6146200000000002  0.81032  1.0000
  O   O10       1.0  0.70249  0.37394  0.07075999999999999  1.0000
  O   O11       1.0  0.77034  0.30536  0.028949999999999993  1.0000
  O   O12       1.0  0.61458  0.72984  0.14361999999999997  1.0000
  O   O13       1.0  0.6257099999999999  0.32835999999999993  0.40403  1.0000
  O   O14       1.0  0.69453  0.46492  0.36226  1.0000
  O   O15       1.0  0.27016000000000007  0.8848100000000001  0.47693  1.0000
  O   O16       1.0  0.67162  0.29716  0.73731  1.0000
  O   O17       1.0  0.5349599999999999  0.2296  0.69563  1.0000
  O   O18       1.0  0.11510000000000002  0.38538  0.81032  1.0000
  O   O19       1.0  0.62577  0.2972  0.2626899999999999  1.0000
  O   O20       1.0  0.6947  0.22955  0.30437999999999993  1.0000
  O   O21       1.0  0.27027  0.38556  0.18963  1.0000
  O   O22       1.0  0.6717699999999998  0.37464  0.9293399999999998  1.0000
  O   O23       1.0  0.5352  0.30544  0.9710899999999998  1.0000
  O   O24       1.0  0.11510999999999992  0.7298299999999999  0.85641  1.0000
  O   O25       1.0  0.7025900000000002  0.32844  0.5959699999999999  1.0000
  O   O26       1.0  0.7704200000000001  0.465  0.6377399999999998  1.0000
  O   O27       1.0  0.61468  0.88487  0.52307  1.0000
  O   O28       1.0  0.37423000000000006  0.7028000000000001  0.2626899999999999  1.0000
  O   O29       1.0  0.3053  0.77045  0.30437999999999993  1.0000
  O   O30       1.0  0.72973  0.61444  0.18963  1.0000
  O   O31       1.0  0.32823  0.62536  0.9293399999999998  1.0000
  O   O32       1.0  0.46479999999999994  0.69456  0.9710899999999998  1.0000
  O   O33       1.0  0.8848899999999997  0.27017  0.85641  1.0000
  O   O34       1.0  0.2974099999999999  0.67156  0.5959699999999999  1.0000
  O   O35       1.0  0.22958  0.535  0.6377399999999998  1.0000
  O   O36       1.0  0.38532  0.11513  0.52307  1.0000
