data_image0
_chemical_formula_structural       Cu24H96C336O96
_chemical_formula_sum              "Cu24 H96 C336 O96"
_cell_length_a       35.02313
_cell_length_b       35.02517
_cell_length_c       35.02508
_cell_angle_alpha    59.9376
_cell_angle_beta     59.94647
_cell_angle_gamma    59.946549999999995

_space_group_name_H-M_alt    "P 1"
_space_group_IT_number       1

loop_
  _space_group_symop_operation_xyz
  'x, y, z'

loop_
  _atom_site_type_symbol
  _atom_site_label
  _atom_site_symmetry_multiplicity
  _atom_site_fract_x
  _atom_site_fract_y
  _atom_site_fract_z
  _atom_site_occupancy
  Cu  Cu1       1.0  0.7671200000000002  1.00000000000084e-05  0.23288  1.0000
  Cu  Cu2       1.0  0.6971700000000001  0.99999  0.30283  1.0000
  Cu  Cu3       1.0  0.9999800000000004  0.7671199999999999  0.9999699999999999  1.0000
  Cu  Cu4       1.0  1.9999999999981177e-05  0.69718  3.0000000000000004e-05  1.0000
  Cu  Cu5       1.0  2.0000000000006537e-05  0.23288  3.0000000000000004e-05  1.0000
  Cu  Cu6       1.0  0.99998  0.30282  0.9999699999999999  1.0000
  Cu  Cu7       1.0  0.23288000000000003  0.99999  0.76713  1.0000
  Cu  Cu8       1.0  0.30282000000000003  1.0000000000052346e-05  0.6971699999999998  1.0000
  Cu  Cu9       1.0  5.071953418784245e-17  0.76713  0.23286999999999997  1.0000
  Cu  Cu10      1.0  0.0  0.69717  0.30283  1.0000
  Cu  Cu11      1.0  0.23288  2.0000000000000005e-05  2e-05  1.0000
  Cu  Cu12      1.0  0.3028200000000001  0.99998  0.99998  1.0000
  Cu  Cu13      1.0  0.7671200000000004  0.99998  0.99998  1.0000
  Cu  Cu14      1.0  0.69718  2.0000000000000005e-05  2e-05  1.0000
  Cu  Cu15      1.0  5.071953418784245e-17  0.2328699999999999  0.76713  1.0000
  Cu  Cu16      1.0  5.071953418784245e-17  0.30283  0.6971699999999998  1.0000
  Cu  Cu17      1.0  1.999999999999562e-05  3.000000000001055e-05  0.23288  1.0000
  Cu  Cu18      1.0  0.99998  0.9999700000000001  0.30282000000000003  1.0000
  Cu  Cu19      1.0  0.7671200000000001  0.23288  1e-05  1.0000
  Cu  Cu20      1.0  0.6971799999999998  0.30283000000000004  0.99999  1.0000
  Cu  Cu21      1.0  0.23288000000000003  0.7671199999999999  0.99999  1.0000
  Cu  Cu22      1.0  0.3028200000000001  0.6971699999999997  1e-05  1.0000
  Cu  Cu23      1.0  0.99998  0.9999700000000001  0.76712  1.0000
  Cu  Cu24      1.0  2.000000000001029e-05  2.9999999999981254e-05  0.69718  1.0000
  H   H1        1.0  0.6128900000000004  0.9712199999999995  0.26978  1.0000
  H   H2        1.0  0.97124  0.61298  0.14612000000000003  1.0000
  H   H3        1.0  0.1460299999999999  0.2697800000000001  0.97124  1.0000
  H   H4        1.0  0.26978999999999975  0.14606  0.61292  1.0000
  H   H5        1.0  0.14605  0.6129  0.26981  1.0000
  H   H6        1.0  0.2697700000000001  0.9712299999999998  0.14603000000000002  1.0000
  H   H7        1.0  0.6129699999999999  0.14611  0.97124  1.0000
  H   H8        1.0  0.97122  0.2697899999999999  0.6128900000000002  1.0000
  H   H9        1.0  0.9712300000000001  0.14602000000000004  0.26979  1.0000
  H   H10       1.0  0.61292  0.26981  0.14604  1.0000
  H   H11       1.0  0.26978000000000035  0.6129  0.97123  1.0000
  H   H12       1.0  0.14611000000000002  0.97124  0.61298  1.0000
  H   H13       1.0  0.38702000000000003  0.028760000000000015  0.85389  1.0000
  H   H14       1.0  0.02877000000000011  0.3871099999999998  0.73021  1.0000
  H   H15       1.0  0.8539400000000004  0.73019  0.3871  1.0000
  H   H16       1.0  0.73022  0.85397  0.02876  1.0000
  H   H17       1.0  0.8538900000000005  0.38702  0.02876  1.0000
  H   H18       1.0  0.7302100000000001  0.028769999999999997  0.3871  1.0000
  H   H19       1.0  0.38708000000000004  0.8539599999999999  0.73019  1.0000
  H   H20       1.0  0.028759999999999966  0.7302099999999999  0.8539800000000001  1.0000
  H   H21       1.0  0.028760000000000018  0.85388  0.38702  1.0000
  H   H22       1.0  0.38710000000000017  0.7302199999999998  0.02877  1.0000
  H   H23       1.0  0.7302000000000001  0.38707999999999987  0.85394  1.0000
  H   H24       1.0  0.8539600000000004  0.028760000000000015  0.7302299999999999  1.0000
  H   H25       1.0  0.38710000000000006  0.02876999999999998  0.73022  1.0000
  H   H26       1.0  0.028759999999999966  0.38702000000000003  0.85388  1.0000
  H   H27       1.0  0.8539700000000001  0.7302199999999998  0.02876  1.0000
  H   H28       1.0  0.7301999999999998  0.8539399999999999  0.38708  1.0000
  H   H29       1.0  0.8539400000000001  0.38708999999999993  0.73019  1.0000
  H   H30       1.0  0.7302200000000001  0.028760000000000015  0.85397  1.0000
  H   H31       1.0  0.38703  0.85389  0.02876  1.0000
  H   H32       1.0  0.028770000000000084  0.7302099999999998  0.38711999999999996  1.0000
  H   H33       1.0  0.028760000000000018  0.85398  0.73022  1.0000
  H   H34       1.0  0.38707999999999987  0.7301900000000001  0.85396  1.0000
  H   H35       1.0  0.7302199999999999  0.3871  0.02877  1.0000
  H   H36       1.0  0.8538900000000001  0.02876  0.38702  1.0000
  H   H37       1.0  0.61297  0.97124  0.14611  1.0000
  H   H38       1.0  0.97122  0.61288  0.26979  1.0000
  H   H39       1.0  0.14605000000000007  0.26981  0.61291  1.0000
  H   H40       1.0  0.26977000000000007  0.14602999999999997  0.97124  1.0000
  H   H41       1.0  0.14610999999999996  0.61298  0.97124  1.0000
  H   H42       1.0  0.26978000000000046  0.9712199999999995  0.6129  1.0000
  H   H43       1.0  0.61292  0.14603999999999998  0.26981  1.0000
  H   H44       1.0  0.9712300000000001  0.26979  0.14602  1.0000
  H   H45       1.0  0.9712300000000001  0.14611999999999994  0.61298  1.0000
  H   H46       1.0  0.6128900000000004  0.2697799999999998  0.97123  1.0000
  H   H47       1.0  0.2697900000000001  0.6129199999999998  0.14606000000000002  1.0000
  H   H48       1.0  0.14603  0.9712299999999997  0.26978  1.0000
  H   H49       1.0  0.72863  0.98891  0.14119  1.0000
  H   H50       1.0  0.98891  0.7286399999999998  0.14118  1.0000
  H   H51       1.0  0.14126  0.14127000000000003  0.9889  1.0000
  H   H52       1.0  0.14121000000000003  0.14120000000000002  0.72867  1.0000
  H   H53       1.0  0.14120999999999997  0.72867  0.1412  1.0000
  H   H54       1.0  0.1412699999999999  0.9889  0.14127  1.0000
  H   H55       1.0  0.72863  0.14119000000000007  0.9889099999999998  1.0000
  H   H56       1.0  0.98891  0.14118000000000003  0.72864  1.0000
  H   H57       1.0  0.98889  0.14127  0.14128  1.0000
  H   H58       1.0  0.7286500000000002  0.14121999999999996  0.14122  1.0000
  H   H59       1.0  0.14119000000000023  0.7286199999999997  0.9889099999999998  1.0000
  H   H60       1.0  0.1411999999999999  0.98891  0.72862  1.0000
  H   H61       1.0  0.27137  0.011089999999999984  0.85881  1.0000
  H   H62       1.0  0.011090000000000011  0.27136000000000005  0.85882  1.0000
  H   H63       1.0  0.85878  0.8588  0.27133  1.0000
  H   H64       1.0  0.8587300000000001  0.8587299999999998  0.011100000000000002  1.0000
  H   H65       1.0  0.8588  0.27138  0.01109  1.0000
  H   H66       1.0  0.8588000000000001  0.01109  0.27138  1.0000
  H   H67       1.0  0.27135000000000004  0.8587799999999999  0.85878  1.0000
  H   H68       1.0  0.011099999999999952  0.8587200000000001  0.85873  1.0000
  H   H69       1.0  0.011090000000000088  0.8588199999999999  0.27136  1.0000
  H   H70       1.0  0.2713700000000001  0.8588099999999997  0.01109  1.0000
  H   H71       1.0  0.8587800000000002  0.27133  0.8588  1.0000
  H   H72       1.0  0.8587300000000001  0.011100000000000037  0.85873  1.0000
  H   H73       1.0  0.39188000000000023  0.9476499999999997  0.39188  1.0000
  H   H74       1.0  0.94765  0.39196999999999993  0.26848  1.0000
  H   H75       1.0  0.26848  0.3919599999999999  0.94766  1.0000
  H   H76       1.0  0.39194000000000007  0.26845  0.39195  1.0000
  H   H77       1.0  0.26848  0.39193000000000006  0.39193  1.0000
  H   H78       1.0  0.39196  0.9476499999999998  0.26849  1.0000
  H   H79       1.0  0.39196000000000003  0.26849000000000006  0.94766  1.0000
  H   H80       1.0  0.94765  0.39187  0.39187  1.0000
  H   H81       1.0  0.94765  0.26848  0.39197  1.0000
  H   H82       1.0  0.39194  0.39195  0.26845  1.0000
  H   H83       1.0  0.39187999999999995  0.39188  0.94765  1.0000
  H   H84       1.0  0.26849000000000023  0.9476499999999995  0.39196  1.0000
  H   H85       1.0  0.6080400000000002  0.052350000000000015  0.73151  1.0000
  H   H86       1.0  0.05235000000000001  0.6081300000000001  0.60813  1.0000
  H   H87       1.0  0.73152  0.60806  0.60807  1.0000
  H   H88       1.0  0.60804  0.73151  0.05235  1.0000
  H   H89       1.0  0.73151  0.6080399999999998  0.05235  1.0000
  H   H90       1.0  0.6081200000000001  0.05235000000000004  0.6081199999999999  1.0000
  H   H91       1.0  0.6080600000000004  0.7315399999999997  0.60805  1.0000
  H   H92       1.0  0.05233999999999999  0.60803  0.73152  1.0000
  H   H93       1.0  0.05234000000000004  0.73152  0.60803  1.0000
  H   H94       1.0  0.6081200000000003  0.6081199999999998  0.05235  1.0000
  H   H95       1.0  0.6080600000000003  0.6080499999999998  0.73155  1.0000
  H   H96       1.0  0.7315099999999999  0.052350000000000015  0.60804  1.0000
  C   C1        1.0  0.6952800000000003  0.9860799999999996  0.23082  1.0000
  C   C2        1.0  0.6729900000000001  0.98031  0.20795  1.0000
  C   C3        1.0  0.6297300000000003  0.9731699999999998  0.23332  1.0000
  C   C4        1.0  0.98608  0.69532  0.0878  1.0000
  C   C5        1.0  0.9803200000000001  0.67302  0.13875  1.0000
  C   C6        1.0  0.97318  0.62976  0.16382  1.0000
  C   C7        1.0  0.08780000000000004  0.23086000000000007  0.98607  1.0000
  C   C8        1.0  0.13874999999999996  0.20798  0.9803  1.0000
  C   C9        1.0  0.16378000000000006  0.23331999999999997  0.97317  1.0000
  C   C10       1.0  0.23083  0.08777  0.69531  1.0000
  C   C11       1.0  0.20795  0.13872  0.67302  1.0000
  C   C12       1.0  0.23331999999999997  0.16375999999999988  0.62975  1.0000
  C   C13       1.0  0.08777000000000004  0.6953  0.23084  1.0000
  C   C14       1.0  0.13872  0.67301  0.20796  1.0000
  C   C15       1.0  0.16375  0.6297399999999999  0.23333  1.0000
  C   C16       1.0  0.23085999999999995  0.98606  0.08781  1.0000
  C   C17       1.0  0.20798  0.9803  0.13876  1.0000
  C   C18       1.0  0.23332000000000014  0.9731699999999998  0.16378  1.0000
  C   C19       1.0  0.69531  0.08780999999999997  0.98608  1.0000
  C   C20       1.0  0.67301  0.13875  0.98032  1.0000
  C   C21       1.0  0.62976  0.16381  0.97318  1.0000
  C   C22       1.0  0.98608  0.23081999999999997  0.69528  1.0000
  C   C23       1.0  0.98031  0.20795  0.673  1.0000
  C   C24       1.0  0.97317  0.23333  0.62973  1.0000
  C   C25       1.0  0.98607  0.08781  0.23087  1.0000
  C   C26       1.0  0.9803000000000001  0.13875999999999994  0.20799  1.0000
  C   C27       1.0  0.9731700000000002  0.16377999999999995  0.23333  1.0000
  C   C28       1.0  0.69529  0.23085  0.08777  1.0000
  C   C29       1.0  0.6730000000000003  0.20796999999999993  0.13872  1.0000
  C   C30       1.0  0.6297300000000002  0.23332999999999998  0.16376  1.0000
  C   C31       1.0  0.2308200000000001  0.6952799999999998  0.98608  1.0000
  C   C32       1.0  0.20795000000000005  0.67299  0.98031  1.0000
  C   C33       1.0  0.23332000000000014  0.6297299999999997  0.97318  1.0000
  C   C34       1.0  0.08780000000000004  0.98608  0.69531  1.0000
  C   C35       1.0  0.13875000000000015  0.9803199999999999  0.67301  1.0000
  C   C36       1.0  0.16381000000000034  0.9731799999999996  0.6297600000000001  1.0000
  C   C37       1.0  0.30468  0.013929999999999967  0.91219  1.0000
  C   C38       1.0  0.32698  0.019680000000000007  0.86125  1.0000
  C   C39       1.0  0.37024  0.026819999999999997  0.83619  1.0000
  C   C40       1.0  0.01392000000000001  0.30472  0.76918  1.0000
  C   C41       1.0  0.019680000000000118  0.3269999999999998  0.79205  1.0000
  C   C42       1.0  0.026820000000000146  0.37026999999999977  0.76667  1.0000
  C   C43       1.0  0.91222  0.76916  0.3047  1.0000
  C   C44       1.0  0.8612799999999999  0.7920399999999999  0.32699  1.0000
  C   C45       1.0  0.83624  0.76667  0.37026  1.0000
  C   C46       1.0  0.76914  0.91219  0.01394  1.0000
  C   C47       1.0  0.7920200000000001  0.8612399999999998  0.0197  1.0000
  C   C48       1.0  0.7666800000000004  0.8362099999999998  0.02683  1.0000
  C   C49       1.0  0.91219  0.30468999999999996  0.01392  1.0000
  C   C50       1.0  0.86125  0.32699  0.019680000000000003  1.0000
  C   C51       1.0  0.83619  0.37023999999999996  0.02682  1.0000
  C   C52       1.0  0.7691700000000001  0.013920000000000004  0.30472  1.0000
  C   C53       1.0  0.79204  0.01969  0.32701  1.0000
  C   C54       1.0  0.76668  0.026829999999999993  0.37027  1.0000
  C   C55       1.0  0.30470000000000025  0.91223  0.76916  1.0000
  C   C56       1.0  0.3269899999999999  0.8612799999999999  0.79203  1.0000
  C   C57       1.0  0.37026  0.83624  0.76667  1.0000
  C   C58       1.0  0.013930000000000154  0.7691299999999996  0.9122  1.0000
  C   C59       1.0  0.019700000000000075  0.7920099999999999  0.86124  1.0000
  C   C60       1.0  0.026829999999999934  0.7666700000000001  0.83622  1.0000
  C   C61       1.0  0.013919999999999986  0.9122  0.30468  1.0000
  C   C62       1.0  0.019680000000000145  0.8612499999999997  0.32698  1.0000
  C   C63       1.0  0.026819999999999965  0.83618  0.37024  1.0000
  C   C64       1.0  0.30472  0.76918  0.01392  1.0000
  C   C65       1.0  0.3270100000000001  0.7920399999999999  0.01969  1.0000
  C   C66       1.0  0.3702700000000001  0.7666799999999998  0.02683  1.0000
  C   C67       1.0  0.76916  0.30468999999999996  0.91223  1.0000
  C   C68       1.0  0.79204  0.32697999999999994  0.86128  1.0000
  C   C69       1.0  0.7666800000000003  0.3702599999999999  0.83624  1.0000
  C   C70       1.0  0.9121900000000001  0.013930000000000026  0.76915  1.0000
  C   C71       1.0  0.8612400000000002  0.019700000000000054  0.7920199999999998  1.0000
  C   C72       1.0  0.8362100000000001  0.02682999999999996  0.7666800000000001  1.0000
  C   C73       1.0  0.30472  0.013920000000000004  0.76918  1.0000
  C   C74       1.0  0.32700000000000007  0.019689999999999944  0.79205  1.0000
  C   C75       1.0  0.37026999999999993  0.02682999999999996  0.7666800000000001  1.0000
  C   C76       1.0  0.013920000000000087  0.3046799999999998  0.9122  1.0000
  C   C77       1.0  0.01968000000000004  0.32698  0.86125  1.0000
  C   C78       1.0  0.026820000000000118  0.3702399999999999  0.83619  1.0000
  C   C79       1.0  0.9121900000000001  0.7691399999999998  0.013929999999999998  1.0000
  C   C80       1.0  0.8612400000000002  0.79202  0.0197  1.0000
  C   C81       1.0  0.8362200000000002  0.7666799999999998  0.02683  1.0000
  C   C82       1.0  0.7691700000000001  0.9122299999999998  0.30469  1.0000
  C   C83       1.0  0.7920500000000001  0.8612799999999999  0.32699  1.0000
  C   C84       1.0  0.7666800000000004  0.83623  0.37026  1.0000
  C   C85       1.0  0.91222  0.30469999999999997  0.76916  1.0000
  C   C86       1.0  0.8612799999999999  0.32699  0.79204  1.0000
  C   C87       1.0  0.8362399999999999  0.37026  0.76667  1.0000
  C   C88       1.0  0.7691400000000003  0.013939999999999961  0.91219  1.0000
  C   C89       1.0  0.79202  0.019699999999999995  0.86125  1.0000
  C   C90       1.0  0.7666800000000001  0.026829999999999993  0.83622  1.0000
  C   C91       1.0  0.30468  0.91219  0.013929999999999998  1.0000
  C   C92       1.0  0.32699000000000017  0.8612499999999997  0.019680000000000003  1.0000
  C   C93       1.0  0.37023999999999996  0.83619  0.02682  1.0000
  C   C94       1.0  0.013919999999999986  0.76918  0.30472  1.0000
  C   C95       1.0  0.01968000000000004  0.79204  0.32701  1.0000
  C   C96       1.0  0.026819999999999965  0.76667  0.37027  1.0000
  C   C97       1.0  0.013930000000000001  0.9121899999999998  0.76914  1.0000
  C   C98       1.0  0.019700000000000124  0.8612399999999996  0.79201  1.0000
  C   C99       1.0  0.026830000000000083  0.8362199999999997  0.7666800000000001  1.0000
  C   C100      1.0  0.3047  0.7691500000000001  0.91223  1.0000
  C   C101      1.0  0.32698999999999995  0.79203  0.86128  1.0000
  C   C102      1.0  0.3702599999999999  0.7666699999999999  0.83624  1.0000
  C   C103      1.0  0.76917  0.3047199999999999  0.01392  1.0000
  C   C104      1.0  0.79204  0.32701  0.01969  1.0000
  C   C105      1.0  0.7666800000000004  0.3702699999999999  0.02683  1.0000
  C   C106      1.0  0.9121899999999998  0.013920000000000004  0.30469  1.0000
  C   C107      1.0  0.86125  0.019679999999999993  0.32699  1.0000
  C   C108      1.0  0.83619  0.026819999999999997  0.37024  1.0000
  C   C109      1.0  0.69531  0.9860699999999998  0.08781  1.0000
  C   C110      1.0  0.6730100000000001  0.98032  0.13875  1.0000
  C   C111      1.0  0.6297600000000001  0.9731799999999998  0.16381  1.0000
  C   C112      1.0  0.9860800000000002  0.6952799999999998  0.23082  1.0000
  C   C113      1.0  0.98031  0.67299  0.20796  1.0000
  C   C114      1.0  0.97317  0.6297299999999998  0.23333  1.0000
  C   C115      1.0  0.08776999999999997  0.23084  0.6953  1.0000
  C   C116      1.0  0.13872000000000015  0.20796  0.67301  1.0000
  C   C117      1.0  0.16375000000000003  0.23333000000000004  0.62974  1.0000
  C   C118      1.0  0.23085  0.08781000000000003  0.98607  1.0000
  C   C119      1.0  0.20798  0.13875999999999988  0.9803  1.0000
  C   C120      1.0  0.23331000000000002  0.16377999999999995  0.97317  1.0000
  C   C121      1.0  0.08779999999999999  0.69531  0.98608  1.0000
  C   C122      1.0  0.13875000000000004  0.67301  0.98032  1.0000
  C   C123      1.0  0.16381000000000004  0.62976  0.97318  1.0000
  C   C124      1.0  0.23082  0.9860799999999997  0.69528  1.0000
  C   C125      1.0  0.20795000000000005  0.9803100000000001  0.67299  1.0000
  C   C126      1.0  0.23332000000000003  0.9731699999999999  0.62973  1.0000
  C   C127      1.0  0.6952900000000001  0.08777000000000001  0.23085  1.0000
  C   C128      1.0  0.6730000000000003  0.13872000000000004  0.20797  1.0000
  C   C129      1.0  0.6297300000000002  0.16375999999999993  0.23333  1.0000
  C   C130      1.0  0.9860699999999999  0.23087  0.08781  1.0000
  C   C131      1.0  0.9803000000000001  0.20798999999999995  0.13876  1.0000
  C   C132      1.0  0.97317  0.23331999999999992  0.16378  1.0000
  C   C133      1.0  0.98608  0.0878  0.69532  1.0000
  C   C134      1.0  0.9803200000000001  0.13875000000000004  0.67302  1.0000
  C   C135      1.0  0.97318  0.16380999999999998  0.6297600000000001  1.0000
  C   C136      1.0  0.69528  0.23082000000000003  0.98608  1.0000
  C   C137      1.0  0.6729900000000001  0.20794999999999997  0.98032  1.0000
  C   C138      1.0  0.6297300000000001  0.23331999999999992  0.97318  1.0000
  C   C139      1.0  0.23082999999999998  0.69531  0.08777  1.0000
  C   C140      1.0  0.20795000000000005  0.67301  0.13872  1.0000
  C   C141      1.0  0.23331999999999997  0.6297399999999999  0.16377  1.0000
  C   C142      1.0  0.08780999999999996  0.98607  0.23086  1.0000
  C   C143      1.0  0.13875000000000004  0.9803  0.20798  1.0000
  C   C144      1.0  0.1637800000000002  0.9731699999999998  0.23332  1.0000
  C   C145      1.0  0.6950100000000001  0.98339  0.16079  1.0000
  C   C146      1.0  0.6078  0.96911  0.21159000000000003  1.0000
  C   C147      1.0  0.5640300000000001  0.9620299999999999  0.23701000000000003  1.0000
  C   C148      1.0  0.52554  0.95682  0.25883  1.0000
  C   C149      1.0  0.48284999999999995  0.9521600000000001  0.28249  1.0000
  C   C150      1.0  0.44348000000000004  0.949  0.30372  1.0000
  C   C151      1.0  0.3974800000000001  0.9472199999999996  0.32761  1.0000
  C   C152      1.0  0.98339  0.69502  0.16079  1.0000
  C   C153      1.0  0.96911  0.6078  0.21159000000000003  1.0000
  C   C154      1.0  0.9620300000000003  0.5640399999999998  0.23702  1.0000
  C   C155      1.0  0.95682  0.5255499999999997  0.25883  1.0000
  C   C156      1.0  0.9521500000000002  0.48285000000000006  0.28249  1.0000
  C   C157      1.0  0.9490000000000001  0.44348  0.3037  1.0000
  C   C158      1.0  0.9472200000000001  0.39748  0.3276  1.0000
  C   C159      1.0  0.16082000000000005  0.16083  0.98338  1.0000
  C   C160      1.0  0.21156000000000016  0.21156  0.96911  1.0000
  C   C161      1.0  0.23698  0.23698000000000005  0.96204  1.0000
  C   C162      1.0  0.25882000000000005  0.25881999999999994  0.95683  1.0000
  C   C163      1.0  0.28249  0.28249  0.95217  1.0000
  C   C164      1.0  0.30374  0.30373999999999984  0.94902  1.0000
  C   C165      1.0  0.3276200000000001  0.32763  0.94723  1.0000
  C   C166      1.0  0.16078000000000006  0.16079  0.69504  1.0000
  C   C167      1.0  0.21153000000000008  0.21155  0.60781  1.0000
  C   C168      1.0  0.23695000000000005  0.23696999999999996  0.56405  1.0000
  C   C169      1.0  0.2588100000000002  0.25882  0.52555  1.0000
  C   C170      1.0  0.28250000000000014  0.28249  0.48286  1.0000
  C   C171      1.0  0.30377  0.30375  0.44349  1.0000
  C   C172      1.0  0.32765  0.3276299999999999  0.3975  1.0000
  C   C173      1.0  0.16078000000000003  0.69504  0.16079  1.0000
  C   C174      1.0  0.21154000000000003  0.60781  0.21155  1.0000
  C   C175      1.0  0.23695000000000005  0.5640499999999999  0.23697  1.0000
  C   C176      1.0  0.25881000000000004  0.52555  0.25882  1.0000
  C   C177      1.0  0.2825000000000001  0.48285999999999996  0.28249  1.0000
  C   C178      1.0  0.30377  0.44349  0.30375  1.0000
  C   C179      1.0  0.32765000000000005  0.3974999999999999  0.32763  1.0000
  C   C180      1.0  0.16081999999999994  0.98338  0.16083  1.0000
  C   C181      1.0  0.21156000000000003  0.9691  0.21156000000000003  1.0000
  C   C182      1.0  0.23698  0.96204  0.23698000000000002  1.0000
  C   C183      1.0  0.2588200000000001  0.95683  0.25882  1.0000
  C   C184      1.0  0.28248999999999996  0.9521700000000001  0.28249  1.0000
  C   C185      1.0  0.30374000000000034  0.94902  0.30374  1.0000
  C   C186      1.0  0.3276200000000003  0.9472299999999997  0.32763  1.0000
  C   C187      1.0  0.69501  0.16078999999999996  0.9834000000000002  1.0000
  C   C188      1.0  0.60779  0.21159000000000003  0.96911  1.0000
  C   C189      1.0  0.56403  0.23700999999999997  0.96204  1.0000
  C   C190      1.0  0.5255400000000002  0.2588299999999999  0.95682  1.0000
  C   C191      1.0  0.48284000000000005  0.28248999999999996  0.95216  1.0000
  C   C192      1.0  0.44347999999999993  0.30371999999999993  0.94901  1.0000
  C   C193      1.0  0.39747999999999994  0.32760999999999996  0.94722  1.0000
  C   C194      1.0  0.98339  0.16079  0.69502  1.0000
  C   C195      1.0  0.96911  0.21159  0.6078  1.0000
  C   C196      1.0  0.96203  0.23702  0.56404  1.0000
  C   C197      1.0  0.95682  0.25883  0.52555  1.0000
  C   C198      1.0  0.9521500000000002  0.28249  0.48285  1.0000
  C   C199      1.0  0.9490000000000001  0.3037  0.44348  1.0000
  C   C200      1.0  0.9472200000000001  0.3276  0.39748  1.0000
  C   C201      1.0  0.9833700000000002  0.16083  0.16083  1.0000
  C   C202      1.0  0.9691000000000001  0.21157  0.21157  1.0000
  C   C203      1.0  0.96204  0.23697999999999994  0.23698000000000002  1.0000
  C   C204      1.0  0.9568300000000001  0.25882  0.25882  1.0000
  C   C205      1.0  0.95217  0.28249  0.28249  1.0000
  C   C206      1.0  0.9490200000000001  0.3037399999999999  0.30374  1.0000
  C   C207      1.0  0.94723  0.32762  0.32762  1.0000
  C   C208      1.0  0.6950200000000003  0.16079999999999997  0.1608  1.0000
  C   C209      1.0  0.6078  0.21155  0.21155  1.0000
  C   C210      1.0  0.56404  0.23696  0.23696  1.0000
  C   C211      1.0  0.52555  0.25882  0.25882  1.0000
  C   C212      1.0  0.48285999999999996  0.28249  0.28249  1.0000
  C   C213      1.0  0.4435  0.30375  0.30375  1.0000
  C   C214      1.0  0.39751000000000014  0.3276299999999999  0.32764  1.0000
  C   C215      1.0  0.16079000000000004  0.6949999999999997  0.98339  1.0000
  C   C216      1.0  0.21158000000000002  0.6078  0.96911  1.0000
  C   C217      1.0  0.2370099999999999  0.56403  0.96204  1.0000
  C   C218      1.0  0.25882000000000027  0.5255499999999997  0.95682  1.0000
  C   C219      1.0  0.2824800000000002  0.4828499999999998  0.95216  1.0000
  C   C220      1.0  0.3037100000000001  0.44348999999999983  0.94901  1.0000
  C   C221      1.0  0.32759999999999995  0.39749  0.94722  1.0000
  C   C222      1.0  0.16079  0.9833899999999999  0.69501  1.0000
  C   C223      1.0  0.21158000000000016  0.9691099999999999  0.6078  1.0000
  C   C224      1.0  0.23701000000000003  0.9620299999999999  0.56404  1.0000
  C   C225      1.0  0.2588200000000002  0.9568199999999999  0.52555  1.0000
  C   C226      1.0  0.28248  0.9521600000000001  0.48285  1.0000
  C   C227      1.0  0.30371  0.949  0.44349  1.0000
  C   C228      1.0  0.3275999999999999  0.94722  0.39749  1.0000
  C   C229      1.0  0.30499000000000015  0.016609999999999993  0.83921  1.0000
  C   C230      1.0  0.39220000000000016  0.030890000000000004  0.78842  1.0000
  C   C231      1.0  0.43596  0.03796000000000001  0.76299  1.0000
  C   C232      1.0  0.47445000000000004  0.04318  0.74117  1.0000
  C   C233      1.0  0.51715  0.04783999999999999  0.71751  1.0000
  C   C234      1.0  0.55651  0.051000000000000004  0.69629  1.0000
  C   C235      1.0  0.6025100000000001  0.052780000000000035  0.67239  1.0000
  C   C236      1.0  0.016600000000000076  0.3049799999999999  0.83921  1.0000
  C   C237      1.0  0.030889999999999942  0.3922  0.78841  1.0000
  C   C238      1.0  0.037960000000000035  0.43595999999999996  0.76298  1.0000
  C   C239      1.0  0.04317999999999999  0.4744499999999999  0.74117  1.0000
  C   C240      1.0  0.04784000000000012  0.5171499999999998  0.71751  1.0000
  C   C241      1.0  0.05100000000000009  0.5565199999999999  0.6963  1.0000
  C   C242      1.0  0.052780000000000084  0.60252  0.6724  1.0000
  C   C243      1.0  0.8392100000000001  0.8392099999999998  0.30496  1.0000
  C   C244      1.0  0.7884600000000003  0.7884499999999998  0.39219  1.0000
  C   C245      1.0  0.76305  0.76303  0.43595  1.0000
  C   C246      1.0  0.7411800000000001  0.74118  0.47445  1.0000
  C   C247      1.0  0.7175000000000001  0.7175100000000001  0.51714  1.0000
  C   C248      1.0  0.6962300000000001  0.6962499999999998  0.55651  1.0000
  C   C249      1.0  0.67234  0.67237  0.6025  1.0000
  C   C250      1.0  0.83917  0.83917  0.01662  1.0000
  C   C251      1.0  0.7884300000000001  0.78843  0.030890000000000004  1.0000
  C   C252      1.0  0.76302  0.76302  0.03796  1.0000
  C   C253      1.0  0.7411800000000001  0.74118  0.04317  1.0000
  C   C254      1.0  0.71751  0.71751  0.04783  1.0000
  C   C255      1.0  0.6962600000000001  0.6962599999999998  0.05098  1.0000
  C   C256      1.0  0.6723800000000003  0.67237  0.05277  1.0000
  C   C257      1.0  0.8392000000000003  0.30499  0.01661  1.0000
  C   C258      1.0  0.7884100000000002  0.3921999999999999  0.030890000000000004  1.0000
  C   C259      1.0  0.7629900000000001  0.4359599999999999  0.03796  1.0000
  C   C260      1.0  0.7411700000000002  0.47444999999999987  0.04318  1.0000
  C   C261      1.0  0.71751  0.51715  0.04784  1.0000
  C   C262      1.0  0.6962900000000002  0.5565099999999997  0.05099  1.0000
  C   C263      1.0  0.67239  0.60251  0.05278  1.0000
  C   C264      1.0  0.8392  0.016609999999999993  0.305  1.0000
  C   C265      1.0  0.78841  0.030890000000000032  0.39219999999999994  1.0000
  C   C266      1.0  0.7629900000000001  0.03796000000000001  0.43597  1.0000
  C   C267      1.0  0.7411699999999999  0.04318  0.47445  1.0000
  C   C268      1.0  0.71751  0.047840000000000014  0.51715  1.0000
  C   C269      1.0  0.6962900000000003  0.050990000000000014  0.55651  1.0000
  C   C270      1.0  0.6723900000000002  0.05278000000000001  0.60251  1.0000
  C   C271      1.0  0.30497000000000035  0.8391999999999996  0.83921  1.0000
  C   C272      1.0  0.3922000000000004  0.7884499999999998  0.7884499999999999  1.0000
  C   C273      1.0  0.4359500000000001  0.76304  0.76304  1.0000
  C   C274      1.0  0.47444999999999965  0.74118  0.74119  1.0000
  C   C275      1.0  0.5171400000000002  0.7175099999999999  0.71751  1.0000
  C   C276      1.0  0.5565000000000002  0.6962500000000001  0.69625  1.0000
  C   C277      1.0  0.6024900000000001  0.6723599999999998  0.67237  1.0000
  C   C278      1.0  0.016620000000000083  0.8391699999999999  0.8391699999999999  1.0000
  C   C279      1.0  0.030890000000000018  0.78843  0.78844  1.0000
  C   C280      1.0  0.03795999999999998  0.76302  0.76302  1.0000
  C   C281      1.0  0.043169999999999924  0.7411800000000001  0.74118  1.0000
  C   C282      1.0  0.04783  0.7175099999999999  0.71751  1.0000
  C   C283      1.0  0.05098000000000016  0.6962599999999998  0.69627  1.0000
  C   C284      1.0  0.052769999999999914  0.67238  0.6723800000000001  1.0000
  C   C285      1.0  0.016600000000000153  0.8392099999999998  0.30498  1.0000
  C   C286      1.0  0.030889999999999966  0.78841  0.39219999999999994  1.0000
  C   C287      1.0  0.037960000000000035  0.76298  0.43596  1.0000
  C   C288      1.0  0.04318000000000014  0.7411699999999998  0.47445  1.0000
  C   C289      1.0  0.047840000000000014  0.71751  0.51715  1.0000
  C   C290      1.0  0.05100000000000009  0.6962899999999999  0.55652  1.0000
  C   C291      1.0  0.052780000000000035  0.6723999999999998  0.60252  1.0000
  C   C292      1.0  0.3049900000000001  0.8391999999999997  0.01661  1.0000
  C   C293      1.0  0.3922  0.78841  0.030890000000000004  1.0000
  C   C294      1.0  0.4359600000000002  0.7629899999999997  0.03796  1.0000
  C   C295      1.0  0.47445000000000015  0.7411699999999998  0.04318  1.0000
  C   C296      1.0  0.51715  0.71751  0.04784  1.0000
  C   C297      1.0  0.5565200000000002  0.69628  0.051  1.0000
  C   C298      1.0  0.60251  0.67239  0.05278  1.0000
  C   C299      1.0  0.8392099999999999  0.30496000000000006  0.83922  1.0000
  C   C300      1.0  0.78846  0.39219000000000004  0.7884499999999999  1.0000
  C   C301      1.0  0.7630400000000003  0.43595  0.76303  1.0000
  C   C302      1.0  0.7411800000000002  0.47445  0.74118  1.0000
  C   C303      1.0  0.7175000000000001  0.51714  0.71751  1.0000
  C   C304      1.0  0.6962300000000001  0.5565099999999998  0.69625  1.0000
  C   C305      1.0  0.67234  0.6025  0.67237  1.0000
  C   C306      1.0  0.83917  0.016619999999999985  0.8391699999999999  1.0000
  C   C307      1.0  0.7884300000000001  0.030890000000000004  0.78844  1.0000
  C   C308      1.0  0.76302  0.03796000000000001  0.76302  1.0000
  C   C309      1.0  0.7411800000000001  0.04316999999999998  0.74118  1.0000
  C   C310      1.0  0.7175000000000001  0.04783  0.71751  1.0000
  C   C311      1.0  0.69626  0.05098000000000002  0.6962599999999999  1.0000
  C   C312      1.0  0.6723800000000003  0.05277000000000001  0.67237  1.0000
  C   C313      1.0  0.37415000000000015  0.9470899999999997  0.37416  1.0000
  C   C314      1.0  0.94709  0.37417999999999996  0.30452  1.0000
  C   C315      1.0  0.30452000000000007  0.37417999999999996  0.9471  1.0000
  C   C316      1.0  0.3742  0.30450999999999995  0.3742  1.0000
  C   C317      1.0  0.3045300000000001  0.37419  0.37419  1.0000
  C   C318      1.0  0.3741800000000001  0.9470899999999998  0.30453  1.0000
  C   C319      1.0  0.3741799999999999  0.30453  0.94709  1.0000
  C   C320      1.0  0.94709  0.37415  0.37415  1.0000
  C   C321      1.0  0.94709  0.30452  0.37418  1.0000
  C   C322      1.0  0.37420000000000014  0.3742  0.30451  1.0000
  C   C323      1.0  0.3741499999999999  0.37416000000000005  0.94709  1.0000
  C   C324      1.0  0.30452000000000007  0.9470899999999999  0.37418  1.0000
  C   C325      1.0  0.6258200000000002  0.05290999999999996  0.6954700000000001  1.0000
  C   C326      1.0  0.052909999999999985  0.62585  0.62585  1.0000
  C   C327      1.0  0.6954600000000001  0.62581  0.62581  1.0000
  C   C328      1.0  0.6258199999999999  0.69547  0.05291  1.0000
  C   C329      1.0  0.6954700000000001  0.6258199999999998  0.05291  1.0000
  C   C330      1.0  0.6258400000000002  0.052909999999999985  0.62584  1.0000
  C   C331      1.0  0.62579  0.6954899999999998  0.62581  1.0000
  C   C332      1.0  0.05290000000000007  0.6258199999999998  0.69548  1.0000
  C   C333      1.0  0.05289999999999992  0.69548  0.62582  1.0000
  C   C334      1.0  0.6258400000000001  0.62584  0.05291  1.0000
  C   C335      1.0  0.6257900000000001  0.6257999999999999  0.69549  1.0000
  C   C336      1.0  0.6954700000000001  0.052909999999999985  0.62582  1.0000
  O   O1        1.0  0.7365  0.9887100000000001  0.20693  1.0000
  O   O2        1.0  0.6712399999999998  0.98844  0.27217  1.0000
  O   O3        1.0  0.98871  0.73654  0.0678  1.0000
  O   O4        1.0  0.9884200000000004  0.6712999999999998  0.06817  1.0000
  O   O5        1.0  0.06787000000000004  0.20696999999999993  0.98871  1.0000
  O   O6        1.0  0.06809999999999992  0.2722  0.98843  1.0000
  O   O7        1.0  0.20693  0.06779999999999997  0.73653  1.0000
  O   O8        1.0  0.27219  0.06811  0.67126  1.0000
  O   O9        1.0  0.06781000000000006  0.73653  0.20693  1.0000
  O   O10       1.0  0.06810000000000002  0.67126  0.2722  1.0000
  O   O11       1.0  0.20697000000000002  0.98869  0.06788  1.0000
  O   O12       1.0  0.27219999999999994  0.98842  0.0681  1.0000
  O   O13       1.0  0.73653  0.06781  0.98871  1.0000
  O   O14       1.0  0.6712900000000002  0.06816999999999994  0.98841  1.0000
  O   O15       1.0  0.98871  0.20692999999999998  0.73651  1.0000
  O   O16       1.0  0.9884300000000001  0.27217  0.67124  1.0000
  O   O17       1.0  0.9887  0.06787999999999997  0.20698000000000003  1.0000
  O   O18       1.0  0.9884200000000002  0.06808999999999994  0.27221  1.0000
  O   O19       1.0  0.7365100000000002  0.20694  0.06781  1.0000
  O   O20       1.0  0.67126  0.27221  0.06809  1.0000
  O   O21       1.0  0.20693000000000009  0.7364999999999997  0.98871  1.0000
  O   O22       1.0  0.27217000000000013  0.67124  0.98844  1.0000
  O   O23       1.0  0.06781000000000001  0.9887099999999999  0.7365200000000001  1.0000
  O   O24       1.0  0.06815999999999996  0.98842  0.6713  1.0000
  O   O25       1.0  0.26347000000000004  0.011289999999999975  0.93219  1.0000
  O   O26       1.0  0.3287  0.011589999999999965  0.9318400000000001  1.0000
  O   O27       1.0  0.011290000000000001  0.26349  0.79308  1.0000
  O   O28       1.0  0.011560000000000025  0.32876  0.72783  1.0000
  O   O29       1.0  0.93219  0.79307  0.26347  1.0000
  O   O30       1.0  0.9318900000000001  0.7278  0.32874  1.0000
  O   O31       1.0  0.7930299999999999  0.93212  0.0113  1.0000
  O   O32       1.0  0.7278000000000001  0.9318999999999998  0.01158  1.0000
  O   O33       1.0  0.93219  0.2634799999999999  0.01129  1.0000
  O   O34       1.0  0.9318400000000001  0.3287  0.01158  1.0000
  O   O35       1.0  0.79307  0.011289999999999991  0.2635  1.0000
  O   O36       1.0  0.72782  0.011559999999999997  0.32876  1.0000
  O   O37       1.0  0.26347999999999994  0.9321799999999998  0.79306  1.0000
  O   O38       1.0  0.32874000000000003  0.93191  0.72779  1.0000
  O   O39       1.0  0.011299999999999914  0.79302  0.93212  1.0000
  O   O40       1.0  0.011570000000000042  0.7277899999999999  0.93191  1.0000
  O   O41       1.0  0.011279999999999934  0.9322  0.26346  1.0000
  O   O42       1.0  0.011580000000000108  0.9318299999999998  0.3287  1.0000
  O   O43       1.0  0.26350000000000007  0.79307  0.01129  1.0000
  O   O44       1.0  0.32875000000000015  0.72783  0.011560000000000003  1.0000
  O   O45       1.0  0.79306  0.2634699999999999  0.93221  1.0000
  O   O46       1.0  0.72781  0.32873999999999975  0.9319000000000001  1.0000
  O   O47       1.0  0.93212  0.011300000000000029  0.79303  1.0000
  O   O48       1.0  0.9319  0.01158  0.7278  1.0000
  O   O49       1.0  0.26350000000000007  0.011289999999999975  0.79307  1.0000
  O   O50       1.0  0.32875000000000015  0.011560000000000013  0.72783  1.0000
  O   O51       1.0  0.011279999999999984  0.26346  0.93221  1.0000
  O   O52       1.0  0.011580000000000007  0.32869999999999994  0.93183  1.0000
  O   O53       1.0  0.93212  0.79303  0.01129  1.0000
  O   O54       1.0  0.9319  0.7278  0.01158  1.0000
  O   O55       1.0  0.7930599999999999  0.9322  0.26347  1.0000
  O   O56       1.0  0.7278100000000001  0.9318899999999998  0.32874  1.0000
  O   O57       1.0  0.93219  0.2634699999999999  0.79307  1.0000
  O   O58       1.0  0.9318900000000001  0.32873999999999975  0.7278  1.0000
  O   O59       1.0  0.79302  0.01129999999999997  0.93212  1.0000
  O   O60       1.0  0.72779  0.01157999999999997  0.9319000000000001  1.0000
  O   O61       1.0  0.2634699999999999  0.93219  0.01129  1.0000
  O   O62       1.0  0.3287000000000001  0.9318299999999998  0.01159  1.0000
  O   O63       1.0  0.011290000000000052  0.79307  0.26349  1.0000
  O   O64       1.0  0.011560000000000025  0.72782  0.32876  1.0000
  O   O65       1.0  0.011299999999999966  0.93212  0.79302  1.0000
  O   O66       1.0  0.01156999999999999  0.93191  0.72779  1.0000
  O   O67       1.0  0.26348000000000016  0.7930599999999998  0.93219  1.0000
  O   O68       1.0  0.3287400000000001  0.7277899999999999  0.93191  1.0000
  O   O69       1.0  0.79307  0.2635  0.01129  1.0000
  O   O70       1.0  0.72783  0.32876  0.011560000000000003  1.0000
  O   O71       1.0  0.93219  0.011290000000000005  0.26348  1.0000
  O   O72       1.0  0.9318400000000001  0.01158  0.32871  1.0000
  O   O73       1.0  0.7365300000000004  0.9887  0.06781  1.0000
  O   O74       1.0  0.6713  0.98841  0.06817  1.0000
  O   O75       1.0  0.98871  0.73651  0.20693  1.0000
  O   O76       1.0  0.9884300000000001  0.6712399999999998  0.27218  1.0000
  O   O77       1.0  0.06781000000000001  0.20692999999999998  0.73653  1.0000
  O   O78       1.0  0.0681  0.27219999999999994  0.67126  1.0000
  O   O79       1.0  0.2069700000000001  0.06788000000000001  0.9887  1.0000
  O   O80       1.0  0.2722  0.06809999999999998  0.98842  1.0000
  O   O81       1.0  0.06781000000000001  0.7365199999999998  0.98871  1.0000
  O   O82       1.0  0.06816000000000011  0.6712899999999998  0.98842  1.0000
  O   O83       1.0  0.20692999999999995  0.9887100000000001  0.7365  1.0000
  O   O84       1.0  0.27217  0.9884399999999999  0.67124  1.0000
  O   O85       1.0  0.7365100000000002  0.06780999999999998  0.20694  1.0000
  O   O86       1.0  0.67126  0.06808999999999994  0.27221  1.0000
  O   O87       1.0  0.9887  0.20697999999999997  0.06788  1.0000
  O   O88       1.0  0.9884200000000001  0.27221  0.06809  1.0000
  O   O89       1.0  0.98871  0.0678  0.73654  1.0000
  O   O90       1.0  0.9884200000000001  0.06817  0.6713  1.0000
  O   O91       1.0  0.7365  0.20692999999999995  0.9887200000000002  1.0000
  O   O92       1.0  0.67124  0.27217  0.98844  1.0000
  O   O93       1.0  0.20693  0.73653  0.0678  1.0000
  O   O94       1.0  0.27219  0.67126  0.06811  1.0000
  O   O95       1.0  0.06787000000000001  0.9886999999999999  0.20697  1.0000
  O   O96       1.0  0.06809999999999997  0.9884200000000001  0.2722  1.0000
