data_image0
_chemical_formula_structural       Zn8H168C248N32O32
_chemical_formula_sum              "Zn8 H168 C248 N32 O32"
_cell_length_a       14.44335
_cell_length_b       19.1555
_cell_length_c       26.720679999999998
_cell_angle_alpha    90.02948
_cell_angle_beta     89.98427
_cell_angle_gamma    110.27509

_symmetry_space_group_name_H-M    'P 1'
_symmetry_Int_Tables_number       1

loop_
  _symmetry_equiv_pos_as_xyz
  'x,y,z'

loop_
  _atom_site_type_symbol
  _atom_site_label
  _atom_site_symmetry_multiplicity
  _atom_site_fract_x
  _atom_site_fract_y
  _atom_site_fract_z
  _atom_site_occupancy
  Zn  Zn1       1.0  0.6067900000000002  0.18649  0.0423  1.0000
  Zn  Zn2       1.0  0.011959999999999991  0.85345  0.54165  1.0000
  Zn  Zn3       1.0  0.3932100000000001  0.8135  0.9576999999999999  1.0000
  Zn  Zn4       1.0  0.9880400000000003  0.14654  0.45835  1.0000
  Zn  Zn5       1.0  0.39393  0.31355  0.54223  1.0000
  Zn  Zn6       1.0  0.9871500000000002  0.64643  0.0415  1.0000
  Zn  Zn7       1.0  0.6060700000000002  0.68645  0.45777  1.0000
  Zn  Zn8       1.0  0.012839999999999994  0.35357  0.9585  1.0000
  H   H1        1.0  0.26008000000000003  0.9744199999999998  0.64529  1.0000
  H   H2        1.0  0.4152000000000001  0.00398  0.69423  1.0000
  H   H3        1.0  0.4826  0.8306  0.61574  1.0000
  H   H4        1.0  0.3301400000000001  0.80585  0.56459  1.0000
  H   H5        1.0  0.7803000000000002  0.8214  0.69567  1.0000
  H   H6        1.0  0.6411900000000001  0.85779  0.73129  1.0000
  H   H7        1.0  0.6285500000000003  0.97099  0.59434  1.0000
  H   H8        1.0  0.7661400000000003  0.9338400000000001  0.55921  1.0000
  H   H9        1.0  0.5799800000000002  0.03948  0.00096  1.0000
  H   H10       1.0  0.55698  0.9748100000000001  0.91843  1.0000
  H   H11       1.0  0.64292  0.19175  0.84848  1.0000
  H   H12       1.0  0.65171  0.24609999999999999  0.93354  1.0000
  H   H13       1.0  0.45067  0.95355  0.84729  1.0000
  H   H14       1.0  0.4268000000000001  0.89262  0.76376  1.0000
  H   H15       1.0  0.69906  0.05453  0.7126  1.0000
  H   H16       1.0  0.7214800000000001  0.11833  0.79553  1.0000
  H   H17       1.0  0.1333  0.85429  0.44883  1.0000
  H   H18       1.0  0.14169  0.8978  0.36073  1.0000
  H   H19       1.0  0.9145100000000003  0.9887800000000001  0.3983499999999999  1.0000
  H   H20       1.0  0.9176200000000002  0.94204  0.48437  1.0000
  H   H21       1.0  0.10767000000000006  0.9073200000000001  0.28675  1.0000
  H   H22       1.0  0.12179999999999998  0.96141  0.20258  1.0000
  H   H23       1.0  0.9643900000000002  0.10318  0.25201  1.0000
  H   H24       1.0  0.9552900000000002  0.05336  0.3367  1.0000
  H   H25       1.0  0.3941700000000002  0.16123  0.18138  1.0000
  H   H26       1.0  0.22564000000000006  0.12375999999999998  0.22022999999999998  1.0000
  H   H27       1.0  0.09464000000000003  0.06405  0.0748  1.0000
  H   H28       1.0  0.26309000000000005  0.10196  0.03683  1.0000
  H   H29       1.0  0.9228200000000002  0.21769  0.08365  1.0000
  H   H30       1.0  0.06519000000000003  0.1899  0.12034  1.0000
  H   H31       1.0  0.86525  0.9816  0.17648000000000003  1.0000
  H   H32       1.0  0.7240500000000002  0.00875  0.13744  1.0000
  H   H33       1.0  0.09184000000000002  0.71382  0.52114  1.0000
  H   H34       1.0  0.78888  0.57549  0.52508  1.0000
  H   H35       1.0  0.8071500000000003  0.7238  0.53881  1.0000
  H   H36       1.0  0.8553200000000001  0.51665  0.45779  1.0000
  H   H37       1.0  0.09903999999999999  0.59478  0.56095  1.0000
  H   H38       1.0  0.77605  0.34452  0.0635  1.0000
  H   H39       1.0  0.7400800000000002  0.47787  0.05339000000000001  1.0000
  H   H40       1.0  0.49427000000000015  0.29705  1e-05  1.0000
  H   H41       1.0  0.6824500000000002  0.54315  0.99008  1.0000
  H   H42       1.0  0.4075000000000001  0.37259  0.031169999999999996  1.0000
  H   H43       1.0  0.7399100000000001  0.02558  0.35471  1.0000
  H   H44       1.0  0.5848000000000002  0.99602  0.30577  1.0000
  H   H45       1.0  0.5174000000000002  0.1694  0.38425999999999993  1.0000
  H   H46       1.0  0.6698600000000005  0.19414  0.43541  1.0000
  H   H47       1.0  0.21969000000000005  0.1786  0.30432999999999993  1.0000
  H   H48       1.0  0.35881000000000013  0.14221  0.26871  1.0000
  H   H49       1.0  0.37144  0.029010000000000005  0.40566  1.0000
  H   H50       1.0  0.23384999999999997  0.06615  0.44079  1.0000
  H   H51       1.0  0.4200200000000001  0.96052  0.99904  1.0000
  H   H52       1.0  0.44302000000000014  0.02519  0.08156999999999999  1.0000
  H   H53       1.0  0.35708000000000006  0.80825  0.15152  1.0000
  H   H54       1.0  0.34829000000000004  0.7539  0.06646  1.0000
  H   H55       1.0  0.5493300000000001  0.04644  0.15271  1.0000
  H   H56       1.0  0.5732  0.10737  0.23625  1.0000
  H   H57       1.0  0.30094000000000004  0.94547  0.2874  1.0000
  H   H58       1.0  0.27851  0.88167  0.20447  1.0000
  H   H59       1.0  0.8667000000000002  0.14571  0.55117  1.0000
  H   H60       1.0  0.85831  0.1022  0.63927  1.0000
  H   H61       1.0  0.08549000000000001  0.01122  0.60165  1.0000
  H   H62       1.0  0.08238  0.05795  0.51563  1.0000
  H   H63       1.0  0.8923300000000004  0.09268  0.71325  1.0000
  H   H64       1.0  0.8782000000000002  0.03859  0.79742  1.0000
  H   H65       1.0  0.035610000000000024  0.89681  0.74799  1.0000
  H   H66       1.0  0.04471000000000001  0.94664  0.66331  1.0000
  H   H67       1.0  0.60583  0.83877  0.81862  1.0000
  H   H68       1.0  0.7743500000000002  0.87624  0.77977  1.0000
  H   H69       1.0  0.90535  0.9359399999999999  0.9252  1.0000
  H   H70       1.0  0.7369  0.8980399999999998  0.9631699999999999  1.0000
  H   H71       1.0  0.07717000000000006  0.7823  0.91635  1.0000
  H   H72       1.0  0.93481  0.81009  0.87966  1.0000
  H   H73       1.0  0.13474  0.0184  0.82352  1.0000
  H   H74       1.0  0.27595  0.99125  0.8625600000000001  1.0000
  H   H75       1.0  0.90816  0.28617  0.47885999999999995  1.0000
  H   H76       1.0  0.21112000000000006  0.4245  0.47492  1.0000
  H   H77       1.0  0.19284000000000007  0.27619  0.46119  1.0000
  H   H78       1.0  0.14467999999999998  0.48334999999999995  0.54221  1.0000
  H   H79       1.0  0.9009600000000002  0.40521  0.43905  1.0000
  H   H80       1.0  0.22395  0.65548  0.9365  1.0000
  H   H81       1.0  0.25992000000000004  0.52213  0.94661  1.0000
  H   H82       1.0  0.50572  0.70295  0.99999  1.0000
  H   H83       1.0  0.3175500000000001  0.4568499999999999  0.00992  1.0000
  H   H84       1.0  0.5924900000000002  0.62741  0.96883  1.0000
  H   H85       1.0  0.73914  0.52624  0.14425  1.0000
  H   H86       1.0  0.58528  0.49694000000000005  0.19405  1.0000
  H   H87       1.0  0.51612  0.66993  0.11595  1.0000
  H   H88       1.0  0.66824  0.69505  0.0646  1.0000
  H   H89       1.0  0.21889000000000006  0.67889  0.19612  1.0000
  H   H90       1.0  0.3578400000000001  0.64242  0.23165  1.0000
  H   H91       1.0  0.3691600000000001  0.52801  0.09496  1.0000
  H   H92       1.0  0.23161000000000007  0.56517  0.05997  1.0000
  H   H93       1.0  0.42022000000000004  0.46025  0.50128  1.0000
  H   H94       1.0  0.44263  0.52526  0.41912  1.0000
  H   H95       1.0  0.3567400000000001  0.30862  0.3484  1.0000
  H   H96       1.0  0.34828  0.25391  0.43331  1.0000
  H   H97       1.0  0.54936  0.54692  0.34746999999999995  1.0000
  H   H98       1.0  0.5729800000000002  0.60777  0.26396  1.0000
  H   H99       1.0  0.30084  0.44541  0.2129  1.0000
  H   H100      1.0  0.27879  0.38183  0.2958  1.0000
  H   H101      1.0  0.8666500000000003  0.64597  0.94844  1.0000
  H   H102      1.0  0.8586700000000003  0.60252  0.86032  1.0000
  H   H103      1.0  0.08600000000000001  0.51187  0.89796  1.0000
  H   H104      1.0  0.08233000000000004  0.55827  0.98403  1.0000
  H   H105      1.0  0.8926300000000003  0.59281  0.78629  1.0000
  H   H106      1.0  0.8791000000000002  0.5388  0.70208  1.0000
  H   H107      1.0  0.03712000000000005  0.39756  0.75157  1.0000
  H   H108      1.0  0.04576000000000002  0.4474000000000001  0.8362599999999999  1.0000
  H   H109      1.0  0.6069800000000002  0.33715  0.68231  1.0000
  H   H110      1.0  0.7763000000000002  0.37532  0.72038  1.0000
  H   H111      1.0  0.9048500000000005  0.43642  0.57464  1.0000
  H   H112      1.0  0.73569  0.39849  0.53743  1.0000
  H   H113      1.0  0.07614  0.28074  0.58345  1.0000
  H   H114      1.0  0.9344500000000002  0.30949  0.62005  1.0000
  H   H115      1.0  0.13592000000000004  0.51718  0.67637  1.0000
  H   H116      1.0  0.2765300000000001  0.48916  0.63734  1.0000
  H   H117      1.0  0.9076600000000002  0.78632  0.02095  1.0000
  H   H118      1.0  0.21089000000000008  0.924  0.0251  1.0000
  H   H119      1.0  0.19177999999999995  0.77566  0.039389999999999994  1.0000
  H   H120      1.0  0.14487999999999993  0.9834599999999999  0.95786  1.0000
  H   H121      1.0  0.9005200000000002  0.90499  0.06064  1.0000
  H   H122      1.0  0.22395  0.15587  0.5631  1.0000
  H   H123      1.0  0.25967000000000007  0.02226  0.55361  1.0000
  H   H124      1.0  0.50523  0.20202  0.4992  1.0000
  H   H125      1.0  0.31736000000000003  0.9559700000000001  0.4903799999999999  1.0000
  H   H126      1.0  0.59171  0.12761  0.53107  1.0000
  H   H127      1.0  0.2608600000000001  0.47376  0.8557499999999999  1.0000
  H   H128      1.0  0.4147200000000001  0.50305  0.80596  1.0000
  H   H129      1.0  0.48387  0.33006  0.88405  1.0000
  H   H130      1.0  0.33175  0.30494  0.9354000000000001  1.0000
  H   H131      1.0  0.78111  0.3211  0.80388  1.0000
  H   H132      1.0  0.64215  0.35758  0.76835  1.0000
  H   H133      1.0  0.63084  0.47198  0.90504  1.0000
  H   H134      1.0  0.7683900000000002  0.43483  0.94003  1.0000
  H   H135      1.0  0.57978  0.53975  0.49871999999999994  1.0000
  H   H136      1.0  0.5573700000000003  0.47473  0.58088  1.0000
  H   H137      1.0  0.64326  0.69138  0.6515999999999998  1.0000
  H   H138      1.0  0.65171  0.74609  0.56669  1.0000
  H   H139      1.0  0.45063999999999993  0.4530699999999999  0.65253  1.0000
  H   H140      1.0  0.4270100000000001  0.39223  0.73604  1.0000
  H   H141      1.0  0.6991600000000002  0.55459  0.7871  1.0000
  H   H142      1.0  0.7212100000000002  0.61817  0.7042  1.0000
  H   H143      1.0  0.13334000000000004  0.35403  0.05156  1.0000
  H   H144      1.0  0.14133  0.39748  0.13968  1.0000
  H   H145      1.0  0.914  0.48813  0.10204  1.0000
  H   H146      1.0  0.9176600000000003  0.44173  0.01597  1.0000
  H   H147      1.0  0.10737000000000002  0.40718  0.21371  1.0000
  H   H148      1.0  0.12089000000000003  0.4612  0.29792  1.0000
  H   H149      1.0  0.96287  0.60243  0.24843  1.0000
  H   H150      1.0  0.9542300000000002  0.5526  0.16374  1.0000
  H   H151      1.0  0.39302000000000004  0.66285  0.31769  1.0000
  H   H152      1.0  0.22368999999999994  0.62468  0.27962  1.0000
  H   H153      1.0  0.09515  0.56358  0.42536  1.0000
  H   H154      1.0  0.26431  0.6015  0.46257  1.0000
  H   H155      1.0  0.9238600000000005  0.71925  0.41655  1.0000
  H   H156      1.0  0.06555000000000004  0.69051  0.37996  1.0000
  H   H157      1.0  0.86408  0.48281  0.3236299999999999  1.0000
  H   H158      1.0  0.7234600000000002  0.51083  0.36267  1.0000
  H   H159      1.0  0.09234  0.21367  0.97906  1.0000
  H   H160      1.0  0.7891100000000002  0.076  0.97491  1.0000
  H   H161      1.0  0.80822  0.22434  0.96061  1.0000
  H   H162      1.0  0.8551200000000002  0.01653  0.04214  1.0000
  H   H163      1.0  0.09947000000000002  0.09501  0.9393599999999999  1.0000
  H   H164      1.0  0.77605  0.84413  0.4369  1.0000
  H   H165      1.0  0.74033  0.97773  0.44639  1.0000
  H   H166      1.0  0.49477000000000015  0.79798  0.5008  1.0000
  H   H167      1.0  0.6826400000000002  0.04403  0.50962  1.0000
  H   H168      1.0  0.40829  0.87239  0.46892999999999996  1.0000
  C   C1        1.0  0.19749  0.8731  0.56897  1.0000
  C   C2        1.0  0.28623  0.8891  0.60104  1.0000
  C   C3        1.0  0.30974000000000007  0.9437699999999999  0.6386  1.0000
  C   C4        1.0  0.3961800000000001  0.96004  0.66628  1.0000
  C   C5        1.0  0.46025000000000016  0.9199600000000001  0.65787  1.0000
  C   C6        1.0  0.43483  0.86298  0.62146  1.0000
  C   C7        1.0  0.3499  0.84891  0.59321  1.0000
  C   C8        1.0  0.8634100000000002  0.85271  0.60561  1.0000
  C   C9        1.0  0.7805800000000002  0.87496  0.62545  1.0000
  C   C10       1.0  0.746  0.85416  0.67419  1.0000
  C   C11       1.0  0.6699800000000002  0.87465  0.69391  1.0000
  C   C12       1.0  0.6276300000000001  0.9168  0.66497  1.0000
  C   C13       1.0  0.6622200000000003  0.93832  0.61629  1.0000
  C   C14       1.0  0.73796  0.9172499999999999  0.59674  1.0000
  C   C15       1.0  0.58976  0.0702  0.96596  1.0000
  C   C16       1.0  0.57918  0.03504  0.91989  1.0000
  C   C17       1.0  0.5981600000000002  0.07767  0.87587  1.0000
  C   C18       1.0  0.62697  0.15538  0.88104  1.0000
  C   C19       1.0  0.6322800000000002  0.18624  0.92852  1.0000
  C   C20       1.0  0.58661  0.04103  0.82661  1.0000
  C   C21       1.0  0.5043600000000001  0.9764400000000001  0.81755  1.0000
  C   C22       1.0  0.49104000000000003  0.9419999999999998  0.77088  1.0000
  C   C23       1.0  0.56089  0.9706500000000001  0.73284  1.0000
  C   C24       1.0  0.6446200000000002  0.03373  0.74214  1.0000
  C   C25       1.0  0.65675  0.06914  0.78845  1.0000
  C   C26       1.0  0.08597000000000002  0.88384  0.43528  1.0000
  C   C27       1.0  0.08900000000000002  0.90794  0.38618  1.0000
  C   C28       1.0  0.027350000000000027  0.94697  0.37029  1.0000
  C   C29       1.0  0.9642600000000002  0.9588799999999998  0.40695  1.0000
  C   C30       1.0  0.9656300000000002  0.9335800000000001  0.45539999999999997  1.0000
  C   C31       1.0  0.030410000000000093  0.9756100000000001  0.31904  1.0000
  C   C32       1.0  0.07750000000000003  0.95118  0.27997  1.0000
  C   C33       1.0  0.08445000000000003  0.98057  0.23206  1.0000
  C   C34       1.0  0.04371  0.03583  0.22135  1.0000
  C   C35       1.0  0.9948900000000003  0.059739999999999994  0.25961  1.0000
  C   C36       1.0  0.9887800000000002  0.03028  0.30753  1.0000
  C   C37       1.0  0.4399200000000001  0.15568  0.08517  1.0000
  C   C38       1.0  0.33883  0.13435  0.10693999999999998  1.0000
  C   C39       1.0  0.32759000000000005  0.13997  0.15877  1.0000
  C   C40       1.0  0.23424000000000006  0.1192  0.18013  1.0000
  C   C41       1.0  0.14933  0.09128  0.15012  1.0000
  C   C42       1.0  0.16003  0.0857  0.09809  1.0000
  C   C43       1.0  0.25396  0.10707  0.07694  1.0000
  C   C44       1.0  0.72829  0.13004  0.08545  1.0000
  C   C45       1.0  0.8142  0.11507  0.10837  1.0000
  C   C46       1.0  0.9109400000000002  0.16584  0.10366  1.0000
  C   C47       1.0  0.9904400000000002  0.15042  0.12422  1.0000
  C   C48       1.0  0.9747100000000002  0.08397  0.15088999999999997  1.0000
  C   C49       1.0  0.87777  0.03306  0.15593  1.0000
  C   C50       1.0  0.79898  0.04844  0.13459  1.0000
  C   C51       1.0  0.012399999999999993  0.69658  0.52466  1.0000
  C   C52       1.0  0.85272  0.62597  0.52596  1.0000
  C   C53       1.0  0.86289  0.69899  0.53319  1.0000
  C   C54       1.0  0.9170800000000002  0.50816  0.4769  1.0000
  C   C55       1.0  0.97442  0.56173  0.51049  1.0000
  C   C56       1.0  0.05714000000000001  0.55388  0.53366  1.0000
  C   C57       1.0  0.7132600000000001  0.35551  0.04803  1.0000
  C   C58       1.0  0.6962800000000001  0.42133  0.04321  1.0000
  C   C59       1.0  0.56611  0.32743  0.01565  1.0000
  C   C60       1.0  0.60274  0.52417  0.99458  1.0000
  C   C61       1.0  0.55063  0.45225  0.011630000000000001  1.0000
  C   C62       1.0  0.4480000000000001  0.42811  0.01718  1.0000
  C   C63       1.0  0.8025000000000002  0.1269  0.43103  1.0000
  C   C64       1.0  0.7137700000000002  0.11089  0.39897  1.0000
  C   C65       1.0  0.6902500000000003  0.05623  0.3614  1.0000
  C   C66       1.0  0.6038100000000002  0.03995  0.33372  1.0000
  C   C67       1.0  0.5397400000000002  0.08004  0.34213  1.0000
  C   C68       1.0  0.56517  0.13702  0.37854  1.0000
  C   C69       1.0  0.65009  0.15108  0.40679  1.0000
  C   C70       1.0  0.13659000000000002  0.14729  0.39438999999999996  1.0000
  C   C71       1.0  0.21942000000000006  0.12504  0.37455  1.0000
  C   C72       1.0  0.254  0.14584  0.32580999999999993  1.0000
  C   C73       1.0  0.33002  0.12535  0.30609  1.0000
  C   C74       1.0  0.37236000000000014  0.0832  0.33503  1.0000
  C   C75       1.0  0.33778  0.061680000000000006  0.38371  1.0000
  C   C76       1.0  0.26203  0.08274  0.40326  1.0000
  C   C77       1.0  0.41023  0.9298  0.03404  1.0000
  C   C78       1.0  0.4208200000000001  0.96495  0.08011  1.0000
  C   C79       1.0  0.40184000000000003  0.9223199999999999  0.12413  1.0000
  C   C80       1.0  0.37302000000000013  0.84461  0.11896  1.0000
  C   C81       1.0  0.36771  0.81375  0.07148  1.0000
  C   C82       1.0  0.41339000000000015  0.9589700000000001  0.17339  1.0000
  C   C83       1.0  0.49564  0.02356  0.18245  1.0000
  C   C84       1.0  0.50896  0.05799  0.22912  1.0000
  C   C85       1.0  0.4391000000000001  0.029349999999999998  0.26716  1.0000
  C   C86       1.0  0.3553800000000001  0.9662700000000001  0.25786  1.0000
  C   C87       1.0  0.3432500000000001  0.93086  0.21155  1.0000
  C   C88       1.0  0.9140300000000002  0.11616  0.56472  1.0000
  C   C89       1.0  0.9109900000000001  0.09205  0.61382  1.0000
  C   C90       1.0  0.97264  0.05303  0.62971  1.0000
  C   C91       1.0  0.03573000000000001  0.04112  0.59305  1.0000
  C   C92       1.0  0.03436  0.06641  0.5446  1.0000
  C   C93       1.0  0.9695800000000002  0.02439  0.68096  1.0000
  C   C94       1.0  0.9225000000000002  0.04882  0.72003  1.0000
  C   C95       1.0  0.9155400000000002  0.01942  0.7679399999999998  1.0000
  C   C96       1.0  0.9562900000000001  0.96417  0.77865  1.0000
  C   C97       1.0  0.005110000000000027  0.94026  0.74039  1.0000
  C   C98       1.0  0.011220000000000029  0.9697100000000001  0.69247  1.0000
  C   C99       1.0  0.5600700000000002  0.84432  0.91483  1.0000
  C   C100      1.0  0.6611700000000003  0.86565  0.89306  1.0000
  C   C101      1.0  0.67241  0.86003  0.84123  1.0000
  C   C102      1.0  0.7657500000000003  0.8808  0.81987  1.0000
  C   C103      1.0  0.85066  0.9087099999999999  0.8498800000000001  1.0000
  C   C104      1.0  0.8399700000000001  0.9142900000000002  0.9019100000000001  1.0000
  C   C105      1.0  0.7460300000000002  0.89292  0.92306  1.0000
  C   C106      1.0  0.2717000000000001  0.86995  0.9145499999999999  1.0000
  C   C107      1.0  0.18579000000000007  0.88492  0.89163  1.0000
  C   C108      1.0  0.08905000000000003  0.83416  0.89634  1.0000
  C   C109      1.0  0.00955999999999999  0.84957  0.8757799999999999  1.0000
  C   C110      1.0  0.02529  0.91603  0.8491199999999999  1.0000
  C   C111      1.0  0.12223000000000005  0.96693  0.84407  1.0000
  C   C112      1.0  0.20101000000000008  0.9515500000000001  0.86542  1.0000
  C   C113      1.0  0.9876000000000004  0.30342  0.47534  1.0000
  C   C114      1.0  0.14727000000000007  0.37403  0.4740400000000001  1.0000
  C   C115      1.0  0.13711  0.301  0.46681  1.0000
  C   C116      1.0  0.08290999999999998  0.49184  0.5231  1.0000
  C   C117      1.0  0.02557999999999999  0.43827  0.48951  1.0000
  C   C118      1.0  0.9428499999999999  0.44610999999999995  0.46634  1.0000
  C   C119      1.0  0.2867400000000001  0.64449  0.95197  1.0000
  C   C120      1.0  0.3037200000000001  0.57866  0.95679  1.0000
  C   C121      1.0  0.4338900000000001  0.67256  0.9843499999999998  1.0000
  C   C122      1.0  0.39726  0.47583  0.00542  1.0000
  C   C123      1.0  0.4493600000000001  0.54774  0.98837  1.0000
  C   C124      1.0  0.5520000000000003  0.57189  0.98282  1.0000
  C   C125      1.0  0.8010200000000002  0.62804  0.06811  1.0000
  C   C126      1.0  0.7124200000000003  0.61161  0.10036999999999999  1.0000
  C   C127      1.0  0.68936  0.55687  0.13786  1.0000
  C   C128      1.0  0.60346  0.54071  0.16599  1.0000
  C   C129      1.0  0.53903  0.58061  0.15795  1.0000
  C   C130      1.0  0.5639000000000002  0.63755  0.12152  1.0000
  C   C131      1.0  0.64858  0.65175  0.09301  1.0000
  C   C132      1.0  0.1350300000000001  0.647  0.10618  1.0000
  C   C133      1.0  0.21788  0.62472  0.126  1.0000
  C   C134      1.0  0.25287  0.64586  0.17465  1.0000
  C   C135      1.0  0.32899  0.62542  0.1943  1.0000
  C   C136      1.0  0.3712400000000001  0.58312  0.16539  1.0000
  C   C137      1.0  0.3360200000000001  0.5611  0.11687  1.0000
  C   C138      1.0  0.26014  0.58207  0.09738999999999999  1.0000
  C   C139      1.0  0.4104200000000001  0.42967  0.4662  1.0000
  C   C140      1.0  0.4208300000000001  0.46504  0.42023  1.0000
  C   C141      1.0  0.40188  0.42262  0.37609  1.0000
  C   C142      1.0  0.37298  0.34487  0.38103999999999993  1.0000
  C   C143      1.0  0.36784  0.31379  0.42842  1.0000
  C   C144      1.0  0.4134300000000001  0.45936000000000005  0.32687  1.0000
  C   C145      1.0  0.4956100000000001  0.52397  0.31775  1.0000
  C   C146      1.0  0.50881  0.55832  0.27106  1.0000
  C   C147      1.0  0.43889  0.52959  0.23305  1.0000
  C   C148      1.0  0.35534  0.46639  0.24239  1.0000
  C   C149      1.0  0.34337  0.4311  0.28871  1.0000
  C   C150      1.0  0.91412  0.61648  0.93491  1.0000
  C   C151      1.0  0.91131  0.59242  0.88579  1.0000
  C   C152      1.0  0.97311  0.5535  0.86988  1.0000
  C   C153      1.0  0.03611000000000004  0.54166  0.90657  1.0000
  C   C154      1.0  0.03448000000000004  0.56685  0.9550499999999998  1.0000
  C   C155      1.0  0.97027  0.52488  0.8186  1.0000
  C   C156      1.0  0.9231700000000003  0.54914  0.7794999999999999  1.0000
  C   C157      1.0  0.9164600000000003  0.51971  0.73158  1.0000
  C   C158      1.0  0.9574100000000002  0.46452999999999994  0.7209  1.0000
  C   C159      1.0  0.006370000000000014  0.44087  0.75918  1.0000
  C   C160      1.0  0.01224000000000001  0.47037  0.80709  1.0000
  C   C161      1.0  0.55986  0.34433  0.58607  1.0000
  C   C162      1.0  0.66112  0.36533  0.60767  1.0000
  C   C163      1.0  0.6730900000000002  0.35892  0.65938  1.0000
  C   C164      1.0  0.76682  0.3799  0.68035  1.0000
  C   C165      1.0  0.8512500000000004  0.40837  0.65006  1.0000
  C   C166      1.0  0.8398600000000003  0.4143  0.59815  1.0000
  C   C167      1.0  0.7455700000000001  0.393  0.57743  1.0000
  C   C168      1.0  0.27113000000000004  0.36733  0.58539  1.0000
  C   C169      1.0  0.18559000000000006  0.38308  0.60813  1.0000
  C   C170      1.0  0.08855000000000005  0.33276  0.6034000000000002  1.0000
  C   C171      1.0  0.009359999999999997  0.34871  0.62391  1.0000
  C   C172      1.0  0.025720000000000062  0.41532  0.65057  1.0000
  C   C173      1.0  0.12294  0.46572  0.6557  1.0000
  C   C174      1.0  0.20139000000000004  0.44982000000000005  0.63438  1.0000
  C   C175      1.0  0.9870600000000003  0.80341  0.024559999999999995  1.0000
  C   C176      1.0  0.14685  0.87367  0.02602  1.0000
  C   C177      1.0  0.13631000000000001  0.80063  0.03344  1.0000
  C   C178      1.0  0.08303000000000005  0.99189  0.97695  1.0000
  C   C179      1.0  0.025489999999999933  0.9382199999999999  0.010399999999999998  1.0000
  C   C180      1.0  0.9426400000000003  0.94601  0.03349  1.0000
  C   C181      1.0  0.28663  0.14462  0.5477  1.0000
  C   C182      1.0  0.30342000000000013  0.07867  0.54317  1.0000
  C   C183      1.0  0.43352999999999997  0.17212  0.51515  1.0000
  C   C184      1.0  0.39712  0.97538  0.49473  1.0000
  C   C185      1.0  0.4489800000000001  0.04742  0.51166  1.0000
  C   C186      1.0  0.5516500000000002  0.072  0.51707  1.0000
  C   C187      1.0  0.19898000000000005  0.37196  0.93189  1.0000
  C   C188      1.0  0.28758  0.38839  0.8996299999999999  1.0000
  C   C189      1.0  0.31064000000000014  0.44313  0.86214  1.0000
  C   C190      1.0  0.39654000000000006  0.45929  0.83401  1.0000
  C   C191      1.0  0.4609700000000001  0.41939  0.84205  1.0000
  C   C192      1.0  0.4361000000000001  0.36244  0.87848  1.0000
  C   C193      1.0  0.35142000000000007  0.34825  0.9069899999999999  1.0000
  C   C194      1.0  0.86496  0.353  0.89382  1.0000
  C   C195      1.0  0.7821200000000003  0.37528  0.874  1.0000
  C   C196      1.0  0.7471200000000005  0.35414  0.82535  1.0000
  C   C197      1.0  0.6710100000000002  0.37457  0.8057  1.0000
  C   C198      1.0  0.62876  0.41688  0.83461  1.0000
  C   C199      1.0  0.6639800000000002  0.4389  0.88313  1.0000
  C   C200      1.0  0.73985  0.41793  0.90261  1.0000
  C   C201      1.0  0.5895700000000003  0.57033  0.5338  1.0000
  C   C202      1.0  0.57917  0.53496  0.57977  1.0000
  C   C203      1.0  0.59811  0.57738  0.62391  1.0000
  C   C204      1.0  0.62702  0.65513  0.61896  1.0000
  C   C205      1.0  0.6321600000000003  0.6862  0.57158  1.0000
  C   C206      1.0  0.5865600000000002  0.54064  0.67313  1.0000
  C   C207      1.0  0.50439  0.47603  0.68225  1.0000
  C   C208      1.0  0.49119  0.44167  0.72894  1.0000
  C   C209      1.0  0.5611100000000002  0.47041  0.76695  1.0000
  C   C210      1.0  0.6446500000000002  0.5336  0.75761  1.0000
  C   C211      1.0  0.65663  0.5689  0.71129  1.0000
  C   C212      1.0  0.08588  0.38352  0.06509  1.0000
  C   C213      1.0  0.08869  0.40757  0.11421  1.0000
  C   C214      1.0  0.02689000000000002  0.4465  0.13012  1.0000
  C   C215      1.0  0.96389  0.45833999999999997  0.09343  1.0000
  C   C216      1.0  0.96552  0.43315  0.04495  1.0000
  C   C217      1.0  0.02972999999999996  0.47511999999999993  0.18139999999999998  1.0000
  C   C218      1.0  0.07683000000000001  0.45086000000000004  0.2205  1.0000
  C   C219      1.0  0.08353  0.48028  0.26843  1.0000
  C   C220      1.0  0.04258000000000002  0.53547  0.2791  1.0000
  C   C221      1.0  0.9936300000000002  0.55912  0.24082  1.0000
  C   C222      1.0  0.9877500000000002  0.52962  0.19291  1.0000
  C   C223      1.0  0.4401400000000001  0.65567  0.41393  1.0000
  C   C224      1.0  0.33888  0.63466  0.39233  1.0000
  C   C225      1.0  0.3269  0.64108  0.34062  1.0000
  C   C226      1.0  0.23317000000000004  0.6201  0.31964999999999993  1.0000
  C   C227      1.0  0.14874999999999997  0.59163  0.34994  1.0000
  C   C228      1.0  0.16014  0.5857  0.40184999999999993  1.0000
  C   C229      1.0  0.25443  0.607  0.42257999999999996  1.0000
  C   C230      1.0  0.72887  0.63267  0.41461  1.0000
  C   C231      1.0  0.8144100000000002  0.61691  0.39187  1.0000
  C   C232      1.0  0.91144  0.66724  0.3966  1.0000
  C   C233      1.0  0.9906300000000005  0.65128  0.37609  1.0000
  C   C234      1.0  0.97428  0.58468  0.34943  1.0000
  C   C235      1.0  0.8770600000000001  0.53428  0.3443  1.0000
  C   C236      1.0  0.7986000000000002  0.55018  0.36562  1.0000
  C   C237      1.0  0.01293000000000002  0.19659  0.97544  1.0000
  C   C238      1.0  0.8531400000000002  0.12633  0.97398  1.0000
  C   C239      1.0  0.8636800000000002  0.19936  0.96656  1.0000
  C   C240      1.0  0.91697  0.00811  0.02305  1.0000
  C   C241      1.0  0.9745100000000002  0.06178  0.9896  1.0000
  C   C242      1.0  0.05735000000000001  0.05399  0.96651  1.0000
  C   C243      1.0  0.71337  0.85538  0.4523  1.0000
  C   C244      1.0  0.69657  0.9213300000000001  0.45683  1.0000
  C   C245      1.0  0.5664600000000002  0.82788  0.48485  1.0000
  C   C246      1.0  0.60288  0.02462  0.50527  1.0000
  C   C247      1.0  0.55102  0.95257  0.48835  1.0000
  C   C248      1.0  0.4483400000000001  0.928  0.48292999999999997  1.0000
  N   N1        1.0  0.61462  0.14469  0.97059  1.0000
  N   N2        1.0  0.5484300000000002  0.93614  0.6848999999999998  1.0000
  N   N3        1.0  0.02543000000000004  0.89651  0.46997  1.0000
  N   N4        1.0  0.05463  0.06816  0.17294  1.0000
  N   N5        1.0  0.9620000000000002  0.74203  0.53224  1.0000
  N   N6        1.0  0.94823  0.62504  0.52083  1.0000
  N   N7        1.0  0.63218  0.29791  0.03052  1.0000
  N   N8        1.0  0.60193  0.40283  0.02281  1.0000
  N   N9        1.0  0.3853800000000001  0.85531  0.02941  1.0000
  N   N10       1.0  0.45156  0.06386  0.3151  1.0000
  N   N11       1.0  0.9745600000000002  0.10349  0.53003  1.0000
  N   N12       1.0  0.9453700000000003  0.93183  0.82706  1.0000
  N   N13       1.0  0.03800000000000002  0.25797  0.46776  1.0000
  N   N14       1.0  0.05175999999999998  0.37495  0.47917  1.0000
  N   N15       1.0  0.36781000000000014  0.70208  0.96948  1.0000
  N   N16       1.0  0.3980700000000001  0.59717  0.9772  1.0000
  N   N17       1.0  0.38572  0.35518  0.47059  1.0000
  N   N18       1.0  0.4509000000000001  0.56412  0.18515  1.0000
  N   N19       1.0  0.97458  0.60385  0.96964  1.0000
  N   N20       1.0  0.94628  0.43182  0.67258  1.0000
  N   N21       1.0  0.03714000000000002  0.7578  0.03238  1.0000
  N   N22       1.0  0.05150000000000002  0.87482  0.02068  1.0000
  N   N23       1.0  0.3677300000000001  0.20196  0.52992  1.0000
  N   N24       1.0  0.39764  0.09683  0.52269  1.0000
  N   N25       1.0  0.6142800000000003  0.64482  0.52941  1.0000
  N   N26       1.0  0.54909  0.43588  0.81486  1.0000
  N   N27       1.0  0.025419999999999977  0.39615  0.030359999999999998  1.0000
  N   N28       1.0  0.05372  0.56818  0.32742000000000004  1.0000
  N   N29       1.0  0.9628600000000002  0.2422  0.96762  1.0000
  N   N30       1.0  0.9485000000000002  0.12518  0.97932  1.0000
  N   N31       1.0  0.6322600000000002  0.79804  0.47008  1.0000
  N   N32       1.0  0.6023500000000003  0.90316  0.47731  1.0000
  O   O1        1.0  0.13208999999999999  0.90261  0.58253  1.0000
  O   O2        1.0  0.18833000000000003  0.83329  0.53039  1.0000
  O   O3        1.0  0.8941400000000003  0.87814  0.56081  1.0000
  O   O4        1.0  0.8984600000000003  0.81345  0.63123  1.0000
  O   O5        1.0  0.7407000000000002  0.19793  0.0731  1.0000
  O   O6        1.0  0.64814  0.07669  0.07848  1.0000
  O   O7        1.0  0.44881000000000004  0.14672  0.03773  1.0000
  O   O8        1.0  0.51504  0.18031  0.11338  1.0000
  O   O9        1.0  0.8679000000000002  0.09739  0.41746999999999995  1.0000
  O   O10       1.0  0.8116700000000001  0.1667  0.46961  1.0000
  O   O11       1.0  0.10585  0.12186  0.43919  1.0000
  O   O12       1.0  0.10154000000000003  0.18654  0.36877  1.0000
  O   O13       1.0  0.25929  0.80207  0.9269  1.0000
  O   O14       1.0  0.35186  0.9233099999999999  0.92152  1.0000
  O   O15       1.0  0.5511900000000001  0.85328  0.96227  1.0000
  O   O16       1.0  0.4849500000000001  0.81968  0.88662  1.0000
  O   O17       1.0  0.8656600000000002  0.59739  0.08087  1.0000
  O   O18       1.0  0.8107300000000002  0.66912  0.0302  1.0000
  O   O19       1.0  0.10262000000000004  0.62034  0.06184  1.0000
  O   O20       1.0  0.10158  0.68759  0.13142  1.0000
  O   O21       1.0  0.25843  0.29947  0.57298  1.0000
  O   O22       1.0  0.3520200000000001  0.42018  0.57854  1.0000
  O   O23       1.0  0.5509700000000001  0.35708  0.53912  1.0000
  O   O24       1.0  0.4848700000000002  0.31605  0.61375  1.0000
  O   O25       1.0  0.13433000000000006  0.40261  0.91913  1.0000
  O   O26       1.0  0.18927000000000005  0.33088  0.9697999999999999  1.0000
  O   O27       1.0  0.8973700000000001  0.37965  0.93816  1.0000
  O   O28       1.0  0.8984100000000003  0.3124  0.86858  1.0000
  O   O29       1.0  0.7415600000000001  0.70052  0.42701999999999996  1.0000
  O   O30       1.0  0.64797  0.57981  0.42146  1.0000
  O   O31       1.0  0.44903000000000004  0.64291  0.46087999999999996  1.0000
  O   O32       1.0  0.51513  0.68395  0.3862499999999999  1.0000
