data_image0
_chemical_formula_structural       Zn12H116C220O56
_chemical_formula_sum              "Zn12 H116 C220 O56"
_cell_length_a       16.17758
_cell_length_b       16.78321
_cell_length_c       29.815900000000003
_cell_angle_alpha    105.19193000000001
_cell_angle_beta     99.43602
_cell_angle_gamma    110.40446

_symmetry_space_group_name_H-M    'P 1'
_symmetry_Int_Tables_number       1

loop_
  _symmetry_equiv_pos_as_xyz
  'x,y,z'

loop_
  _atom_site_type_symbol
  _atom_site_label
  _atom_site_symmetry_multiplicity
  _atom_site_fract_x
  _atom_site_fract_y
  _atom_site_fract_z
  _atom_site_occupancy
  Zn  Zn1       1.0  0.7163000000000002  0.7618899999999997  0.22571000000000005  1.0000
  Zn  Zn2       1.0  0.7171100000000002  0.6069000000000001  0.8871200000000001  1.0000
  Zn  Zn3       1.0  0.2505700000000002  0.17468000000000009  0.3998500000000001  1.0000
  Zn  Zn4       1.0  0.92346  0.73759  0.28437  1.0000
  Zn  Zn5       1.0  0.7494300000000003  0.8253200000000002  0.6001500000000002  1.0000
  Zn  Zn6       1.0  0.8290600000000002  0.01632999999999999  0.69207  1.0000
  Zn  Zn7       1.0  0.35104000000000013  0.56843  0.19601  1.0000
  Zn  Zn8       1.0  0.28289  0.3931099999999999  0.11289  1.0000
  Zn  Zn9       1.0  0.1709399999999999  0.9836699999999998  0.30793  1.0000
  Zn  Zn10      1.0  0.2837000000000001  0.23812000000000014  0.7742900000000003  1.0000
  Zn  Zn11      1.0  0.6489600000000001  0.4315700000000002  0.8039900000000002  1.0000
  Zn  Zn12      1.0  0.07655000000000006  0.2624100000000001  0.7156300000000001  1.0000
  H   H1        1.0  0.23399000000000006  0.96288  0.026010000000000005  1.0000
  H   H2        1.0  0.31815000000000004  0.4718900000000001  0.4607300000000001  1.0000
  H   H3        1.0  0.20732  0.08253  0.87013  1.0000
  H   H4        1.0  0.79592  0.41605  0.22405  1.0000
  H   H5        1.0  0.49269000000000013  0.30388000000000004  0.3623900000000001  1.0000
  H   H6        1.0  0.20408000000000012  0.5839500000000001  0.7759500000000003  1.0000
  H   H7        1.0  0.41281  0.028880000000000006  0.27201  1.0000
  H   H8        1.0  0.5899100000000002  0.47840000000000005  0.13723  1.0000
  H   H9        1.0  0.56933  0.9431799999999998  0.18333000000000002  1.0000
  H   H10       1.0  0.17139000000000001  0.6136  0.13697  1.0000
  H   H11       1.0  0.5564300000000001  0.16971  0.9402800000000001  1.0000
  H   H12       1.0  0.20647999999999994  0.6010099999999998  0.95619  1.0000
  H   H13       1.0  0.09724000000000013  0.81593  0.38279000000000013  1.0000
  H   H14       1.0  0.7672200000000002  0.8880599999999998  0.93199  1.0000
  H   H15       1.0  0.9992400000000001  0.6612199999999998  0.69301  1.0000
  H   H16       1.0  0.6548299999999999  0.10894999999999994  0.96552  1.0000
  H   H17       1.0  0.43067  0.05682000000000001  0.81668  1.0000
  H   H18       1.0  0.7905900000000001  0.4849200000000001  0.9879100000000002  1.0000
  H   H19       1.0  0.8001200000000002  0.27051000000000014  0.7829600000000002  1.0000
  H   H20       1.0  0.03420000000000002  0.44544  0.51076  1.0000
  H   H21       1.0  0.8517699999999999  0.3894199999999999  0.13181  1.0000
  H   H22       1.0  0.25631  0.051260000000000014  0.51005  1.0000
  H   H23       1.0  0.82861  0.3863999999999998  0.86303  1.0000
  H   H24       1.0  0.53621  0.90161  0.02139  1.0000
  H   H25       1.0  0.34517  0.89105  0.03448  1.0000
  H   H26       1.0  0.53782  0.75328  0.97939  1.0000
  H   H27       1.0  0.9415400000000003  0.69222  0.52643  1.0000
  H   H28       1.0  0.1195999999999999  0.4535499999999999  0.81908  1.0000
  H   H29       1.0  0.19988000000000006  0.72949  0.21704000000000007  1.0000
  H   H30       1.0  0.27502  0.06548999999999996  0.69808  1.0000
  H   H31       1.0  0.24518  0.55677  0.59664  1.0000
  H   H32       1.0  0.7250199999999999  0.15354999999999996  0.28011  1.0000
  H   H33       1.0  0.9871999999999999  0.9982799999999997  0.39725  1.0000
  H   H34       1.0  0.7063999999999999  0.38866  0.5032  1.0000
  H   H35       1.0  0.98769  0.56574  0.6099000000000002  1.0000
  H   H36       1.0  0.0007599999999999471  0.3387799999999999  0.30699  1.0000
  H   H37       1.0  0.79269  0.91747  0.12987  1.0000
  H   H38       1.0  0.51734  0.24081999999999998  0.19854  1.0000
  H   H39       1.0  0.046180000000000006  0.27942  0.15074  1.0000
  H   H40       1.0  0.012310000000000014  0.43426  0.39010000000000006  1.0000
  H   H41       1.0  0.4386100000000001  0.9507700000000002  0.8612700000000001  1.0000
  H   H42       1.0  0.58719  0.97112  0.7279900000000001  1.0000
  H   H43       1.0  0.78212  0.01830000000000001  0.08293000000000002  1.0000
  H   H44       1.0  0.07553999999999995  0.71853  0.4330100000000001  1.0000
  H   H45       1.0  0.93501  0.73094  0.16857  1.0000
  H   H46       1.0  0.76054  0.04586000000000005  0.4391  1.0000
  H   H47       1.0  0.4491100000000002  0.92268  0.75865  1.0000
  H   H48       1.0  0.7436999999999999  0.9487399999999999  0.48995  1.0000
  H   H49       1.0  0.20258000000000004  0.93332  0.77052  1.0000
  H   H50       1.0  0.89963  0.44774999999999987  0.76504  1.0000
  H   H51       1.0  0.68899  0.21253  0.14103  1.0000
  H   H52       1.0  0.95382  0.7205800000000002  0.8492600000000001  1.0000
  H   H53       1.0  0.11443  0.27769  0.33188  1.0000
  H   H54       1.0  0.5073100000000001  0.6961200000000001  0.6376100000000001  1.0000
  H   H55       1.0  0.4100900000000001  0.5216000000000001  0.8627700000000001  1.0000
  H   H56       1.0  0.6818500000000001  0.52812  0.53927  1.0000
  H   H57       1.0  0.46218000000000004  0.24672  0.02061  1.0000
  H   H58       1.0  0.27498000000000017  0.8464500000000001  0.7198900000000003  1.0000
  H   H59       1.0  0.5610600000000002  0.32297999999999993  0.08923  1.0000
  H   H60       1.0  0.9642300000000003  0.4498000000000002  0.6506100000000002  1.0000
  H   H61       1.0  0.62782  0.57626  0.26526  1.0000
  H   H62       1.0  0.22148999999999996  0.44155999999999995  0.6371900000000001  1.0000
  H   H63       1.0  0.08905  0.37657  0.91347  1.0000
  H   H64       1.0  0.79742  0.06668000000000006  0.22948000000000005  1.0000
  H   H65       1.0  0.06499999999999996  0.26906  0.83143  1.0000
  H   H66       1.0  0.82848  0.328  0.52712  1.0000
  H   H67       1.0  0.88727  0.26715  0.36686  1.0000
  H   H68       1.0  0.14822999999999995  0.6105799999999998  0.8681900000000001  1.0000
  H   H69       1.0  0.2641700000000001  0.4944800000000001  0.7213500000000003  1.0000
  H   H70       1.0  0.4435699999999999  0.8302899999999998  0.05972  1.0000
  H   H71       1.0  0.99497  0.14885000000000004  0.44294000000000006  1.0000
  H   H72       1.0  0.2936000000000001  0.61134  0.4968  1.0000
  H   H73       1.0  0.039950000000000006  0.50441  0.73884  1.0000
  H   H74       1.0  0.96005  0.49559  0.26116  1.0000
  H   H75       1.0  0.7785099999999999  0.5584399999999998  0.36281000000000013  1.0000
  H   H76       1.0  0.21789000000000003  0.9817000000000001  0.91707  1.0000
  H   H77       1.0  0.03576999999999992  0.5502099999999998  0.34940000000000004  1.0000
  H   H78       1.0  0.79352  0.39899  0.04381  1.0000
  H   H79       1.0  0.9658  0.55457  0.48924  1.0000
  H   H80       1.0  0.37217999999999996  0.4237399999999999  0.73474  1.0000
  H   H81       1.0  0.9027599999999999  0.1840699999999999  0.61721  1.0000
  H   H82       1.0  0.01280000000000001  0.0017200000000000294  0.60275  1.0000
  H   H83       1.0  0.08706000000000003  0.9936500000000001  0.7486900000000001  1.0000
  H   H84       1.0  0.62578  0.35442  0.32857000000000003  1.0000
  H   H85       1.0  0.73583  0.50552  0.27865  1.0000
  H   H86       1.0  0.23278000000000001  0.11194  0.06801  1.0000
  H   H87       1.0  0.41097  0.31347  0.18134  1.0000
  H   H88       1.0  0.31102000000000013  0.7874700000000001  0.8589700000000001  1.0000
  H   H89       1.0  0.7249800000000002  0.9345100000000001  0.30192000000000013  1.0000
  H   H90       1.0  0.90802  0.22080999999999995  0.1795  1.0000
  H   H91       1.0  0.92447  0.28146999999999983  0.56699  1.0000
  H   H92       1.0  0.37422  0.64558  0.67143  1.0000
  H   H93       1.0  0.26400999999999997  0.9112999999999998  0.65514  1.0000
  H   H94       1.0  0.88557  0.72231  0.66812  1.0000
  H   H95       1.0  0.20941000000000007  0.51508  0.012090000000000004  1.0000
  H   H96       1.0  0.58903  0.68653  0.81866  1.0000
  H   H97       1.0  0.43894  0.6770199999999997  0.91077  1.0000
  H   H98       1.0  0.44333999999999996  0.74492  0.11602000000000003  1.0000
  H   H99       1.0  0.17152000000000006  0.672  0.47288000000000013  1.0000
  H   H100      1.0  0.48266999999999993  0.75918  0.80146  1.0000
  H   H101      1.0  0.56139  0.04923000000000002  0.13873  1.0000
  H   H102      1.0  0.91095  0.62343  0.08653  1.0000
  H   H103      1.0  0.76602  0.03713000000000004  0.97399  1.0000
  H   H104      1.0  0.058469999999999994  0.30778  0.47358  1.0000
  H   H105      1.0  0.46379000000000004  0.09840000000000003  0.97861  1.0000
  H   H106      1.0  0.5566600000000003  0.2550800000000001  0.8839800000000001  1.0000
  H   H107      1.0  0.5508900000000001  0.07732000000000003  0.24136000000000005  1.0000
  H   H108      1.0  0.7548200000000003  0.44323  0.40336  1.0000
  H   H109      1.0  0.11273000000000018  0.7328500000000002  0.6331400000000003  1.0000
  H   H110      1.0  0.73599  0.08871  0.34486  1.0000
  H   H111      1.0  0.09198  0.7791899999999998  0.8205  1.0000
  H   H112      1.0  0.10036999999999999  0.55226  0.23496  1.0000
  H   H113      1.0  0.91294  0.006349999999999978  0.25131  1.0000
  H   H114      1.0  0.8804000000000002  0.54645  0.18092  1.0000
  H   H115      1.0  0.005040000000000052  0.85116  0.55706  1.0000
  H   H116      1.0  0.23946  0.9541399999999998  0.5609  1.0000
  C   C1        1.0  0.32928999999999997  0.9599299999999998  0.89264  1.0000
  C   C2        1.0  0.3250000000000001  0.7785100000000001  0.9727400000000003  1.0000
  C   C3        1.0  0.55499  0.83639  0.68097  1.0000
  C   C4        1.0  0.32541000000000003  0.72202  0.003490000000000001  1.0000
  C   C5        1.0  0.46229  0.87311  0.7324  1.0000
  C   C6        1.0  0.6335100000000002  0.36803  0.24032000000000006  1.0000
  C   C7        1.0  0.6514800000000002  0.97973  0.00093  1.0000
  C   C8        1.0  0.9502  0.29322  0.19155000000000005  1.0000
  C   C9        1.0  0.8417900000000001  0.31457000000000007  0.49192000000000013  1.0000
  C   C10       1.0  0.32812  0.5739399999999998  0.10126  1.0000
  C   C11       1.0  0.30883  0.13534  0.81313  1.0000
  C   C12       1.0  0.18428  0.53413  0.60896  1.0000
  C   C13       1.0  0.3416799999999999  0.9296499999999998  0.97158  1.0000
  C   C14       1.0  0.80592  0.003689999999999974  0.58839  1.0000
  C   C15       1.0  0.21798000000000006  0.63963  0.76208  1.0000
  C   C16       1.0  0.6771500000000003  0.2501300000000001  0.26410000000000006  1.0000
  C   C17       1.0  0.75826  0.4552099999999999  0.5087  1.0000
  C   C18       1.0  0.15099000000000004  0.62116  0.5307  1.0000
  C   C19       1.0  0.65832  0.07036  0.02842  1.0000
  C   C20       1.0  0.68672  0.25115  0.07788  1.0000
  C   C21       1.0  0.03921999999999993  0.6123099999999998  0.10778000000000001  1.0000
  C   C22       1.0  0.20673000000000014  0.92354  0.52215  1.0000
  C   C23       1.0  0.87943  0.35988000000000003  0.8559600000000002  1.0000
  C   C24       1.0  0.8095900000000003  0.61832  0.53431  1.0000
  C   C25       1.0  0.9788300000000001  0.4477899999999999  0.23732000000000003  1.0000
  C   C26       1.0  0.95468  0.7674  0.69122  1.0000
  C   C27       1.0  0.6078300000000001  0.2860800000000001  0.9191400000000001  1.0000
  C   C28       1.0  0.3132900000000002  0.7488499999999999  0.9221200000000003  1.0000
  C   C29       1.0  0.45881  0.68596  0.78702  1.0000
  C   C30       1.0  0.08181000000000012  0.3734800000000001  0.6731200000000003  1.0000
  C   C31       1.0  0.18923000000000012  0.50282  0.83936  1.0000
  C   C32       1.0  0.3921700000000001  0.71392  0.08086  1.0000
  C   C33       1.0  0.02117000000000002  0.5522099999999999  0.7626800000000002  1.0000
  C   C34       1.0  0.66457  0.46283  0.25809  1.0000
  C   C35       1.0  0.3228500000000002  0.74987  0.7359  1.0000
  C   C36       1.0  0.88343  0.2089  0.54981  1.0000
  C   C37       1.0  0.9313  0.26393  0.80239  1.0000
  C   C38       1.0  0.28494  0.02526  0.02558  1.0000
  C   C39       1.0  0.53771  0.12689  0.2676  1.0000
  C   C40       1.0  0.97213  0.64444  0.11588  1.0000
  C   C41       1.0  0.9424  0.52002  0.77738  1.0000
  C   C42       1.0  0.84901  0.37884000000000007  0.46930000000000005  1.0000
  C   C43       1.0  0.8642  0.21534999999999999  0.4243100000000001  1.0000
  C   C44       1.0  0.73701  0.52269  0.16247000000000006  1.0000
  C   C45       1.0  0.16251000000000004  0.53824  0.50659  1.0000
  C   C46       1.0  0.5795  0.28315  0.31658  1.0000
  C   C47       1.0  0.13316999999999998  0.8872799999999998  0.74819  1.0000
  C   C48       1.0  0.83749  0.46176  0.49341  1.0000
  C   C49       1.0  0.97385  0.52515  0.36067  1.0000
  C   C50       1.0  0.049799999999999865  0.7067899999999998  0.80845  1.0000
  C   C51       1.0  0.67293  0.3757000000000001  0.93282  1.0000
  C   C52       1.0  0.9037900000000001  0.54819  0.5003  1.0000
  C   C53       1.0  0.8684200000000002  0.3628499999999999  0.42368000000000006  1.0000
  C   C54       1.0  0.19408000000000003  0.99631  0.41161  1.0000
  C   C55       1.0  0.057610000000000036  0.4799800000000001  0.22263000000000005  1.0000
  C   C56       1.0  0.9358000000000003  0.10233000000000005  0.4121900000000001  1.0000
  C   C57       1.0  0.4205000000000001  0.71685  0.68342  1.0000
  C   C58       1.0  0.46126  0.09955  0.28479  1.0000
  C   C59       1.0  0.3433200000000001  0.2770499999999999  0.0712  1.0000
  C   C60       1.0  0.5871300000000002  0.8155500000000001  0.9779600000000002  1.0000
  C   C61       1.0  0.3383100000000001  0.86827  0.9958500000000002  1.0000
  C   C62       1.0  0.92581  0.35396  0.22329  1.0000
  C   C63       1.0  0.6566800000000003  0.7229500000000002  0.9288000000000002  1.0000
  C   C64       1.0  0.33323000000000014  0.90056  0.92123  1.0000
  C   C65       1.0  0.3957600000000001  0.4969099999999999  0.74941  1.0000
  C   C66       1.0  0.38828999999999997  0.9800099999999999  0.8634800000000001  1.0000
  C   C67       1.0  0.9731  0.6745  0.82461  1.0000
  C   C68       1.0  0.1496  0.7667  0.52877  1.0000
  C   C69       1.0  0.19041  0.38168  0.46569  1.0000
  C   C70       1.0  0.64725  0.4591499999999999  0.13609  1.0000
  C   C71       1.0  0.13157999999999995  0.6371499999999998  0.57632  1.0000
  C   C72       1.0  0.7418600000000002  0.9459899999999998  0.13104  1.0000
  C   C73       1.0  0.41287  0.18445  0.022040000000000004  1.0000
  C   C74       1.0  0.6745900000000002  0.2779800000000001  0.9965100000000002  1.0000
  C   C75       1.0  0.06822999999999992  0.9819799999999997  0.61337  1.0000
  C   C76       1.0  0.9115000000000001  0.18876000000000012  0.7567100000000002  1.0000
  C   C77       1.0  0.8231800000000002  0.24355  0.25574  1.0000
  C   C78       1.0  0.78202  0.3603699999999999  0.23792  1.0000
  C   C79       1.0  0.8107800000000002  0.49717999999999996  0.16064000000000006  1.0000
  C   C80       1.0  0.21567999999999998  0.01754999999999996  0.66767  1.0000
  C   C81       1.0  0.04532000000000001  0.2326  0.30878  1.0000
  C   C82       1.0  0.91819  0.62653  0.32688  1.0000
  C   C83       1.0  0.40331  0.78066  0.71756  1.0000
  C   C84       1.0  0.3617400000000002  0.1340800000000001  0.3367700000000001  1.0000
  C   C85       1.0  0.87236  0.15438  0.57818  1.0000
  C   C86       1.0  0.15591000000000008  0.68017  0.75986  1.0000
  C   C87       1.0  0.67072  0.04007000000000001  0.10736000000000001  1.0000
  C   C88       1.0  0.78283  0.021670000000000016  0.50628  1.0000
  C   C89       1.0  0.20539  0.59073  0.86702  1.0000
  C   C90       1.0  0.8430000000000003  0.17143000000000005  0.49916  1.0000
  C   C91       1.0  0.69118  0.8646699999999998  0.18687  1.0000
  C   C92       1.0  0.03971000000000006  0.53995  0.6170200000000002  1.0000
  C   C93       1.0  0.61603  0.96127  0.16161  1.0000
  C   C94       1.0  0.67188  0.42606000000000005  0.89874  1.0000
  C   C95       1.0  0.4816600000000001  0.35421  0.20349  1.0000
  C   C96       1.0  0.17905000000000004  0.9397700000000001  0.44331  1.0000
  C   C97       1.0  0.73593  0.0024200000000000267  0.10514000000000003  1.0000
  C   C98       1.0  0.17682000000000006  0.75645  0.7442600000000003  1.0000
  C   C99       1.0  0.08255  0.41884  0.1919  1.0000
  C   C100      1.0  0.86419  0.2960999999999999  0.81126  1.0000
  C   C101      1.0  0.7932700000000003  0.07647000000000004  0.47785  1.0000
  C   C102      1.0  0.83058  0.54931  0.82196  1.0000
  C   C103      1.0  0.9174500000000003  0.5811600000000002  0.8081000000000003  1.0000
  C   C104      1.0  0.98191  0.26622  0.29505  1.0000
  C   C105      1.0  0.8668300000000001  0.11272000000000001  0.25181  1.0000
  C   C106      1.0  0.60836  0.2385200000000002  0.9508700000000002  1.0000
  C   C107      1.0  0.13581  0.7846499999999997  0.57569  1.0000
  C   C108      1.0  0.7150600000000003  0.9747400000000003  0.9744200000000002  1.0000
  C   C109      1.0  0.08850000000000001  0.81124  0.24329000000000006  1.0000
  C   C110      1.0  0.32707  0.6243099999999998  0.06718  1.0000
  C   C111      1.0  0.14520000000000008  0.0433900000000001  0.6524300000000001  1.0000
  C   C112      1.0  0.21716999999999997  0.9783299999999998  0.49372  1.0000
  C   C113      1.0  0.15822  0.68543  0.50808  1.0000
  C   C114      1.0  0.89137  0.20661999999999994  0.26667  1.0000
  C   C115      1.0  0.30152000000000023  0.6735600000000003  0.7513800000000003  1.0000
  C   C116      1.0  0.88107  0.42954000000000003  0.39855  1.0000
  C   C117      1.0  0.5127  0.44892  0.22286  1.0000
  C   C118      1.0  0.5867  0.8987699999999997  0.00175  1.0000
  C   C119      1.0  0.9313900000000003  0.07893  0.26392  1.0000
  C   C120      1.0  0.75313  0.61605  0.19194  1.0000
  C   C121      1.0  0.66169  0.13173  0.00415  1.0000
  C   C122      1.0  0.11893000000000008  0.5704600000000001  0.6014500000000003  1.0000
  C   C123      1.0  0.3665000000000001  0.63197  0.75968  1.0000
  C   C124      1.0  0.13503000000000007  0.872  0.60275  1.0000
  C   C125      1.0  0.49446000000000007  0.7446199999999997  0.6645900000000001  1.0000
  C   C126      1.0  0.7907200000000001  0.06846  0.3562100000000001  1.0000
  C   C127      1.0  0.25600999999999996  0.4673599999999998  0.47145  1.0000
  C   C128      1.0  0.17135000000000014  0.4700500000000002  0.6316600000000002  1.0000
  C   C129      1.0  0.9862  0.70496  0.16146000000000002  1.0000
  C   C130      1.0  0.44906999999999997  0.4907399999999999  0.21299  1.0000
  C   C131      1.0  0.90903  0.89518  0.69216  1.0000
  C   C132      1.0  0.6528599999999999  0.81134  0.953  1.0000
  C   C133      1.0  0.8157200000000002  0.46587  0.39104000000000005  1.0000
  C   C134      1.0  0.027870000000000106  0.35556  0.88412  1.0000
  C   C135      1.0  0.87439  0.28084  0.40219  1.0000
  C   C136      1.0  0.5509300000000001  0.5092600000000002  0.7870100000000001  1.0000
  C   C137      1.0  0.7439900000000002  0.53265  0.52855  1.0000
  C   C138      1.0  0.10862999999999992  0.7933799999999998  0.73333  1.0000
  C   C139      1.0  0.2581400000000001  0.054010000000000155  0.8689600000000002  1.0000
  C   C140      1.0  0.34714  0.18866000000000002  0.047000000000000014  1.0000
  C   C141      1.0  0.63826  0.86592  0.66323  1.0000
  C   C142      1.0  0.06870000000000007  0.73607  0.19761  1.0000
  C   C143      1.0  0.20929  0.93155  0.64379  1.0000
  C   C144      1.0  0.31979  0.8109199999999999  0.89783  1.0000
  C   C145      1.0  0.09097999999999998  0.10481999999999994  0.30784  1.0000
  C   C146      1.0  0.6042400000000002  0.50309  0.25059  1.0000
  C   C147      1.0  0.11657000000000006  0.7911  0.45019  1.0000
  C   C148      1.0  0.28362  0.10815999999999998  0.048790000000000014  1.0000
  C   C149      1.0  0.63128  0.37143  0.10870000000000003  1.0000
  C   C150      1.0  0.12057  0.64012  0.14404  1.0000
  C   C151      1.0  0.4133  0.10123000000000007  0.99825  1.0000
  C   C152      1.0  0.018089999999999933  0.7337799999999998  0.70495  1.0000
  C   C153      1.0  0.97436  0.45175999999999994  0.94294  1.0000
  C   C154      1.0  0.73907  0.20917  0.26611  1.0000
  C   C155      1.0  0.79461  0.40927  0.13298  1.0000
  C   C156      1.0  0.8903100000000003  0.62545  0.52089  1.0000
  C   C157      1.0  0.8440900000000001  0.31983000000000006  0.24014000000000002  1.0000
  C   C158      1.0  0.013799999999999986  0.29505  0.83854  1.0000
  C   C159      1.0  0.8286599999999998  0.5299499999999998  0.36834000000000006  1.0000
  C   C160      1.0  0.8477199999999999  0.8646699999999998  0.32133  1.0000
  C   C161      1.0  0.8209500000000001  0.06022999999999996  0.55669  1.0000
  C   C162      1.0  0.06861000000000003  0.9210699999999999  0.7360800000000002  1.0000
  C   C163      1.0  0.8548000000000003  0.9566099999999998  0.34757  1.0000
  C   C164      1.0  0.8504  0.2333  0.47123  1.0000
  C   C165      1.0  0.3485200000000001  0.020269999999999993  0.99907  1.0000
  C   C166      1.0  0.53874  0.90045  0.71521  1.0000
  C   C167      1.0  0.16942  0.4507  0.17804  1.0000
  C   C168      1.0  0.68157  0.92444  0.15927000000000002  1.0000
  C   C169      1.0  0.26299000000000006  0.4773100000000001  0.83753  1.0000
  C   C170      1.0  0.2598500000000002  0.63236  0.9905000000000002  1.0000
  C   C171      1.0  0.78432  0.98245  0.33233  1.0000
  C   C172      1.0  0.96029  0.46005000000000007  0.38298000000000004  1.0000
  C   C173      1.0  0.51834  0.64579  0.79651  1.0000
  C   C174      1.0  0.38397  0.038730000000000014  0.83839  1.0000
  C   C175      1.0  0.24687000000000017  0.3839500000000002  0.8080600000000002  1.0000
  C   C176      1.0  0.02563999999999995  0.5482499999999998  0.05706  1.0000
  C   C177      1.0  0.15229  0.13534  0.67867  1.0000
  C   C178      1.0  0.1276400000000001  0.84563  0.4218200000000001  1.0000
  C   C179      1.0  0.97911  0.86123  0.70715  1.0000
  C   C180      1.0  0.86497  0.12801  0.39725  1.0000
  C   C181      1.0  0.7045900000000002  0.34564  0.10668000000000001  1.0000
  C   C182      1.0  0.44501  0.16361000000000003  0.31903  1.0000
  C   C183      1.0  0.31843  0.07556  0.84073  1.0000
  C   C184      1.0  0.36872000000000005  0.62857  0.8913000000000001  1.0000
  C   C185      1.0  0.5966899999999999  0.21933999999999998  0.28244  1.0000
  C   C186      1.0  0.06420000000000001  0.89767  0.5878100000000002  1.0000
  C   C187      1.0  0.12561000000000008  0.71916  0.59781  1.0000
  C   C188      1.0  0.6984899999999999  0.3264399999999999  0.24862000000000004  1.0000
  C   C189      1.0  0.26107999999999987  0.5836999999999998  0.021780000000000008  1.0000
  C   C190      1.0  0.020889999999999995  0.13877  0.29285  1.0000
  C   C191      1.0  0.09244999999999998  0.4400999999999999  0.64739  1.0000
  C   C192      1.0  0.2609300000000001  0.79083  0.7338900000000003  1.0000
  C   C193      1.0  0.6750100000000002  0.22149  0.027260000000000006  1.0000
  C   C194      1.0  0.68021  0.18908  0.10217  1.0000
  C   C195      1.0  0.10969999999999999  0.37455  0.47911  1.0000
  C   C196      1.0  0.7952100000000001  0.70216  0.55463  1.0000
  C   C197      1.0  0.39164  0.76148  0.049130000000000014  1.0000
  C   C198      1.0  0.96078  0.38769  0.89222  1.0000
  C   C199      1.0  0.7401500000000002  0.36765  0.009510000000000003  1.0000
  C   C200      1.0  0.2640700000000002  0.9975800000000001  0.8948600000000001  1.0000
  C   C201      1.0  0.2954200000000001  0.6543600000000002  0.8933300000000002  1.0000
  C   C202      1.0  0.54119  0.3140399999999999  0.21298  1.0000
  C   C203      1.0  0.61172  0.02  0.13652  1.0000
  C   C204      1.0  0.1358099999999999  0.7038999999999997  0.18874  1.0000
  C   C205      1.0  0.7389200000000002  0.4162999999999999  0.97822  1.0000
  C   C206      1.0  0.50554  0.2553799999999999  0.33541  1.0000
  C   C207      1.0  0.33543  0.53717  0.74191  1.0000
  C   C208      1.0  0.07418999999999998  0.64604  0.77671  1.0000
  C   C209      1.0  0.09621999999999999  0.45181  0.4997  1.0000
  C   C210      1.0  0.2048  0.29784999999999995  0.4453700000000001  1.0000
  C   C211      1.0  0.026910000000000052  0.32550000000000007  0.17539000000000005  1.0000
  C   C212      1.0  0.71638  0.89184  0.95121  1.0000
  C   C213      1.0  0.15699999999999997  0.82858  0.50084  1.0000
  C   C214      1.0  0.4873000000000001  0.55108  0.77714  1.0000
  C   C215      1.0  0.24175  0.5447899999999998  0.4913000000000001  1.0000
  C   C216      1.0  0.66677  0.09944  0.07877  1.0000
  C   C217      1.0  0.35275  0.54085  0.86391  1.0000
  C   C218      1.0  0.93178  0.01801999999999999  0.38663  1.0000
  C   C219      1.0  0.9075599999999999  0.5598999999999997  0.35261  1.0000
  C   C220      1.0  0.02615999999999999  0.47485  0.63933  1.0000
  O   O1        1.0  0.7031  0.9413399999999997  0.6907  1.0000
  O   O2        1.0  0.23237  0.1961  0.70522  1.0000
  O   O3        1.0  0.31790000000000007  0.36515000000000003  0.80929  1.0000
  O   O4        1.0  0.63722  0.81378  0.62322  1.0000
  O   O5        1.0  0.1499200000000001  0.35304000000000013  0.6844000000000002  1.0000
  O   O6        1.0  0.3677  0.44094  0.18328000000000003  1.0000
  O   O7        1.0  0.027930000000000003  0.81327  0.26535  1.0000
  O   O8        1.0  0.98291  0.56681  0.024480000000000005  1.0000
  O   O9        1.0  0.36278  0.18622  0.37678  1.0000
  O   O10       1.0  0.00786000000000008  0.3387800000000001  0.6844200000000003  1.0000
  O   O11       1.0  0.059360000000000045  0.49188  0.056480000000000016  1.0000
  O   O12       1.0  0.07952999999999999  0.14901  0.67302  1.0000
  O   O13       1.0  0.14144  0.22120999999999996  0.43654  1.0000
  O   O14       1.0  0.7174799999999999  0.6940999999999998  0.56355  1.0000
  O   O15       1.0  0.5902800000000001  0.6485500000000001  0.9184300000000002  1.0000
  O   O16       1.0  0.76422  0.84907  0.19054  1.0000
  O   O17       1.0  0.07114  0.02026000000000001  0.28863  1.0000
  O   O18       1.0  0.23578999999999997  0.15092999999999993  0.80946  1.0000
  O   O19       1.0  0.82998  0.047929999999999966  0.63358  1.0000
  O   O20       1.0  0.6300800000000002  0.82901  0.20651000000000005  1.0000
  O   O21       1.0  0.8500899999999999  0.6469599999999999  0.31560000000000005  1.0000
  O   O22       1.0  0.73457  0.72961  0.9189  1.0000
  O   O23       1.0  0.017089999999999966  0.43318999999999996  0.97552  1.0000
  O   O24       1.0  0.16677  0.16285  0.3384  1.0000
  O   O25       1.0  0.8332300000000001  0.83715  0.6616  1.0000
  O   O26       1.0  0.7706100000000002  0.91756  0.56818  1.0000
  O   O27       1.0  0.85856  0.77879  0.56346  1.0000
  O   O28       1.0  0.47069  0.57546  0.23389  1.0000
  O   O29       1.0  0.8343900000000001  0.6742700000000001  0.21582000000000004  1.0000
  O   O30       1.0  0.5293100000000002  0.42454000000000014  0.7661100000000002  1.0000
  O   O31       1.0  0.2969000000000001  0.05866000000000001  0.3093  1.0000
  O   O32       1.0  0.94064  0.50812  0.94352  1.0000
  O   O33       1.0  0.36992  0.17098999999999998  0.7934900000000001  1.0000
  O   O34       1.0  0.4097299999999999  0.3514499999999999  0.08157000000000002  1.0000
  O   O35       1.0  0.92047  0.85099  0.32698  1.0000
  O   O36       1.0  0.1656100000000001  0.32573  0.7841800000000001  1.0000
  O   O37       1.0  0.9288600000000005  0.97974  0.71137  1.0000
  O   O38       1.0  0.83215  0.12324999999999998  0.74297  1.0000
  O   O39       1.0  0.97207  0.18673000000000003  0.73466  1.0000
  O   O40       1.0  0.36632  0.62241  0.14654  1.0000
  O   O41       1.0  0.6323000000000001  0.5590599999999999  0.8167300000000002  1.0000
  O   O42       1.0  0.9921400000000001  0.6612199999999998  0.31558  1.0000
  O   O43       1.0  0.17001999999999998  0.95208  0.36642  1.0000
  O   O44       1.0  0.6821  0.63485  0.19071000000000005  1.0000
  O   O45       1.0  0.26543  0.27039  0.08110000000000002  1.0000
  O   O46       1.0  0.6336800000000001  0.3775900000000001  0.8534600000000002  1.0000
  O   O47       1.0  0.22939000000000004  0.08244000000000001  0.43182  1.0000
  O   O48       1.0  0.29177000000000003  0.4876999999999999  0.08389  1.0000
  O   O49       1.0  0.17897000000000005  0.39639  0.14286  1.0000
  O   O50       1.0  0.76763  0.8039  0.29478000000000004  1.0000
  O   O51       1.0  0.7082299999999999  0.5122999999999998  0.9161100000000001  1.0000
  O   O52       1.0  0.7705900000000001  0.46798  0.79567  1.0000
  O   O53       1.0  0.16785  0.87675  0.25703  1.0000
  O   O54       1.0  0.28253000000000006  0.30591000000000007  0.43645000000000006  1.0000
  O   O55       1.0  0.22941  0.53202  0.20433  1.0000
  O   O56       1.0  0.82103  0.60361  0.85714  1.0000
