data_image0
_chemical_formula_structural       Fe12H120C216O54
_chemical_formula_sum              "Fe12 H120 C216 O54"
_cell_length_a       20.98871
_cell_length_b       23.2483
_cell_length_c       23.26397
_cell_angle_alpha    111.35771
_cell_angle_beta     107.53787
_cell_angle_gamma    107.53045

_symmetry_space_group_name_H-M    'P 1'
_symmetry_Int_Tables_number       1

loop_
  _symmetry_equiv_pos_as_xyz
  'x,y,z'

loop_
  _atom_site_type_symbol
  _atom_site_label
  _atom_site_symmetry_multiplicity
  _atom_site_fract_x
  _atom_site_fract_y
  _atom_site_fract_z
  _atom_site_occupancy
  Fe  Fe1       1.0  0.040219999999999936  0.63104  0.12181999999999998  1.0000
  Fe  Fe2       1.0  0.02064  0.46545  0.04284  1.0000
  Fe  Fe3       1.0  0.41008999999999995  0.49111999999999995  0.36897  1.0000
  Fe  Fe4       1.0  0.55505  0.57731  0.53493  1.0000
  Fe  Fe5       1.0  0.9185  0.87741  0.50878  1.0000
  Fe  Fe6       1.0  0.97788  0.9575500000000001  0.42279999999999995  1.0000
  Fe  Fe7       1.0  0.9597799999999999  0.36896000000000007  0.87819  1.0000
  Fe  Fe8       1.0  0.9793599999999999  0.53455  0.95717  1.0000
  Fe  Fe9       1.0  0.58991  0.50888  0.6310299999999999  1.0000
  Fe  Fe10      1.0  0.44495  0.42268  0.46507999999999994  1.0000
  Fe  Fe11      1.0  0.0815  0.12259  0.49123  1.0000
  Fe  Fe12      1.0  0.02211999999999996  0.042449999999999995  0.5772  1.0000
  H   H1        1.0  0.98673  0.39566  0.36442  1.0000
  H   H2        1.0  0.87433  0.40659000000000006  0.49138  1.0000
  H   H3        1.0  0.8834800000000003  0.53162  0.39329  1.0000
  H   H4        1.0  0.9791999999999997  0.5928  0.3783  1.0000
  H   H5        1.0  0.006690000000000023  0.6205600000000001  0.29216  1.0000
  H   H6        1.0  0.9798299999999999  0.41513  0.17861999999999997  1.0000
  H   H7        1.0  0.94676  0.38453999999999994  0.26134  1.0000
  H   H8        1.0  0.05807000000000003  0.37583000000000005  0.44767  1.0000
  H   H9        1.0  0.08599999999999997  0.29264  0.4808799999999999  1.0000
  H   H10       1.0  0.87104  0.21285999999999997  0.47647999999999996  1.0000
  H   H11       1.0  0.8406  0.29413  0.44063  1.0000
  H   H12       1.0  0.8826399999999999  0.49642  0.57192  1.0000
  H   H13       1.0  0.79852  0.52626  0.61931  1.0000
  H   H14       1.0  0.68324  0.53837  0.43988  1.0000
  H   H15       1.0  0.76472  0.50489  0.39029  1.0000
  H   H16       1.0  0.08948999999999992  0.8820399999999998  0.8956499999999998  1.0000
  H   H17       1.0  0.11759000000000003  0.81044  0.9166599999999999  1.0000
  H   H18       1.0  0.07318999999999999  0.70309  0.92488  1.0000
  H   H19       1.0  0.09395999999999999  0.8224  0.12617  1.0000
  H   H20       1.0  0.13208  0.92898  0.11646  1.0000
  H   H21       1.0  0.5913899999999999  0.9690099999999999  0.6046299999999999  1.0000
  H   H22       1.0  0.4682600000000001  0.08533000000000003  0.59371  1.0000
  H   H23       1.0  0.35203  0.86203  0.46859  1.0000
  H   H24       1.0  0.3864  0.78598  0.40752  1.0000
  H   H25       1.0  0.38597  0.6718900000000002  0.37927  1.0000
  H   H26       1.0  0.56431  0.76328  0.58484  1.0000
  H   H27       1.0  0.56208  0.8768699999999999  0.61576  1.0000
  H   H28       1.0  0.6817800000000002  0.07149999999999998  0.62379  1.0000
  H   H29       1.0  0.79369  0.18781000000000006  0.70721  1.0000
  H   H30       1.0  0.65919  0.26409999999999995  0.78724  1.0000
  H   H31       1.0  0.5468  0.14681  0.70564  1.0000
  H   H32       1.0  0.38642  0.07598999999999997  0.50381  1.0000
  H   H33       1.0  0.272  0.09314000000000004  0.47363  1.0000
  H   H34       1.0  0.1449900000000001  0.9014800000000001  0.46158  1.0000
  H   H35       1.0  0.26037  0.88581  0.4955399999999999  1.0000
  H   H36       1.0  0.20763  0.013599999999999998  0.11795999999999998  1.0000
  H   H37       1.0  0.30719  0.10647  0.18966  1.0000
  H   H38       1.0  0.3705299999999999  0.22254999999999997  0.29671999999999993  1.0000
  H   H39       1.0  0.27176  0.30396  0.17671  1.0000
  H   H40       1.0  0.20303  0.18722  0.0706  1.0000
  H   H41       1.0  0.62293  0.6361  0.03131  1.0000
  H   H42       1.0  0.3832599999999999  0.5086899999999999  0.9151499999999999  1.0000
  H   H43       1.0  0.49094999999999994  0.60688  0.13835  1.0000
  H   H44       1.0  0.60057  0.62147  0.21374  1.0000
  H   H45       1.0  0.71445  0.70774  0.32816  1.0000
  H   H46       1.0  0.8017100000000001  0.8219900000000001  0.23718  1.0000
  H   H47       1.0  0.68565  0.73893  0.12324  1.0000
  H   H48       1.0  0.6106  0.5523699999999998  0.92823  1.0000
  H   H49       1.0  0.60544  0.5192100000000001  0.81188  1.0000
  H   H50       1.0  0.39476999999999995  0.52338  0.7363  1.0000
  H   H51       1.0  0.40013999999999994  0.55929  0.8534099999999999  1.0000
  H   H52       1.0  0.31102999999999986  0.42831  0.9246799999999998  1.0000
  H   H53       1.0  0.17937999999999998  0.38078999999999996  0.9072  1.0000
  H   H54       1.0  0.24400999999999998  0.56046  0.09872  1.0000
  H   H55       1.0  0.37527  0.61011  0.11481  1.0000
  H   H56       1.0  0.19384  0.10447  0.98653  1.0000
  H   H57       1.0  0.20089999999999994  0.08352999999999997  0.89357  1.0000
  H   H58       1.0  0.14821999999999994  0.07425999999999999  0.77759  1.0000
  H   H59       1.0  0.968  0.87258  0.69604  1.0000
  H   H60       1.0  0.015770000000000048  0.8835100000000001  0.81283  1.0000
  H   H61       1.0  0.01326999999999997  0.60434  0.63559  1.0000
  H   H62       1.0  0.12567  0.59341  0.50863  1.0000
  H   H63       1.0  0.11651999999999997  0.46838  0.60672  1.0000
  H   H64       1.0  0.020799999999999978  0.40719999999999995  0.62171  1.0000
  H   H65       1.0  0.99331  0.37944  0.70784  1.0000
  H   H66       1.0  0.020170000000000042  0.58487  0.82139  1.0000
  H   H67       1.0  0.05323999999999998  0.61546  0.73866  1.0000
  H   H68       1.0  0.9419299999999999  0.62417  0.55234  1.0000
  H   H69       1.0  0.914  0.70736  0.51912  1.0000
  H   H70       1.0  0.12896000000000007  0.7871400000000001  0.52352  1.0000
  H   H71       1.0  0.1594  0.70587  0.55937  1.0000
  H   H72       1.0  0.11735999999999995  0.5035699999999999  0.42808999999999997  1.0000
  H   H73       1.0  0.20148  0.47374  0.3806899999999999  1.0000
  H   H74       1.0  0.31676  0.46163  0.56012  1.0000
  H   H75       1.0  0.23527999999999993  0.49510999999999994  0.60971  1.0000
  H   H76       1.0  0.91051  0.11796000000000001  0.10435  1.0000
  H   H77       1.0  0.88241  0.18955  0.08335  1.0000
  H   H78       1.0  0.92681  0.29691  0.07511999999999999  1.0000
  H   H79       1.0  0.9060399999999998  0.1776  0.87384  1.0000
  H   H80       1.0  0.86792  0.07100999999999999  0.88354  1.0000
  H   H81       1.0  0.40860999999999986  0.03098999999999997  0.39537999999999995  1.0000
  H   H82       1.0  0.5317399999999999  0.91467  0.40629  1.0000
  H   H83       1.0  0.6479699999999999  0.13797  0.53141  1.0000
  H   H84       1.0  0.6136  0.21402000000000002  0.59248  1.0000
  H   H85       1.0  0.61403  0.32811  0.62074  1.0000
  H   H86       1.0  0.43568999999999997  0.23672  0.41516  1.0000
  H   H87       1.0  0.4379199999999999  0.12313  0.38424  1.0000
  H   H88       1.0  0.31822  0.9285  0.37620999999999993  1.0000
  H   H89       1.0  0.20631000000000002  0.8121900000000001  0.29279  1.0000
  H   H90       1.0  0.34081000000000006  0.7359000000000001  0.21276  1.0000
  H   H91       1.0  0.4532  0.85319  0.29436  1.0000
  H   H92       1.0  0.6135800000000001  0.9240100000000001  0.49619  1.0000
  H   H93       1.0  0.728  0.9068600000000001  0.52638  1.0000
  H   H94       1.0  0.8550099999999999  0.09852000000000002  0.53842  1.0000
  H   H95       1.0  0.73963  0.11418999999999996  0.50446  1.0000
  H   H96       1.0  0.7923699999999999  0.9863999999999999  0.8820399999999999  1.0000
  H   H97       1.0  0.6928099999999998  0.89353  0.81034  1.0000
  H   H98       1.0  0.62947  0.77745  0.70328  1.0000
  H   H99       1.0  0.72824  0.69603  0.8233  1.0000
  H   H100      1.0  0.7969700000000001  0.8127800000000001  0.92941  1.0000
  H   H101      1.0  0.37707  0.36390000000000006  0.9687  1.0000
  H   H102      1.0  0.61674  0.49131  0.08486  1.0000
  H   H103      1.0  0.50905  0.39311  0.86166  1.0000
  H   H104      1.0  0.39943  0.37853  0.78627  1.0000
  H   H105      1.0  0.28555  0.29226  0.67184  1.0000
  H   H106      1.0  0.19828999999999988  0.17800999999999995  0.76282  1.0000
  H   H107      1.0  0.31434999999999985  0.2610699999999999  0.8767699999999999  1.0000
  H   H108      1.0  0.38939999999999997  0.44763  0.07177999999999998  1.0000
  H   H109      1.0  0.39455999999999997  0.48079000000000005  0.18811999999999998  1.0000
  H   H110      1.0  0.60523  0.47662000000000004  0.26371  1.0000
  H   H111      1.0  0.59986  0.44071  0.14659  1.0000
  H   H112      1.0  0.68897  0.57169  0.07533  1.0000
  H   H113      1.0  0.82062  0.61921  0.0928  1.0000
  H   H114      1.0  0.75599  0.43954000000000004  0.90128  1.0000
  H   H115      1.0  0.6247299999999999  0.3898899999999999  0.8851899999999999  1.0000
  H   H116      1.0  0.8061599999999999  0.8955300000000002  0.01347  1.0000
  H   H117      1.0  0.7991  0.91647  0.10644  1.0000
  H   H118      1.0  0.8517799999999999  0.9257399999999999  0.22242  1.0000
  H   H119      1.0  0.03201  0.12742  0.30396  1.0000
  H   H120      1.0  0.9842299999999999  0.11649  0.18717  1.0000
  C   C1        1.0  0.9377300000000002  0.46607000000000004  0.37321  1.0000
  C   C2        1.0  0.95511  0.41706000000000004  0.387  1.0000
  C   C3        1.0  0.9321499999999999  0.39477  0.42912  1.0000
  C   C4        1.0  0.8921999999999999  0.42333  0.45846  1.0000
  C   C5        1.0  0.8740099999999998  0.47234  0.44603999999999994  1.0000
  C   C6        1.0  0.89714  0.49350999999999995  0.40324  1.0000
  C   C7        1.0  0.9595399999999998  0.48595  0.32563  1.0000
  C   C8        1.0  0.97735  0.5529299999999999  0.33385  1.0000
  C   C9        1.0  0.99368  0.56914  0.28622  1.0000
  C   C10       1.0  0.9940499999999999  0.51922  0.22971999999999998  1.0000
  C   C11       1.0  0.97899  0.45319000000000004  0.22236  1.0000
  C   C12       1.0  0.96146  0.43682  0.26932  1.0000
  C   C13       1.0  0.00810999999999998  0.53522  0.17714  1.0000
  C   C14       1.0  0.94815  0.34247  0.44369  1.0000
  C   C15       1.0  0.016399999999999942  0.33987999999999996  0.45308999999999994  1.0000
  C   C16       1.0  0.03259999999999994  0.2937  0.47224999999999995  1.0000
  C   C17       1.0  0.98079  0.24896  0.48234  1.0000
  C   C18       1.0  0.9113799999999999  0.24935  0.47039  1.0000
  C   C19       1.0  0.89518  0.2952  0.45103  1.0000
  C   C20       1.0  0.99726  0.20067  0.50556  1.0000
  C   C21       1.0  0.82924  0.49776000000000004  0.47712999999999994  1.0000
  C   C22       1.0  0.8386700000000002  0.50487  0.5425  1.0000
  C   C23       1.0  0.79235  0.52226  0.56968  1.0000
  C   C24       1.0  0.73644  0.53468  0.5328  1.0000
  C   C25       1.0  0.72797  0.53027  0.46883999999999987  1.0000
  C   C26       1.0  0.77387  0.5116  0.4414  1.0000
  C   C27       1.0  0.68347  0.54757  0.55951  1.0000
  C   C28       1.0  0.12258000000000008  0.9338100000000001  0.94133  1.0000
  C   C29       1.0  0.14688  0.94039  0.007669999999999999  1.0000
  C   C30       1.0  0.12647999999999995  0.87764  0.015079999999999998  1.0000
  C   C31       1.0  0.11050999999999993  0.81316  0.96183  1.0000
  C   C32       1.0  0.0867  0.75307  0.96645  1.0000
  C   C33       1.0  0.0801  0.75627  0.025639999999999993  1.0000
  C   C34       1.0  0.09855999999999998  0.82058  0.08028  1.0000
  C   C35       1.0  0.12073999999999997  0.8801900000000001  0.0747  1.0000
  C   C36       1.0  0.053580000000000044  0.69247  0.030989999999999997  1.0000
  C   C37       1.0  0.47184000000000004  0.9074600000000002  0.53421  1.0000
  C   C38       1.0  0.53836  0.97024  0.5832  1.0000
  C   C39       1.0  0.53765  0.03466999999999997  0.60543  1.0000
  C   C40       1.0  0.46918  0.03555000000000003  0.57689  1.0000
  C   C41       1.0  0.4019  0.97413  0.52791  1.0000
  C   C42       1.0  0.40383  0.91012  0.50676  1.0000
  C   C43       1.0  0.4736  0.8399  0.51428  1.0000
  C   C44       1.0  0.4244  0.7811800000000001  0.44723  1.0000
  C   C45       1.0  0.42443999999999993  0.7172099999999999  0.4308199999999999  1.0000
  C   C46       1.0  0.47468  0.7105299999999999  0.48079  1.0000
  C   C47       1.0  0.52558  0.76919  0.54687  1.0000
  C   C48       1.0  0.5245600000000001  0.8326200000000001  0.56341  1.0000
  C   C49       1.0  0.47297999999999996  0.64204  0.46523  1.0000
  C   C50       1.0  0.606  0.10149  0.65764  1.0000
  C   C51       1.0  0.6766699999999999  0.11317000000000002  0.66001  1.0000
  C   C52       1.0  0.7392999999999998  0.17839  0.70622  1.0000
  C   C53       1.0  0.7324799999999999  0.23335  0.75107  1.0000
  C   C54       1.0  0.66272  0.22133999999999995  0.7507  1.0000
  C   C55       1.0  0.60044  0.15619999999999998  0.70484  1.0000
  C   C56       1.0  0.7975899999999998  0.3046999999999999  0.7995799999999998  1.0000
  C   C57       1.0  0.3317  0.97978  0.50248  1.0000
  C   C58       1.0  0.33398  0.03803000000000001  0.49528  1.0000
  C   C59       1.0  0.27013  0.04760999999999998  0.4777699999999999  1.0000
  C   C60       1.0  0.20183000000000004  0.9982000000000001  0.46532  1.0000
  C   C61       1.0  0.19784  0.93868  0.46982  1.0000
  C   C62       1.0  0.26253999999999994  0.9300900000000001  0.48862999999999995  1.0000
  C   C63       1.0  0.13601  0.012080000000000011  0.45224  1.0000
  C   C64       1.0  0.18886999999999998  0.007580000000000004  0.06625  1.0000
  C   C65       1.0  0.20648  0.06735  0.05965999999999999  1.0000
  C   C66       1.0  0.24885  0.13757  0.12231999999999998  1.0000
  C   C67       1.0  0.29744  0.14892999999999998  0.18680999999999995  1.0000
  C   C68       1.0  0.33382  0.21382  0.24668  1.0000
  C   C69       1.0  0.32394999999999996  0.26976  0.2433  1.0000
  C   C70       1.0  0.27816  0.25999  0.17892  1.0000
  C   C71       1.0  0.24059  0.19459  0.11953  1.0000
  C   C72       1.0  0.36117  0.33879  0.30722  1.0000
  C   C73       1.0  0.565  0.62697  0.09271  1.0000
  C   C74       1.0  0.56863  0.61334  0.02999  1.0000
  C   C75       1.0  0.5034  0.57105  0.96561  1.0000
  C   C76       1.0  0.4340899999999999  0.54168  0.96486  1.0000
  C   C77       1.0  0.42838  0.55412  0.02628  1.0000
  C   C78       1.0  0.49443  0.59689  0.09020999999999998  1.0000
  C   C79       1.0  0.63431  0.67452  0.16021  1.0000
  C   C80       1.0  0.6435399999999998  0.66607  0.21877  1.0000
  C   C81       1.0  0.7074499999999999  0.7137300000000002  0.28275  1.0000
  C   C82       1.0  0.76441  0.77041  0.28953  1.0000
  C   C83       1.0  0.75696  0.7779800000000001  0.23104  1.0000
  C   C84       1.0  0.6925399999999999  0.73099  0.16755999999999996  1.0000
  C   C85       1.0  0.83092  0.8231800000000001  0.35822  1.0000
  C   C86       1.0  0.5047299999999999  0.55639  0.8987399999999999  1.0000
  C   C87       1.0  0.5635899999999999  0.5469999999999999  0.8868099999999999  1.0000
  C   C88       1.0  0.5606899999999999  0.5279  0.82153  1.0000
  C   C89       1.0  0.49877  0.51781  0.76671  1.0000
  C   C90       1.0  0.44126  0.52967  0.77897  1.0000
  C   C91       1.0  0.44438  0.549  0.84413  1.0000
  C   C92       1.0  0.49188999999999994  0.49455  0.69518  1.0000
  C   C93       1.0  0.35258  0.52309  0.02079  1.0000
  C   C94       1.0  0.29651999999999995  0.4576499999999999  0.9625699999999999  1.0000
  C   C95       1.0  0.22302999999999998  0.4304299999999999  0.9528599999999999  1.0000
  C   C96       1.0  0.20415  0.46736  0.00221  1.0000
  C   C97       1.0  0.25977999999999996  0.53144  0.06173  1.0000
  C   C98       1.0  0.33315  0.55891  0.07046  1.0000
  C   C99       1.0  0.12442000000000003  0.44062  0.98836  1.0000
  C   C100      1.0  0.18127000000000001  0.058750000000000045  0.99252  1.0000
  C   C101      1.0  0.13917999999999997  0.99239  0.9327199999999999  1.0000
  C   C102      1.0  0.11137000000000004  0.9849400000000001  0.86256  1.0000
  C   C103      1.0  0.14862999999999993  0.03808999999999993  0.8511899999999999  1.0000
  C   C104      1.0  0.12009999999999993  0.032940000000000004  0.7862499999999999  1.0000
  C   C105      1.0  0.05433000000000002  0.9735  0.73023  1.0000
  C   C106      1.0  0.01827999999999998  0.91892  0.74006  1.0000
  C   C107      1.0  0.046059999999999955  0.9250700000000001  0.80549  1.0000
  C   C108      1.0  0.022580000000000044  0.96809  0.66104  1.0000
  C   C109      1.0  0.06227  0.53392  0.62679  1.0000
  C   C110      1.0  0.04488999999999999  0.58294  0.61301  1.0000
  C   C111      1.0  0.06785000000000001  0.60523  0.57088  1.0000
  C   C112      1.0  0.10780000000000003  0.57667  0.54155  1.0000
  C   C113      1.0  0.12599  0.52766  0.55396  1.0000
  C   C114      1.0  0.10286000000000005  0.50649  0.59676  1.0000
  C   C115      1.0  0.040459999999999996  0.51405  0.67437  1.0000
  C   C116      1.0  0.02264999999999999  0.44706  0.66615  1.0000
  C   C117      1.0  0.006319999999999996  0.43085000000000007  0.71378  1.0000
  C   C118      1.0  0.005949999999999946  0.4807799999999999  0.7702899999999999  1.0000
  C   C119      1.0  0.021009999999999984  0.54681  0.77764  1.0000
  C   C120      1.0  0.03853999999999995  0.56318  0.73069  1.0000
  C   C121      1.0  0.99189  0.46477999999999997  0.8228599999999999  1.0000
  C   C122      1.0  0.051849999999999986  0.65752  0.55632  1.0000
  C   C123      1.0  0.9836  0.6601200000000002  0.54691  1.0000
  C   C124      1.0  0.9673999999999999  0.7063000000000001  0.5277499999999999  1.0000
  C   C125      1.0  0.01921000000000008  0.7510400000000002  0.51766  1.0000
  C   C126      1.0  0.08861999999999995  0.75065  0.52961  1.0000
  C   C127      1.0  0.10482  0.70479  0.54897  1.0000
  C   C128      1.0  0.0027399999999999417  0.79933  0.49443999999999994  1.0000
  C   C129      1.0  0.17076  0.50224  0.52287  1.0000
  C   C130      1.0  0.16133  0.49513  0.4575  1.0000
  C   C131      1.0  0.20765  0.47774  0.4303199999999999  1.0000
  C   C132      1.0  0.26356  0.46532  0.4672  1.0000
  C   C133      1.0  0.27203  0.46973  0.53117  1.0000
  C   C134      1.0  0.22613  0.4884  0.5586  1.0000
  C   C135      1.0  0.31653  0.45243  0.44049  1.0000
  C   C136      1.0  0.87742  0.06619  0.058679999999999996  1.0000
  C   C137      1.0  0.85312  0.05960999999999996  0.9923399999999999  1.0000
  C   C138      1.0  0.8735199999999999  0.12235999999999997  0.98493  1.0000
  C   C139      1.0  0.88949  0.18684000000000003  0.03818  1.0000
  C   C140      1.0  0.91331  0.24693  0.033549999999999996  1.0000
  C   C141      1.0  0.9199  0.2437199999999999  0.97436  1.0000
  C   C142      1.0  0.90144  0.17942000000000002  0.91972  1.0000
  C   C143      1.0  0.87926  0.11981000000000006  0.92531  1.0000
  C   C144      1.0  0.9464199999999998  0.30753  0.96902  1.0000
  C   C145      1.0  0.52816  0.09254000000000001  0.46579  1.0000
  C   C146      1.0  0.46163999999999994  0.029759999999999998  0.4168  1.0000
  C   C147      1.0  0.4623499999999999  0.9653299999999999  0.3945699999999999  1.0000
  C   C148      1.0  0.5308199999999998  0.96445  0.42310999999999993  1.0000
  C   C149      1.0  0.5981  0.025869999999999962  0.47209999999999996  1.0000
  C   C150      1.0  0.59617  0.08988000000000004  0.49324  1.0000
  C   C151      1.0  0.5264  0.1601  0.48573  1.0000
  C   C152      1.0  0.5756  0.21881999999999996  0.55277  1.0000
  C   C153      1.0  0.57556  0.28279  0.56918  1.0000
  C   C154      1.0  0.5253299999999997  0.28946  0.51922  1.0000
  C   C155      1.0  0.47442  0.23081  0.4531299999999999  1.0000
  C   C156      1.0  0.47544999999999993  0.16737999999999997  0.4365899999999999  1.0000
  C   C157      1.0  0.5270199999999999  0.35795999999999994  0.5347699999999999  1.0000
  C   C158      1.0  0.394  0.8985  0.34237  1.0000
  C   C159      1.0  0.32333000000000006  0.8868300000000001  0.33999  1.0000
  C   C160      1.0  0.2607  0.82161  0.29378  1.0000
  C   C161      1.0  0.26752  0.76665  0.24893  1.0000
  C   C162      1.0  0.33728  0.77866  0.2493  1.0000
  C   C163      1.0  0.39955999999999997  0.8438000000000001  0.29517  1.0000
  C   C164      1.0  0.20240999999999998  0.69529  0.20042  1.0000
  C   C165      1.0  0.6683000000000001  0.020210000000000006  0.49753  1.0000
  C   C166      1.0  0.6660199999999998  0.9619699999999999  0.50472  1.0000
  C   C167      1.0  0.72987  0.9523800000000001  0.52224  1.0000
  C   C168      1.0  0.7981699999999999  0.001789999999999971  0.53469  1.0000
  C   C169      1.0  0.80216  0.06132000000000002  0.53018  1.0000
  C   C170      1.0  0.7374600000000001  0.06991000000000001  0.51137  1.0000
  C   C171      1.0  0.86399  0.98792  0.54776  1.0000
  C   C172      1.0  0.81113  0.99242  0.93375  1.0000
  C   C173      1.0  0.79352  0.93265  0.94034  1.0000
  C   C174      1.0  0.75115  0.86243  0.8776799999999999  1.0000
  C   C175      1.0  0.7025699999999999  0.8510699999999999  0.8131999999999999  1.0000
  C   C176      1.0  0.66618  0.78618  0.75332  1.0000
  C   C177      1.0  0.6760499999999999  0.73024  0.7566999999999999  1.0000
  C   C178      1.0  0.72184  0.74001  0.8210899999999999  1.0000
  C   C179      1.0  0.7594099999999998  0.8054099999999998  0.8804799999999999  1.0000
  C   C180      1.0  0.63883  0.66121  0.69279  1.0000
  C   C181      1.0  0.4349999999999999  0.3730199999999999  0.9072899999999999  1.0000
  C   C182      1.0  0.4313699999999998  0.38665999999999995  0.9700099999999999  1.0000
  C   C183      1.0  0.4965999999999999  0.42894999999999994  0.03438999999999999  1.0000
  C   C184      1.0  0.56591  0.45832  0.03513999999999999  1.0000
  C   C185      1.0  0.57162  0.44587999999999994  0.97372  1.0000
  C   C186      1.0  0.50557  0.4031099999999999  0.9097999999999999  1.0000
  C   C187      1.0  0.36569  0.32548  0.83979  1.0000
  C   C188      1.0  0.35646000000000005  0.3339300000000001  0.78124  1.0000
  C   C189      1.0  0.2925499999999999  0.28627  0.71725  1.0000
  C   C190      1.0  0.23559  0.22959000000000004  0.71047  1.0000
  C   C191      1.0  0.24304000000000003  0.22202000000000002  0.76897  1.0000
  C   C192      1.0  0.30746  0.26901  0.83245  1.0000
  C   C193      1.0  0.16908000000000004  0.17681999999999995  0.64178  1.0000
  C   C194      1.0  0.49527999999999994  0.4436  0.10126  1.0000
  C   C195      1.0  0.4364199999999999  0.453  0.11318999999999999  1.0000
  C   C196      1.0  0.43931  0.4721000000000001  0.17847  1.0000
  C   C197      1.0  0.50123  0.48219  0.23329  1.0000
  C   C198      1.0  0.55874  0.47033  0.22103  1.0000
  C   C199      1.0  0.5556200000000001  0.45100000000000007  0.15587  1.0000
  C   C200      1.0  0.50811  0.50545  0.30482  1.0000
  C   C201      1.0  0.6474199999999999  0.4769099999999999  0.9792199999999999  1.0000
  C   C202      1.0  0.70349  0.54235  0.03743  1.0000
  C   C203      1.0  0.7769799999999999  0.56957  0.047139999999999994  1.0000
  C   C204      1.0  0.7958599999999999  0.53264  0.99779  1.0000
  C   C205      1.0  0.74022  0.46854999999999997  0.9382699999999999  1.0000
  C   C206      1.0  0.6668499999999998  0.44109  0.9295399999999999  1.0000
  C   C207      1.0  0.8755799999999999  0.55938  0.01165  1.0000
  C   C208      1.0  0.81873  0.94125  0.007479999999999999  1.0000
  C   C209      1.0  0.8608199999999999  0.0076100000000000004  0.06728  1.0000
  C   C210      1.0  0.8886299999999999  0.015049999999999996  0.13744  1.0000
  C   C211      1.0  0.85137  0.96191  0.14881  1.0000
  C   C212      1.0  0.8799  0.96706  0.21374999999999997  1.0000
  C   C213      1.0  0.9456699999999999  0.0265  0.26977  1.0000
  C   C214      1.0  0.98172  0.08108  0.25995  1.0000
  C   C215      1.0  0.95394  0.07493  0.19451  1.0000
  C   C216      1.0  0.97743  0.0319  0.33897  1.0000
  O   O1        1.0  0.009450000000000073  0.59102  0.17927  1.0000
  O   O2        1.0  0.017129999999999975  0.49058  0.1318  1.0000
  O   O3        1.0  0.06165000000000003  0.20001  0.50911  1.0000
  O   O4        1.0  0.95486  0.16592000000000007  0.52053  1.0000
  O   O5        1.0  0.67632  0.52885  0.60305  1.0000
  O   O6        1.0  0.64689  0.57646  0.53525  1.0000
  O   O7        1.0  0.03137999999999995  0.6339799999999999  0.9776799999999999  1.0000
  O   O8        1.0  0.054729999999999945  0.70059  0.08868  1.0000
  O   O9        1.0  0.04166  0.5595  0.05234  1.0000
  O   O10       1.0  0.41872  0.58818  0.40941999999999995  1.0000
  O   O11       1.0  0.5266199999999999  0.64165  0.5102799999999998  1.0000
  O   O12       1.0  0.86264  0.30798  0.80109  1.0000
  O   O13       1.0  0.7901999999999999  0.3548700000000001  0.8337299999999999  1.0000
  O   O14       1.0  0.14767999999999995  0.07431  0.47031  1.0000
  O   O15       1.0  0.07055000000000007  0.9589800000000002  0.42385  1.0000
  O   O16       1.0  0.39673999999999987  0.34362  0.36566999999999994  1.0000
  O   O17       1.0  0.35494  0.3887  0.29924  1.0000
  O   O18       1.0  0.48317  0.49303  0.44044999999999995  1.0000
  O   O19       1.0  0.8295799999999999  0.82156  0.41191999999999995  1.0000
  O   O20       1.0  0.8857199999999997  0.8682  0.35901999999999995  1.0000
  O   O21       1.0  0.5529499999999999  0.4915499999999999  0.6911499999999999  1.0000
  O   O22       1.0  0.43431000000000003  0.47919000000000006  0.64542  1.0000
  O   O23       1.0  0.07373999999999996  0.3971100000000001  0.92597  1.0000
  O   O24       1.0  0.11206999999999999  0.46477000000000007  0.04146  1.0000
  O   O25       1.0  0.05296999999999997  0.02182999999999994  0.6561899999999999  1.0000
  O   O26       1.0  0.96686  0.90984  0.6111  1.0000
  O   O27       1.0  0.98933  0.9473600000000001  0.507  1.0000
  O   O28       1.0  0.9905599999999999  0.40898000000000007  0.82073  1.0000
  O   O29       1.0  0.9828699999999999  0.50942  0.8682  1.0000
  O   O30       1.0  0.93835  0.79999  0.4909  1.0000
  O   O31       1.0  0.04514  0.8340799999999999  0.47948  1.0000
  O   O32       1.0  0.32368  0.47115000000000007  0.39695  1.0000
  O   O33       1.0  0.3531099999999999  0.4235399999999999  0.46475999999999995  1.0000
  O   O34       1.0  0.9686199999999999  0.36602  0.02232  1.0000
  O   O35       1.0  0.94527  0.29941  0.91133  1.0000
  O   O36       1.0  0.9583400000000001  0.44049000000000005  0.94766  1.0000
  O   O37       1.0  0.5812799999999999  0.4118199999999999  0.5905799999999999  1.0000
  O   O38       1.0  0.47338999999999987  0.35834999999999995  0.48972999999999994  1.0000
  O   O39       1.0  0.13736  0.69201  0.19891  1.0000
  O   O40       1.0  0.20979999999999996  0.64513  0.16627  1.0000
  O   O41       1.0  0.85232  0.92569  0.52969  1.0000
  O   O42       1.0  0.92945  0.041019999999999966  0.57615  1.0000
  O   O43       1.0  0.60326  0.65638  0.63434  1.0000
  O   O44       1.0  0.64506  0.6113  0.70076  1.0000
  O   O45       1.0  0.51683  0.50697  0.55955  1.0000
  O   O46       1.0  0.17041999999999996  0.17844000000000004  0.58808  1.0000
  O   O47       1.0  0.11427999999999994  0.13179999999999994  0.6409799999999999  1.0000
  O   O48       1.0  0.4470499999999999  0.50845  0.30886  1.0000
  O   O49       1.0  0.56569  0.5208099999999999  0.35457999999999995  1.0000
  O   O50       1.0  0.92626  0.60288  0.07404  1.0000
  O   O51       1.0  0.88793  0.53522  0.9585499999999999  1.0000
  O   O52       1.0  0.94703  0.9781700000000001  0.34380999999999995  1.0000
  O   O53       1.0  0.033139999999999996  0.09014999999999998  0.3889  1.0000
  O   O54       1.0  0.010669999999999995  0.05263999999999998  0.493  1.0000
