data_image0
_chemical_formula_structural       Cu36H144C150I24N60
_chemical_formula_sum              "Cu36 H144 C150 I24 N60"
_cell_length_a       18.22436
_cell_length_b       20.28754
_cell_length_c       20.29148
_cell_angle_alpha    120.12124
_cell_angle_beta     90.00359
_cell_angle_gamma    89.99955

_space_group_name_H-M_alt    "P 1"
_space_group_IT_number       1

loop_
  _space_group_symop_operation_xyz
  'x, y, z'

loop_
  _atom_site_type_symbol
  _atom_site_label
  _atom_site_symmetry_multiplicity
  _atom_site_fract_x
  _atom_site_fract_y
  _atom_site_fract_z
  _atom_site_occupancy
  Cu  Cu1       1.0  0.52121  0.9096899999999999  0.24915999999999996  1.0000
  Cu  Cu2       1.0  0.5210599999999999  0.33961  0.09026999999999999  1.0000
  Cu  Cu3       1.0  0.5210499999999998  0.75118  0.6608  1.0000
  Cu  Cu4       1.0  0.02108  0.09035000000000001  0.75091  1.0000
  Cu  Cu5       1.0  0.021309999999999992  0.66038  0.90981  1.0000
  Cu  Cu6       1.0  0.02102  0.24876  0.33916  1.0000
  Cu  Cu7       1.0  0.47895  0.66076  0.75114  1.0000
  Cu  Cu8       1.0  0.47887999999999986  0.24906999999999993  0.90967  1.0000
  Cu  Cu9       1.0  0.47878999999999994  0.09023999999999997  0.33966  1.0000
  Cu  Cu10      1.0  0.97884  0.3391799999999999  0.24886  1.0000
  Cu  Cu11      1.0  0.9789699999999999  0.75093  0.0904  1.0000
  Cu  Cu12      1.0  0.97875  0.9097899999999999  0.66036  1.0000
  Cu  Cu13      1.0  0.4789  0.09032999999999998  0.7509  1.0000
  Cu  Cu14      1.0  0.47872  0.66038  0.90981  1.0000
  Cu  Cu15      1.0  0.4789999999999999  0.24875  0.33916  1.0000
  Cu  Cu16      1.0  0.9788099999999998  0.90968  0.24915999999999996  1.0000
  Cu  Cu17      1.0  0.9789399999999999  0.33959  0.09026  1.0000
  Cu  Cu18      1.0  0.97896  0.75117  0.66079  1.0000
  Cu  Cu19      1.0  0.5211999999999999  0.33918999999999994  0.24888  1.0000
  Cu  Cu20      1.0  0.5210399999999997  0.75092  0.0904  1.0000
  Cu  Cu21      1.0  0.52125  0.9097899999999999  0.66037  1.0000
  Cu  Cu22      1.0  0.02105  0.66076  0.75114  1.0000
  Cu  Cu23      1.0  0.02114  0.24907000000000004  0.9096799999999999  1.0000
  Cu  Cu24      1.0  0.021229999999999992  0.09023  0.33967  1.0000
  Cu  Cu25      1.0  0.5917099999999997  0.12348999999999997  0.24380999999999997  1.0000
  Cu  Cu26      1.0  0.59279  0.12246999999999998  0.87622  1.0000
  Cu  Cu27      1.0  0.59284  0.7552700000000001  0.87618  1.0000
  Cu  Cu28      1.0  0.09249999999999999  0.8764899999999999  0.7556699999999998  1.0000
  Cu  Cu29      1.0  0.09173999999999997  0.87657  0.12037  1.0000
  Cu  Cu30      1.0  0.09276999999999998  0.24562000000000003  0.12126  1.0000
  Cu  Cu31      1.0  0.4076299999999999  0.8765500000000002  0.7556699999999998  1.0000
  Cu  Cu32      1.0  0.40728  0.24504  0.12075999999999999  1.0000
  Cu  Cu33      1.0  0.40824  0.87657  0.12036000000000001  1.0000
  Cu  Cu34      1.0  0.90821  0.12348  0.24378  1.0000
  Cu  Cu35      1.0  0.90716  0.7552799999999998  0.87617  1.0000
  Cu  Cu36      1.0  0.9074  0.12175000000000008  0.87605  1.0000
  H   H1        1.0  0.67284  0.96609  0.35615  1.0000
  H   H2        1.0  0.63129  0.00825  0.30789  1.0000
  H   H3        1.0  0.6110299999999999  0.8458200000000001  0.35482  1.0000
  H   H4        1.0  0.52924  0.8167399999999999  0.30098  1.0000
  H   H5        1.0  0.67283  0.39031  0.03444  1.0000
  H   H6        1.0  0.63127  0.2997200000000001  0.99198  1.0000
  H   H7        1.0  0.6110299999999999  0.50941  0.15412  1.0000
  H   H8        1.0  0.52926  0.48467  0.18315  1.0000
  H   H9        1.0  0.6727999999999998  0.64404  0.60971  1.0000
  H   H10       1.0  0.6313  0.69247  0.70029  1.0000
  H   H11       1.0  0.6110199999999998  0.64492  0.49108  1.0000
  H   H12       1.0  0.52923  0.69878  0.51591  1.0000
  H   H13       1.0  0.17286  0.03391  0.64383  1.0000
  H   H14       1.0  0.13128  0.99176  0.69207  1.0000
  H   H15       1.0  0.11103  0.15418000000000007  0.64517  1.0000
  H   H16       1.0  0.02927  0.18329  0.69903  1.0000
  H   H17       1.0  0.17285  0.60969  0.9655500000000001  1.0000
  H   H18       1.0  0.13128999999999993  0.70028  0.00803  1.0000
  H   H19       1.0  0.11102  0.49060000000000004  0.8459  1.0000
  H   H20       1.0  0.029249999999999998  0.51534  0.81687  1.0000
  H   H21       1.0  0.17276  0.35595  0.39026  1.0000
  H   H22       1.0  0.13128999999999993  0.30747  0.29966  1.0000
  H   H23       1.0  0.11102  0.35505  0.50891  1.0000
  H   H24       1.0  0.02921  0.30119999999999997  0.48405999999999993  1.0000
  H   H25       1.0  0.32721  0.60969  0.64407  1.0000
  H   H26       1.0  0.3687099999999999  0.7003  0.69249  1.0000
  H   H27       1.0  0.38899  0.49105  0.6449  1.0000
  H   H28       1.0  0.4708  0.51587  0.69872  1.0000
  H   H29       1.0  0.32712999999999987  0.35619  0.9660799999999999  1.0000
  H   H30       1.0  0.36873  0.30795  0.00822  1.0000
  H   H31       1.0  0.38897999999999994  0.35482  0.84585  1.0000
  H   H32       1.0  0.4707299999999999  0.30093999999999993  0.81675  1.0000
  H   H33       1.0  0.32721  0.03436999999999999  0.39024  1.0000
  H   H34       1.0  0.36873  0.99193  0.29966  1.0000
  H   H35       1.0  0.38897999999999994  0.15414  0.5094  1.0000
  H   H36       1.0  0.47076  0.18318  0.48467999999999994  1.0000
  H   H37       1.0  0.8272599999999999  0.39028999999999997  0.35591  1.0000
  H   H38       1.0  0.8687199999999999  0.29966  0.30747  1.0000
  H   H39       1.0  0.88898  0.50892  0.35509  1.0000
  H   H40       1.0  0.97078  0.48410000000000003  0.30127  1.0000
  H   H41       1.0  0.8271299999999998  0.64381  0.0339  1.0000
  H   H42       1.0  0.86873  0.69207  0.99179  1.0000
  H   H43       1.0  0.88898  0.64519  0.15416  1.0000
  H   H44       1.0  0.9707599999999998  0.69906  0.18326  1.0000
  H   H45       1.0  0.82717  0.9656  0.60972  1.0000
  H   H46       1.0  0.86873  0.008049999999999993  0.70029  1.0000
  H   H47       1.0  0.8889899999999998  0.84586  0.49058  1.0000
  H   H48       1.0  0.97075  0.8168099999999999  0.51531  1.0000
  H   H49       1.0  0.32712999999999987  0.03391  0.64383  1.0000
  H   H50       1.0  0.36872  0.99176  0.69208  1.0000
  H   H51       1.0  0.38897999999999994  0.15417000000000006  0.64516  1.0000
  H   H52       1.0  0.47074  0.18327999999999994  0.6990199999999999  1.0000
  H   H53       1.0  0.32718  0.60969  0.9655500000000001  1.0000
  H   H54       1.0  0.36874  0.70028  0.00803  1.0000
  H   H55       1.0  0.38899  0.49058999999999997  0.84588  1.0000
  H   H56       1.0  0.47076  0.51533  0.81687  1.0000
  H   H57       1.0  0.3272499999999999  0.35595  0.39026  1.0000
  H   H58       1.0  0.3687099999999999  0.30748  0.29966  1.0000
  H   H59       1.0  0.38899  0.35505  0.50889  1.0000
  H   H60       1.0  0.47078999999999993  0.3012  0.48406999999999994  1.0000
  H   H61       1.0  0.82719  0.96609  0.35615  1.0000
  H   H62       1.0  0.86873  0.00825  0.3079  1.0000
  H   H63       1.0  0.8889899999999998  0.8458200000000001  0.35481  1.0000
  H   H64       1.0  0.9707699999999999  0.8167399999999999  0.30098  1.0000
  H   H65       1.0  0.82717  0.3903  0.03443  1.0000
  H   H66       1.0  0.86873  0.29971000000000003  0.99198  1.0000
  H   H67       1.0  0.88898  0.5094000000000001  0.15411  1.0000
  H   H68       1.0  0.9707399999999999  0.48467  0.18314  1.0000
  H   H69       1.0  0.82721  0.64404  0.60971  1.0000
  H   H70       1.0  0.86873  0.69247  0.70029  1.0000
  H   H71       1.0  0.8889899999999998  0.64492  0.49107  1.0000
  H   H72       1.0  0.97079  0.69878  0.51591  1.0000
  H   H73       1.0  0.67277  0.39028999999999997  0.35591  1.0000
  H   H74       1.0  0.63131  0.29966  0.30747  1.0000
  H   H75       1.0  0.6110299999999999  0.50892  0.3551  1.0000
  H   H76       1.0  0.52922  0.48408999999999996  0.30127  1.0000
  H   H77       1.0  0.67287  0.64381  0.0339  1.0000
  H   H78       1.0  0.63127  0.69207  0.99179  1.0000
  H   H79       1.0  0.6110299999999999  0.6452  0.15417  1.0000
  H   H80       1.0  0.52925  0.69906  0.18326  1.0000
  H   H81       1.0  0.67283  0.9656  0.60972  1.0000
  H   H82       1.0  0.63128  0.008049999999999993  0.70029  1.0000
  H   H83       1.0  0.6110199999999998  0.84586  0.49059  1.0000
  H   H84       1.0  0.52926  0.8168099999999999  0.51531  1.0000
  H   H85       1.0  0.17278  0.60969  0.64407  1.0000
  H   H86       1.0  0.13128  0.70029  0.69249  1.0000
  H   H87       1.0  0.11102  0.49105  0.64491  1.0000
  H   H88       1.0  0.02921  0.51587  0.69873  1.0000
  H   H89       1.0  0.17288  0.35619  0.9660799999999999  1.0000
  H   H90       1.0  0.13128999999999993  0.30794  0.00821  1.0000
  H   H91       1.0  0.11103  0.35482000000000014  0.84586  1.0000
  H   H92       1.0  0.02927  0.30093999999999993  0.81675  1.0000
  H   H93       1.0  0.17279999999999995  0.03436999999999999  0.39024  1.0000
  H   H94       1.0  0.13128  0.99193  0.29964999999999997  1.0000
  H   H95       1.0  0.11102  0.15415000000000006  0.50941  1.0000
  H   H96       1.0  0.029249999999999998  0.18317  0.48467999999999994  1.0000
  H   H97       1.0  0.7500099999999997  0.07447999999999998  0.37326999999999994  1.0000
  H   H98       1.0  0.7500099999999997  0.040379999999999985  0.27487  1.0000
  H   H99       1.0  0.7499999999999998  0.29891  0.92589  1.0000
  H   H100      1.0  0.7499999999999998  0.23446  0.95971  1.0000
  H   H101      1.0  0.7500099999999997  0.62715  0.70105  1.0000
  H   H102      1.0  0.7500199999999998  0.72562  0.76554  1.0000
  H   H103      1.0  0.24999999999999994  0.9255200000000001  0.62674  1.0000
  H   H104      1.0  0.25001  0.95963  0.7251499999999997  1.0000
  H   H105      1.0  0.25002  0.70106  0.07412  1.0000
  H   H106      1.0  0.25001  0.76554  0.04033  1.0000
  H   H107      1.0  0.24999999999999994  0.37283  0.29893  1.0000
  H   H108      1.0  0.24998999999999996  0.27436  0.23446999999999998  1.0000
  H   H109      1.0  0.24998999999999996  0.70104  0.62718  1.0000
  H   H110      1.0  0.24999999999999994  0.76554  0.72562  1.0000
  H   H111      1.0  0.25001  0.37328  0.07446  1.0000
  H   H112      1.0  0.25001  0.27485  0.04035  1.0000
  H   H113      1.0  0.25001  0.9258099999999999  0.29887  1.0000
  H   H114      1.0  0.24999999999999994  0.9596700000000001  0.23445  1.0000
  H   H115      1.0  0.7500199999999998  0.29897  0.37282  1.0000
  H   H116      1.0  0.7500099999999997  0.23446  0.2744  1.0000
  H   H117      1.0  0.7499999999999998  0.6267499999999999  0.9255399999999999  1.0000
  H   H118      1.0  0.7499999999999998  0.7251899999999999  0.95967  1.0000
  H   H119      1.0  0.7499999999999998  0.07418  0.70112  1.0000
  H   H120      1.0  0.7500099999999997  0.04033000000000001  0.76554  1.0000
  H   H121      1.0  0.55291  0.74473  0.37201999999999996  1.0000
  H   H122      1.0  0.4685599999999999  0.7937400000000001  0.39658  1.0000
  H   H123      1.0  0.55291  0.6279900000000002  0.25524  1.0000
  H   H124      1.0  0.4685599999999999  0.60341  0.20623  1.0000
  H   H125      1.0  0.55282  0.62741  0.37262  1.0000
  H   H126      1.0  0.46854999999999997  0.60289  0.39712  1.0000
  H   H127      1.0  0.052909999999999985  0.25528  0.62798  1.0000
  H   H128      1.0  0.96857  0.20625999999999997  0.6034  1.0000
  H   H129      1.0  0.0529  0.37202  0.74479  1.0000
  H   H130      1.0  0.96856  0.39659  0.79378  1.0000
  H   H131      1.0  0.052819999999999985  0.37256000000000006  0.62737  1.0000
  H   H132      1.0  0.9685399999999998  0.39707000000000003  0.60285  1.0000
  H   H133      1.0  0.44717999999999997  0.37256  0.62736  1.0000
  H   H134      1.0  0.53146  0.39707000000000003  0.60286  1.0000
  H   H135      1.0  0.44711  0.37201  0.74478  1.0000
  H   H136      1.0  0.53145  0.39659  0.79378  1.0000
  H   H137      1.0  0.44708999999999993  0.25527  0.62798  1.0000
  H   H138      1.0  0.53144  0.20625999999999997  0.6034  1.0000
  H   H139      1.0  0.9471899999999999  0.6274100000000002  0.37261  1.0000
  H   H140      1.0  0.03146  0.60289  0.39712  1.0000
  H   H141      1.0  0.9471  0.62799  0.25523  1.0000
  H   H142      1.0  0.03143999999999999  0.60341  0.20623  1.0000
  H   H143      1.0  0.9471  0.7447299999999999  0.37201  1.0000
  H   H144      1.0  0.03145  0.7937400000000001  0.39659  1.0000
  C   C1        1.0  0.68172  0.9008  0.23534  1.0000
  C   C2        1.0  0.6800099999999998  0.9762600000000001  0.30799  1.0000
  C   C3        1.0  0.52381  0.92568  0.4014  1.0000
  C   C4        1.0  0.5507899999999999  0.8448099999999998  0.35944  1.0000
  C   C5        1.0  0.6817  0.33457  0.09928  1.0000
  C   C6        1.0  0.6799899999999998  0.33185  0.02401  1.0000
  C   C7        1.0  0.52384  0.47591000000000006  0.07429  1.0000
  C   C8        1.0  0.5507899999999999  0.51504  0.15514  1.0000
  C   C9        1.0  0.6817  0.76485  0.66543  1.0000
  C   C10       1.0  0.6799999999999998  0.69228  0.66816  1.0000
  C   C11       1.0  0.52382  0.59854  0.52438  1.0000
  C   C12       1.0  0.5507899999999999  0.64031  0.48544  1.0000
  C   C13       1.0  0.18171  0.09921000000000002  0.76465  1.0000
  C   C14       1.0  0.18  0.023750000000000004  0.69199  1.0000
  C   C15       1.0  0.023799999999999995  0.07434  0.59862  1.0000
  C   C16       1.0  0.05079  0.15519999999999995  0.6405599999999999  1.0000
  C   C17       1.0  0.18172  0.66545  0.90072  1.0000
  C   C18       1.0  0.18002  0.6681500000000001  0.9759899999999999  1.0000
  C   C19       1.0  0.023839999999999993  0.52408  0.9257299999999999  1.0000
  C   C20       1.0  0.05078  0.4849699999999999  0.8448799999999999  1.0000
  C   C21       1.0  0.18169  0.23514999999999997  0.33459  1.0000
  C   C22       1.0  0.17997999999999997  0.3077  0.33183  1.0000
  C   C23       1.0  0.023819999999999994  0.40143  0.47561000000000003  1.0000
  C   C24       1.0  0.05078  0.3596599999999999  0.51455  1.0000
  C   C25       1.0  0.31830999999999987  0.66542  0.76486  1.0000
  C   C26       1.0  0.32001  0.66815  0.69231  1.0000
  C   C27       1.0  0.4761899999999999  0.52435  0.59852  1.0000
  C   C28       1.0  0.44921999999999995  0.4854  0.64027  1.0000
  C   C29       1.0  0.3183  0.23534000000000008  0.90079  1.0000
  C   C30       1.0  0.31999999999999995  0.30801999999999996  0.9762399999999999  1.0000
  C   C31       1.0  0.47621  0.4013699999999999  0.9256799999999998  1.0000
  C   C32       1.0  0.44921999999999995  0.35942  0.84483  1.0000
  C   C33       1.0  0.3183  0.09925999999999999  0.33456  1.0000
  C   C34       1.0  0.32001  0.02396000000000001  0.3318  1.0000
  C   C35       1.0  0.47615999999999997  0.07430000000000003  0.47594000000000003  1.0000
  C   C36       1.0  0.44921999999999995  0.15515999999999994  0.51504  1.0000
  C   C37       1.0  0.81832  0.33457  0.23512999999999998  1.0000
  C   C38       1.0  0.8200299999999998  0.33183  0.30768  1.0000
  C   C39       1.0  0.9761899999999998  0.47562  0.40147  1.0000
  C   C40       1.0  0.9492199999999998  0.51457  0.35972  1.0000
  C   C41       1.0  0.8183  0.76465  0.09921  1.0000
  C   C42       1.0  0.81999  0.692  0.02375  1.0000
  C   C43       1.0  0.9761999999999998  0.59863  0.07433  1.0000
  C   C44       1.0  0.9492199999999998  0.64059  0.15517999999999998  1.0000
  C   C45       1.0  0.8183  0.90073  0.66544  1.0000
  C   C46       1.0  0.82  0.97602  0.66817  1.0000
  C   C47       1.0  0.97618  0.9257  0.52408  1.0000
  C   C48       1.0  0.9492299999999999  0.8448299999999999  0.48495  1.0000
  C   C49       1.0  0.31829  0.09921000000000002  0.76465  1.0000
  C   C50       1.0  0.31999999999999995  0.023750000000000004  0.69199  1.0000
  C   C51       1.0  0.47621  0.07434  0.59862  1.0000
  C   C52       1.0  0.44921  0.15519999999999995  0.6405599999999999  1.0000
  C   C53       1.0  0.3183  0.66545  0.90072  1.0000
  C   C54       1.0  0.32001  0.6681500000000001  0.9759899999999999  1.0000
  C   C55       1.0  0.4761699999999999  0.52408  0.9257299999999999  1.0000
  C   C56       1.0  0.44923  0.4849699999999999  0.8448799999999999  1.0000
  C   C57       1.0  0.31831999999999994  0.23514999999999997  0.33459  1.0000
  C   C58       1.0  0.32002  0.3077  0.33183  1.0000
  C   C59       1.0  0.4761899999999999  0.40143  0.47561000000000003  1.0000
  C   C60       1.0  0.44921999999999995  0.35966  0.51454  1.0000
  C   C61       1.0  0.8183  0.9008  0.23534  1.0000
  C   C62       1.0  0.82001  0.9762600000000001  0.308  1.0000
  C   C63       1.0  0.9761999999999998  0.92568  0.4014  1.0000
  C   C64       1.0  0.9492199999999998  0.8448099999999998  0.35944  1.0000
  C   C65       1.0  0.8183  0.33457  0.09928  1.0000
  C   C66       1.0  0.82  0.33184  0.02401  1.0000
  C   C67       1.0  0.97617  0.47591000000000006  0.07429  1.0000
  C   C68       1.0  0.9492199999999998  0.51503  0.15512999999999996  1.0000
  C   C69       1.0  0.81832  0.76485  0.66543  1.0000
  C   C70       1.0  0.8200199999999997  0.69229  0.66816  1.0000
  C   C71       1.0  0.9761999999999998  0.59854  0.52438  1.0000
  C   C72       1.0  0.9492299999999999  0.64031  0.48544  1.0000
  C   C73       1.0  0.6817  0.33457  0.23512999999999998  1.0000
  C   C74       1.0  0.6799999999999998  0.33183  0.30767  1.0000
  C   C75       1.0  0.52383  0.4756199999999999  0.4014799999999999  1.0000
  C   C76       1.0  0.5507899999999999  0.51457  0.35972  1.0000
  C   C77       1.0  0.68171  0.76465  0.09921  1.0000
  C   C78       1.0  0.6799999999999998  0.69199  0.02375  1.0000
  C   C79       1.0  0.52381  0.59863  0.07433  1.0000
  C   C80       1.0  0.5507899999999999  0.64059  0.15519  1.0000
  C   C81       1.0  0.68171  0.90073  0.66545  1.0000
  C   C82       1.0  0.6800099999999998  0.97602  0.66817  1.0000
  C   C83       1.0  0.52384  0.9257  0.52408  1.0000
  C   C84       1.0  0.5507799999999998  0.84484  0.48496  1.0000
  C   C85       1.0  0.18169  0.66542  0.76486  1.0000
  C   C86       1.0  0.17999  0.66815  0.69231  1.0000
  C   C87       1.0  0.023819999999999994  0.52435  0.59852  1.0000
  C   C88       1.0  0.05078  0.4854  0.64028  1.0000
  C   C89       1.0  0.18172  0.23534000000000008  0.90079  1.0000
  C   C90       1.0  0.18002  0.30801999999999996  0.9762399999999999  1.0000
  C   C91       1.0  0.023799999999999995  0.4013699999999999  0.9256899999999999  1.0000
  C   C92       1.0  0.05079  0.35942  0.84484  1.0000
  C   C93       1.0  0.18171  0.09925999999999999  0.33456  1.0000
  C   C94       1.0  0.18  0.02396000000000001  0.3318  1.0000
  C   C95       1.0  0.02385  0.07430000000000003  0.47594000000000003  1.0000
  C   C96       1.0  0.05079  0.15516999999999995  0.51504  1.0000
  C   C97       1.0  0.7500099999999997  0.8686600000000001  0.20109  1.0000
  C   C98       1.0  0.7500099999999997  0.02215  0.31744  1.0000
  C   C99       1.0  0.7499999999999998  0.33245  0.13134  1.0000
  C   C100      1.0  0.7499999999999998  0.29536  0.97808  1.0000
  C   C101      1.0  0.7500099999999997  0.7989899999999999  0.66748  1.0000
  C   C102      1.0  0.7500099999999997  0.68293  0.70462  1.0000
  C   C103      1.0  0.24999999999999994  0.1313400000000001  0.7989  1.0000
  C   C104      1.0  0.24999999999999994  0.9778500000000001  0.68257  1.0000
  C   C105      1.0  0.25001  0.66753  0.8686499999999999  1.0000
  C   C106      1.0  0.25001  0.70463  0.02193  1.0000
  C   C107      1.0  0.24999999999999994  0.20099  0.3325  1.0000
  C   C108      1.0  0.24999999999999994  0.31706  0.29539  1.0000
  C   C109      1.0  0.24999999999999994  0.66747  0.79899  1.0000
  C   C110      1.0  0.24999999999999994  0.70461  0.68295  1.0000
  C   C111      1.0  0.25001  0.20109999999999992  0.8686499999999999  1.0000
  C   C112      1.0  0.25001  0.31744  0.02213  1.0000
  C   C113      1.0  0.24999999999999994  0.13132999999999997  0.33243999999999996  1.0000
  C   C114      1.0  0.25001  0.9780300000000001  0.29534  1.0000
  C   C115      1.0  0.7500099999999997  0.33251  0.20099  1.0000
  C   C116      1.0  0.7500099999999997  0.2954  0.31704999999999994  1.0000
  C   C117      1.0  0.7499999999999998  0.7989099999999999  0.13134  1.0000
  C   C118      1.0  0.7499999999999998  0.68258  0.97787  1.0000
  C   C119      1.0  0.7500099999999997  0.8686600000000001  0.66754  1.0000
  C   C120      1.0  0.7499999999999998  0.021960000000000007  0.70465  1.0000
  C   C121      1.0  0.5130599999999997  0.96179  0.48083999999999993  1.0000
  C   C122      1.0  0.52836  0.8018900000000001  0.40065999999999996  1.0000
  C   C123      1.0  0.5130799999999999  0.51916  0.038209999999999994  1.0000
  C   C124      1.0  0.52836  0.59934  0.19809  1.0000
  C   C125      1.0  0.5130699999999998  0.51906  0.48094  1.0000
  C   C126      1.0  0.52836  0.59887  0.40115  1.0000
  C   C127      1.0  0.01307  0.03820999999999999  0.51918  1.0000
  C   C128      1.0  0.028369999999999992  0.19811999999999996  0.5993299999999999  1.0000
  C   C129      1.0  0.01306  0.48083000000000004  0.9618  1.0000
  C   C130      1.0  0.02836  0.40066  0.80193  1.0000
  C   C131      1.0  0.01308  0.48092  0.51906  1.0000
  C   C132      1.0  0.02835  0.40109999999999996  0.59883  1.0000
  C   C133      1.0  0.48692  0.48092  0.51906  1.0000
  C   C134      1.0  0.47166  0.40109999999999996  0.59883  1.0000
  C   C135      1.0  0.48694999999999994  0.48083000000000004  0.9618  1.0000
  C   C136      1.0  0.47164999999999996  0.40066  0.80192  1.0000
  C   C137      1.0  0.48693  0.03820999999999999  0.51918  1.0000
  C   C138      1.0  0.47164  0.19811999999999996  0.5993299999999999  1.0000
  C   C139      1.0  0.9869299999999999  0.5190599999999999  0.48092999999999997  1.0000
  C   C140      1.0  0.9716599999999999  0.59887  0.40115  1.0000
  C   C141      1.0  0.98692  0.51916  0.038209999999999994  1.0000
  C   C142      1.0  0.97164  0.59934  0.19809  1.0000
  C   C143      1.0  0.98695  0.96179  0.48083999999999993  1.0000
  C   C144      1.0  0.97165  0.8018900000000001  0.40067  1.0000
  C   C145      1.0  0.7499999999999998  0.09925999999999999  0.1986  1.0000
  C   C146      1.0  0.74998  0.09932999999999988  0.9006399999999998  1.0000
  C   C147      1.0  0.7499999999999998  0.80222  0.90115  1.0000
  C   C148      1.0  0.25002  0.9010200000000002  0.80196  1.0000
  C   C149      1.0  0.24999999999999994  0.9006  0.09928  1.0000
  C   C150      1.0  0.24994  0.19831  0.09905999999999998  1.0000
  I   I1        1.0  0.58935  0.19805000000000003  0.39631  1.0000
  I   I2        1.0  0.58973  0.19849000000000003  0.80155  1.0000
  I   I3        1.0  0.5893899999999997  0.60337  0.80177  1.0000
  I   I4        1.0  0.0894  0.80187  0.6035799999999999  1.0000
  I   I5        1.0  0.08963  0.8020200000000001  0.19802  1.0000
  I   I6        1.0  0.08942  0.39717  0.19858  1.0000
  I   I7        1.0  0.41063  0.8018400000000001  0.60354  1.0000
  I   I8        1.0  0.4105999999999999  0.39696000000000004  0.19849  1.0000
  I   I9        1.0  0.41037  0.8020400000000001  0.19801  1.0000
  I   I10       1.0  0.9106299999999999  0.19802000000000003  0.39625  1.0000
  I   I11       1.0  0.9106199999999999  0.60338  0.80177  1.0000
  I   I12       1.0  0.9103  0.19844000000000012  0.80161  1.0000
  I   I13       1.0  0.50015  0.99994  0.19129  1.0000
  I   I14       1.0  0.50023  0.19112000000000004  0.99977  1.0000
  I   I15       1.0  0.5000699999999998  0.80908  0.80912  1.0000
  I   I16       1.0  0.00052  0.0  0.8086999999999999  1.0000
  I   I17       1.0  0.9988299999999999  0.8086800000000001  0.9998799999999999  1.0000
  I   I18       1.0  0.0009599999999999999  0.19107  0.1908  1.0000
  I   I19       1.0  0.4996  5.000000000008425e-05  0.80872  1.0000
  I   I20       1.0  0.50118  0.8087000000000001  0.99989  1.0000
  I   I21       1.0  0.49903  0.19108  0.19081  1.0000
  I   I22       1.0  0.9998499999999999  0.99994  0.1913  1.0000
  I   I23       1.0  0.9998  0.19114000000000003  0.99978  1.0000
  I   I24       1.0  0.99995  0.80909  0.8091299999999999  1.0000
  N   N1        1.0  0.6188699999999998  0.8638800000000001  0.20485999999999996  1.0000
  N   N2        1.0  0.51048  0.96129  0.36226  1.0000
  N   N3        1.0  0.61881  0.34092  0.13607  1.0000
  N   N4        1.0  0.51054  0.40102000000000004  0.03866  1.0000
  N   N5        1.0  0.61881  0.79533  0.65915  1.0000
  N   N6        1.0  0.5104899999999998  0.63789  0.59926  1.0000
  N   N7        1.0  0.11885  0.13610999999999998  0.79514  1.0000
  N   N8        1.0  0.010429999999999997  0.038740000000000004  0.63778  1.0000
  N   N9        1.0  0.11882  0.6591399999999998  0.86396  1.0000
  N   N10       1.0  0.01057  0.59898  0.96138  1.0000
  N   N11       1.0  0.11882  0.2047  0.34095  1.0000
  N   N12       1.0  0.010489999999999996  0.36209  0.40073  1.0000
  N   N13       1.0  0.3812  0.6591600000000001  0.79534  1.0000
  N   N14       1.0  0.48952999999999997  0.59926  0.63788  1.0000
  N   N15       1.0  0.38116  0.20484000000000008  0.86391  1.0000
  N   N16       1.0  0.48957  0.3622  0.96127  1.0000
  N   N17       1.0  0.38117  0.1361  0.34098  1.0000
  N   N18       1.0  0.48943  0.038650000000000004  0.40106  1.0000
  N   N19       1.0  0.8812  0.34085  0.20465  1.0000
  N   N20       1.0  0.98952  0.40072  0.36211  1.0000
  N   N21       1.0  0.8811499999999999  0.79514  0.13613  1.0000
  N   N22       1.0  0.9895499999999999  0.63779  0.03874  1.0000
  N   N23       1.0  0.8811799999999999  0.8639399999999999  0.6590799999999999  1.0000
  N   N24       1.0  0.9894299999999999  0.96136  0.59896  1.0000
  N   N25       1.0  0.38116  0.13610999999999998  0.79514  1.0000
  N   N26       1.0  0.48958  0.038740000000000004  0.63778  1.0000
  N   N27       1.0  0.3811899999999999  0.6591399999999998  0.86396  1.0000
  N   N28       1.0  0.48944999999999994  0.5989799999999997  0.96137  1.0000
  N   N29       1.0  0.3811899999999999  0.2047  0.34094  1.0000
  N   N30       1.0  0.48952  0.36208  0.40073  1.0000
  N   N31       1.0  0.8811499999999999  0.8638800000000001  0.20485999999999996  1.0000
  N   N32       1.0  0.9895399999999999  0.96129  0.36226  1.0000
  N   N33       1.0  0.8811899999999999  0.34093  0.13608  1.0000
  N   N34       1.0  0.9894799999999999  0.40102000000000004  0.03866  1.0000
  N   N35       1.0  0.8812  0.79533  0.65915  1.0000
  N   N36       1.0  0.98952  0.63789  0.59926  1.0000
  N   N37       1.0  0.61882  0.34084  0.20465  1.0000
  N   N38       1.0  0.5104999999999998  0.40072  0.36212  1.0000
  N   N39       1.0  0.6188599999999997  0.79513  0.13613  1.0000
  N   N40       1.0  0.51045  0.63779  0.03874  1.0000
  N   N41       1.0  0.61883  0.8639300000000001  0.6590799999999999  1.0000
  N   N42       1.0  0.51058  0.96136  0.59896  1.0000
  N   N43       1.0  0.11879999999999999  0.6591600000000001  0.79534  1.0000
  N   N44       1.0  0.010479999999999996  0.59926  0.63788  1.0000
  N   N45       1.0  0.11885  0.2048399999999999  0.8639  1.0000
  N   N46       1.0  0.010449999999999996  0.36220999999999987  0.9612799999999999  1.0000
  N   N47       1.0  0.11883999999999999  0.1361  0.34099  1.0000
  N   N48       1.0  0.01057  0.038650000000000004  0.40106  1.0000
  N   N49       1.0  0.6826099999999999  0.09857  0.19743  1.0000
  N   N50       1.0  0.68255  0.09872000000000003  0.90137  1.0000
  N   N51       1.0  0.68263  0.8036399999999999  0.90197  1.0000
  N   N52       1.0  0.18261999999999998  0.90189  0.80343  1.0000
  N   N53       1.0  0.18260999999999994  0.9013300000000001  0.09878  1.0000
  N   N54       1.0  0.18253  0.19690999999999995  0.09851  1.0000
  N   N55       1.0  0.3174  0.9018  0.80324  1.0000
  N   N56       1.0  0.31733  0.19684  0.09843  1.0000
  N   N57       1.0  0.3174  0.9013500000000001  0.09873  1.0000
  N   N58       1.0  0.81741  0.09844000000000003  0.19719  1.0000
  N   N59       1.0  0.8174  0.8036800000000001  0.90198  1.0000
  N   N60       1.0  0.81739  0.09868999999999997  0.90131  1.0000
