data_image0
_chemical_formula_structural       Zn16H192C216O52
_chemical_formula_sum              "Zn16 H192 C216 O52"
_cell_length_a       22.98129
_cell_length_b       22.98004
_cell_length_c       25.374579999999998
_cell_angle_alpha    62.94349
_cell_angle_beta     62.94713
_cell_angle_gamma    59.86506

_space_group_name_H-M_alt    "P 1"
_space_group_IT_number       1

loop_
  _space_group_symop_operation_xyz
  'x, y, z'

loop_
  _atom_site_type_symbol
  _atom_site_label
  _atom_site_symmetry_multiplicity
  _atom_site_fract_x
  _atom_site_fract_y
  _atom_site_fract_z
  _atom_site_occupancy
  Zn  Zn1       1.0  0.9742400000000001  0.8204  0.259  1.0000
  Zn  Zn2       1.0  0.9462800000000003  0.9739799999999996  0.25883  1.0000
  Zn  Zn3       1.0  0.8203900000000002  0.9465499999999999  0.25902  1.0000
  Zn  Zn4       1.0  0.44650000000000006  0.32039  0.759  1.0000
  Zn  Zn5       1.0  0.3204099999999999  0.47424999999999995  0.75902  1.0000
  Zn  Zn6       1.0  0.47392999999999996  0.4463500000000001  0.7588199999999999  1.0000
  Zn  Zn7       1.0  0.9523600000000002  0.9527  0.14248  1.0000
  Zn  Zn8       1.0  0.45273999999999986  0.45229  0.64248  1.0000
  Zn  Zn9       1.0  0.55349  0.67961  0.241  1.0000
  Zn  Zn10      1.0  0.6795800000000002  0.52575  0.24098  1.0000
  Zn  Zn11      1.0  0.52606  0.55365  0.24118  1.0000
  Zn  Zn12      1.0  0.025750000000000012  0.17959999999999998  0.7410000000000001  1.0000
  Zn  Zn13      1.0  0.05371  0.02601999999999999  0.74117  1.0000
  Zn  Zn14      1.0  0.17959999999999998  0.053449999999999935  0.7409800000000001  1.0000
  Zn  Zn15      1.0  0.54725  0.54771  0.35752  1.0000
  Zn  Zn16      1.0  0.047640000000000064  0.04731000000000002  0.8575199999999998  1.0000
  H   H1        1.0  0.11893000000000002  0.6735  0.15575  1.0000
  H   H2        1.0  0.11387999999999998  0.86657  0.00971  1.0000
  H   H3        1.0  0.25318  0.55781  0.05602  1.0000
  H   H4        1.0  0.16441000000000003  0.56582  0.08644  1.0000
  H   H5        1.0  0.20509999999999998  0.56186  0.13346  1.0000
  H   H6        1.0  0.15925  0.86708  0.90279  1.0000
  H   H7        1.0  0.20418999999999993  0.7875300000000001  0.88193  1.0000
  H   H8        1.0  0.24875999999999995  0.81628  0.90067  1.0000
  H   H9        1.0  0.20237999999999995  0.60256  0.87073  1.0000
  H   H10       1.0  0.40138  0.57257  0.87184  1.0000
  H   H11       1.0  0.09740999999999998  0.6535  0.00241  1.0000
  H   H12       1.0  0.09543000000000003  0.7357  0.94725  1.0000
  H   H13       1.0  0.09497000000000003  0.67107  0.92744  1.0000
  H   H14       1.0  0.36681000000000025  0.59989  0.99522  1.0000
  H   H15       1.0  0.40284  0.6462799999999999  0.91856  1.0000
  H   H16       1.0  0.32402000000000003  0.69182  0.96809  1.0000
  H   H17       1.0  0.05169999999999997  0.11876000000000003  0.15575  1.0000
  H   H18       1.0  0.01002000000000001  0.11393999999999999  0.00986  1.0000
  H   H19       1.0  0.13275  0.25306  0.05578  1.0000
  H   H20       1.0  0.18327  0.16421999999999998  0.08619  1.0000
  H   H21       1.0  0.09921000000000005  0.20501999999999998  0.13328  1.0000
  H   H22       1.0  0.07101999999999996  0.15933999999999998  0.9030400000000001  1.0000
  H   H23       1.0  0.12655000000000002  0.20418999999999995  0.88194  1.0000
  H   H24       1.0  0.03423999999999997  0.24892  0.9007500000000002  1.0000
  H   H25       1.0  0.3248100000000001  0.20219  0.87054  1.0000
  H   H26       1.0  0.15413000000000002  0.40135  0.87193  1.0000
  H   H27       1.0  0.24674000000000001  0.09742  0.0023  1.0000
  H   H28       1.0  0.22165999999999994  0.09562999999999998  0.94721  1.0000
  H   H29       1.0  0.30689  0.09467999999999994  0.92737  1.0000
  H   H30       1.0  0.03757999999999994  0.36698  0.9953100000000001  1.0000
  H   H31       1.0  0.031770000000000034  0.40313999999999994  0.9187  1.0000
  H   H32       1.0  0.01559000000000007  0.3243799999999999  0.96826  1.0000
  H   H33       1.0  0.67353  0.05187  0.15575  1.0000
  H   H34       1.0  0.86664  0.009859999999999997  0.00973  1.0000
  H   H35       1.0  0.55786  0.13306  0.05603  1.0000
  H   H36       1.0  0.56574  0.1834  0.08635  1.0000
  H   H37       1.0  0.56189  0.09946  0.13349  1.0000
  H   H38       1.0  0.8670300000000002  0.07075  0.90282  1.0000
  H   H39       1.0  0.7873999999999999  0.12648  0.8820400000000002  1.0000
  H   H40       1.0  0.8163699999999999  0.03416999999999995  0.9007800000000001  1.0000
  H   H41       1.0  0.6023000000000001  0.3247999999999999  0.8704499999999998  1.0000
  H   H42       1.0  0.57279  0.15433  0.8720200000000001  1.0000
  H   H43       1.0  0.65326  0.24662999999999996  0.00222  1.0000
  H   H44       1.0  0.73548  0.22140999999999997  0.94706  1.0000
  H   H45       1.0  0.6707700000000001  0.3066999999999999  0.92721  1.0000
  H   H46       1.0  0.60005  0.03773000000000003  0.9954299999999999  1.0000
  H   H47       1.0  0.64649  0.03216999999999999  0.9187400000000001  1.0000
  H   H48       1.0  0.69195  0.015419999999999927  0.9683500000000002  1.0000
  H   H49       1.0  0.5519  0.17347999999999997  0.65574  1.0000
  H   H50       1.0  0.5098800000000002  0.36664  0.50969  1.0000
  H   H51       1.0  0.6330499999999997  0.05785000000000001  0.55605  1.0000
  H   H52       1.0  0.6834  0.0657  0.58639  1.0000
  H   H53       1.0  0.59948  0.061849999999999995  0.63351  1.0000
  H   H54       1.0  0.5707300000000001  0.36707999999999996  0.40277999999999997  1.0000
  H   H55       1.0  0.6264699999999999  0.28744000000000003  0.3820299999999999  1.0000
  H   H56       1.0  0.53416  0.31642  0.40076000000000006  1.0000
  H   H57       1.0  0.82477  0.10233  0.37048000000000003  1.0000
  H   H58       1.0  0.6542900000000001  0.07280999999999996  0.37204000000000004  1.0000
  H   H59       1.0  0.74664  0.15325  0.50222  1.0000
  H   H60       1.0  0.7214099999999999  0.23549  0.44705000000000006  1.0000
  H   H61       1.0  0.8067  0.17077  0.42721999999999993  1.0000
  H   H62       1.0  0.53776  0.10003999999999999  0.49542  1.0000
  H   H63       1.0  0.5321799999999999  0.14648999999999998  0.41873000000000005  1.0000
  H   H64       1.0  0.51543  0.19196  0.4683300000000001  1.0000
  H   H65       1.0  0.17353000000000007  0.6189199999999998  0.65577  1.0000
  H   H66       1.0  0.36655999999999994  0.61387  0.50974  1.0000
  H   H67       1.0  0.05781999999999997  0.7531900000000001  0.55599  1.0000
  H   H68       1.0  0.06583000000000017  0.6644199999999998  0.58642  1.0000
  H   H69       1.0  0.061900000000000004  0.7051  0.63344  1.0000
  H   H70       1.0  0.36704  0.6592599999999998  0.40281999999999996  1.0000
  H   H71       1.0  0.28748999999999997  0.70421  0.38193000000000005  1.0000
  H   H72       1.0  0.31624  0.7487900000000001  0.40066  1.0000
  H   H73       1.0  0.10255000000000003  0.7024099999999999  0.37072  1.0000
  H   H74       1.0  0.07253000000000004  0.9014199999999999  0.37181  1.0000
  H   H75       1.0  0.15352000000000007  0.5973799999999999  0.50242  1.0000
  H   H76       1.0  0.2357  0.59542  0.44728  1.0000
  H   H77       1.0  0.17107999999999995  0.59496  0.42745  1.0000
  H   H78       1.0  0.09988999999999995  0.8668  0.49522000000000005  1.0000
  H   H79       1.0  0.14628  0.90285  0.41855  1.0000
  H   H80       1.0  0.19180999999999995  0.82402  0.46809  1.0000
  H   H81       1.0  0.61874  0.55171  0.65575  1.0000
  H   H82       1.0  0.61393  0.51002  0.50986  1.0000
  H   H83       1.0  0.75306  0.63276  0.55578  1.0000
  H   H84       1.0  0.66421  0.6832599999999999  0.58617  1.0000
  H   H85       1.0  0.70502  0.5992  0.63328  1.0000
  H   H86       1.0  0.6593300000000001  0.57102  0.40304  1.0000
  H   H87       1.0  0.7041800000000001  0.6265599999999999  0.38194999999999996  1.0000
  H   H88       1.0  0.7489100000000001  0.53423  0.40077999999999997  1.0000
  H   H89       1.0  0.7021900000000002  0.8248399999999999  0.37053  1.0000
  H   H90       1.0  0.9013199999999999  0.6541299999999999  0.37194000000000005  1.0000
  H   H91       1.0  0.5974599999999998  0.74674  0.50228  1.0000
  H   H92       1.0  0.5956500000000001  0.7216699999999999  0.44719  1.0000
  H   H93       1.0  0.59469  0.80691  0.42736  1.0000
  H   H94       1.0  0.86699  0.53753  0.49533  1.0000
  H   H95       1.0  0.90313  0.53176  0.41872000000000004  1.0000
  H   H96       1.0  0.82439  0.51555  0.46828  1.0000
  H   H97       1.0  0.44810000000000005  0.82652  0.34427  1.0000
  H   H98       1.0  0.4901200000000001  0.63336  0.49031  1.0000
  H   H99       1.0  0.36694999999999983  0.94215  0.44395000000000007  1.0000
  H   H100      1.0  0.31659  0.9343099999999999  0.41361  1.0000
  H   H101      1.0  0.4005099999999999  0.93815  0.36649  1.0000
  H   H102      1.0  0.42926000000000003  0.63293  0.59722  1.0000
  H   H103      1.0  0.3735300000000001  0.7125699999999999  0.61797  1.0000
  H   H104      1.0  0.4658300000000001  0.6835799999999999  0.59924  1.0000
  H   H105      1.0  0.17522000000000001  0.89768  0.62952  1.0000
  H   H106      1.0  0.3457  0.92719  0.62796  1.0000
  H   H107      1.0  0.2533499999999999  0.8467500000000001  0.49777999999999994  1.0000
  H   H108      1.0  0.27858000000000016  0.7645200000000001  0.55295  1.0000
  H   H109      1.0  0.19329  0.82923  0.57278  1.0000
  H   H110      1.0  0.4622300000000001  0.8999699999999999  0.50458  1.0000
  H   H111      1.0  0.46781000000000006  0.8535099999999999  0.58127  1.0000
  H   H112      1.0  0.48456000000000005  0.8080399999999999  0.53167  1.0000
  H   H113      1.0  0.82646  0.38108  0.34424  1.0000
  H   H114      1.0  0.63344  0.3861299999999999  0.49026000000000003  1.0000
  H   H115      1.0  0.9421700000000001  0.24680999999999995  0.44401000000000007  1.0000
  H   H116      1.0  0.93416  0.33559000000000005  0.41358  1.0000
  H   H117      1.0  0.9381000000000002  0.2948999999999999  0.36656  1.0000
  H   H118      1.0  0.6329600000000002  0.34075  0.59718  1.0000
  H   H119      1.0  0.7125  0.29579  0.61807  1.0000
  H   H120      1.0  0.6837500000000001  0.25120999999999993  0.59934  1.0000
  H   H121      1.0  0.89745  0.29759  0.62929  1.0000
  H   H122      1.0  0.92747  0.09858999999999993  0.62819  1.0000
  H   H123      1.0  0.84647  0.40262  0.4975800000000001  1.0000
  H   H124      1.0  0.7642900000000001  0.40459  0.55272  1.0000
  H   H125      1.0  0.82892  0.40504  0.57255  1.0000
  H   H126      1.0  0.9001  0.13319999999999999  0.50478  1.0000
  H   H127      1.0  0.85372  0.09714999999999997  0.58145  1.0000
  H   H128      1.0  0.80818  0.17599  0.53191  1.0000
  H   H129      1.0  0.38124999999999976  0.44829  0.34425  1.0000
  H   H130      1.0  0.3860699999999998  0.48999  0.4901400000000001  1.0000
  H   H131      1.0  0.24694000000000002  0.36724  0.44422  1.0000
  H   H132      1.0  0.3357799999999999  0.31674  0.41383000000000003  1.0000
  H   H133      1.0  0.29496999999999995  0.4008  0.36672  1.0000
  H   H134      1.0  0.34066  0.42898  0.59696  1.0000
  H   H135      1.0  0.2958099999999999  0.37344  0.61805  1.0000
  H   H136      1.0  0.25109000000000004  0.46576999999999996  0.59922  1.0000
  H   H137      1.0  0.29781  0.17517  0.62947  1.0000
  H   H138      1.0  0.09867  0.34587  0.62806  1.0000
  H   H139      1.0  0.4025399999999999  0.25327  0.49772000000000005  1.0000
  H   H140      1.0  0.40435000000000004  0.27834  0.55281  1.0000
  H   H141      1.0  0.40530999999999995  0.1931  0.57264  1.0000
  H   H142      1.0  0.133  0.46246999999999994  0.50467  1.0000
  H   H143      1.0  0.09686999999999997  0.46823999999999993  0.58128  1.0000
  H   H144      1.0  0.17560000000000006  0.48445  0.53172  1.0000
  H   H145      1.0  0.8810600000000002  0.32650999999999997  0.84425  1.0000
  H   H146      1.0  0.8861099999999997  0.13344  0.9902900000000001  1.0000
  H   H147      1.0  0.74681  0.4422  0.94399  1.0000
  H   H148      1.0  0.8355800000000002  0.43419  0.91356  1.0000
  H   H149      1.0  0.7948900000000002  0.43814999999999993  0.86654  1.0000
  H   H150      1.0  0.84074  0.13292  0.09721000000000002  1.0000
  H   H151      1.0  0.7958100000000001  0.21247  0.11807  1.0000
  H   H152      1.0  0.7512300000000002  0.18371999999999997  0.09933000000000002  1.0000
  H   H153      1.0  0.79761  0.39743999999999996  0.12927  1.0000
  H   H154      1.0  0.5986100000000002  0.42743999999999993  0.12816  1.0000
  H   H155      1.0  0.9025800000000002  0.34651000000000004  0.9975899999999999  1.0000
  H   H156      1.0  0.9045600000000001  0.2642999999999999  0.05275  1.0000
  H   H157      1.0  0.90503  0.32892999999999994  0.07256  1.0000
  H   H158      1.0  0.6331799999999999  0.40011  0.00478  1.0000
  H   H159      1.0  0.5971500000000002  0.35372  0.08144  1.0000
  H   H160      1.0  0.6759700000000002  0.30818  0.03191  1.0000
  H   H161      1.0  0.94829  0.88125  0.84425  1.0000
  H   H162      1.0  0.98997  0.8860699999999999  0.99014  1.0000
  H   H163      1.0  0.8672400000000006  0.74694  0.94422  1.0000
  H   H164      1.0  0.81673  0.83578  0.9138100000000001  1.0000
  H   H165      1.0  0.9007900000000002  0.79498  0.86672  1.0000
  H   H166      1.0  0.9289700000000002  0.84066  0.09696000000000002  1.0000
  H   H167      1.0  0.87344  0.7958099999999999  0.11806  1.0000
  H   H168      1.0  0.96576  0.75108  0.09925  1.0000
  H   H169      1.0  0.6751800000000001  0.7978099999999999  0.12946  1.0000
  H   H170      1.0  0.84586  0.5986599999999999  0.12807  1.0000
  H   H171      1.0  0.7532599999999999  0.90258  0.99771  1.0000
  H   H172      1.0  0.77833  0.9043699999999999  0.05278999999999999  1.0000
  H   H173      1.0  0.6930999999999999  0.90532  0.07263  1.0000
  H   H174      1.0  0.96241  0.63302  0.00469  1.0000
  H   H175      1.0  0.96822  0.59686  0.0813  1.0000
  H   H176      1.0  0.98441  0.67562  0.03174  1.0000
  H   H177      1.0  0.32646999999999987  0.9481299999999998  0.8442600000000001  1.0000
  H   H178      1.0  0.13334999999999994  0.9901399999999999  0.99027  1.0000
  H   H179      1.0  0.44212999999999997  0.86695  0.94397  1.0000
  H   H180      1.0  0.4342600000000001  0.8165999999999999  0.91365  1.0000
  H   H181      1.0  0.4381  0.9005399999999999  0.86651  1.0000
  H   H182      1.0  0.13296000000000002  0.9292599999999999  0.09718  1.0000
  H   H183      1.0  0.2126000000000001  0.87352  0.11796000000000001  1.0000
  H   H184      1.0  0.18362000000000003  0.96583  0.09922  1.0000
  H   H185      1.0  0.39770000000000005  0.6751999999999999  0.12955  1.0000
  H   H186      1.0  0.4272000000000001  0.84568  0.12798  1.0000
  H   H187      1.0  0.3467300000000001  0.7533799999999998  0.99778  1.0000
  H   H188      1.0  0.26451  0.7786  0.05294  1.0000
  H   H189      1.0  0.32923000000000024  0.6933099999999999  0.07279  1.0000
  H   H190      1.0  0.39994  0.96227  0.00457  1.0000
  H   H191      1.0  0.3535  0.96783  0.08126  1.0000
  H   H192      1.0  0.3080399999999999  0.9845799999999999  0.03165  1.0000
  C   C1        1.0  0.06014000000000004  0.8152299999999999  0.13156  1.0000
  C   C2        1.0  0.11108000000000003  0.77393  0.08697  1.0000
  C   C3        1.0  0.13523000000000002  0.70032  0.10661  1.0000
  C   C4        1.0  0.1782700000000001  0.6620099999999999  0.06374  1.0000
  C   C5        1.0  0.19714000000000012  0.6987099999999999  0.99998  1.0000
  C   C6        1.0  0.17554999999999998  0.7728699999999998  0.98002  1.0000
  C   C7        1.0  0.13240000000000005  0.8094599999999998  0.024080000000000004  1.0000
  C   C8        1.0  0.20178000000000004  0.58274  0.08604  1.0000
  C   C9        1.0  0.19779000000000013  0.81302  0.91274  1.0000
  C   C10       1.0  0.3413900000000001  0.53921  0.8245000000000001  1.0000
  C   C11       1.0  0.3054299999999999  0.5826300000000001  0.86767  1.0000
  C   C12       1.0  0.23176  0.61117  0.8882800000000001  1.0000
  C   C13       1.0  0.19638000000000003  0.6494699999999998  0.9307900000000001  1.0000
  C   C14       1.0  0.23615000000000005  0.6593  0.95315  1.0000
  C   C15       1.0  0.3103800000000001  0.63248  0.93141  1.0000
  C   C16       1.0  0.3442299999999999  0.5942000000000001  0.88883  1.0000
  C   C17       1.0  0.11702999999999993  0.67906  0.9528000000000001  1.0000
  C   C18       1.0  0.35328  0.6434299999999998  0.95429  1.0000
  C   C19       1.0  0.99316  0.060070000000000005  0.13166  1.0000
  C   C20       1.0  0.028040000000000027  0.11105999999999999  0.08703  1.0000
  C   C21       1.0  0.05772000000000004  0.13517999999999997  0.10662  1.0000
  C   C22       1.0  0.09579999999999995  0.17828999999999998  0.06368  1.0000
  C   C23       1.0  0.10404000000000001  0.19724999999999998  0.99996  1.0000
  C   C24       1.0  0.07152999999999995  0.17569999999999997  0.98007  1.0000
  C   C25       1.0  0.034129999999999994  0.13246  0.024180000000000004  1.0000
  C   C26       1.0  0.12924  0.20169  0.08587  1.0000
  C   C27       1.0  0.07650999999999993  0.19790999999999995  0.9128400000000001  1.0000
  C   C28       1.0  0.29518999999999995  0.34114999999999995  0.8244800000000001  1.0000
  C   C29       1.0  0.24445000000000017  0.30528999999999995  0.86762  1.0000
  C   C30       1.0  0.26909  0.23160999999999998  0.8881300000000001  1.0000
  C   C31       1.0  0.22351999999999997  0.19635  0.9306400000000001  1.0000
  C   C32       1.0  0.15133000000000008  0.23623000000000002  0.95307  1.0000
  C   C33       1.0  0.12555000000000002  0.31047  0.93141  1.0000
  C   C34       1.0  0.17271999999999998  0.34420000000000006  0.88884  1.0000
  C   C35       1.0  0.25130000000000013  0.117  0.9526899999999999  1.0000
  C   C36       1.0  0.04860000000000001  0.3535299999999999  0.95438  1.0000
  C   C37       1.0  0.81525  0.99327  0.13153  1.0000
  C   C38       1.0  0.77397  0.02799  0.08699  1.0000
  C   C39       1.0  0.70035  0.05773999999999999  0.10663  1.0000
  C   C40       1.0  0.66203  0.09578  0.06378  1.0000
  C   C41       1.0  0.69873  0.10396000000000001  5e-05  1.0000
  C   C42       1.0  0.7729100000000001  0.07137999999999997  0.9801  1.0000
  C   C43       1.0  0.80952  0.03396999999999999  0.024120000000000003  1.0000
  C   C44       1.0  0.58275  0.12939  0.08603  1.0000
  C   C45       1.0  0.81301  0.07635999999999996  0.9128300000000001  1.0000
  C   C46       1.0  0.53922  0.2951999999999999  0.8244600000000001  1.0000
  C   C47       1.0  0.5826399999999999  0.24451  0.86767  1.0000
  C   C48       1.0  0.6110500000000001  0.26909999999999995  0.8881300000000001  1.0000
  C   C49       1.0  0.6493300000000004  0.22346999999999995  0.93068  1.0000
  C   C50       1.0  0.6592900000000002  0.1513  0.95321  1.0000
  C   C51       1.0  0.63259  0.12560000000000002  0.9316  1.0000
  C   C52       1.0  0.5943299999999999  0.17280999999999994  0.8889800000000001  1.0000
  C   C53       1.0  0.6788400000000002  0.25113  0.9526200000000001  1.0000
  C   C54       1.0  0.6435900000000002  0.04869000000000003  0.95451  1.0000
  C   C55       1.0  0.49328000000000005  0.31523  0.63151  1.0000
  C   C56       1.0  0.52801  0.2739599999999999  0.58698  1.0000
  C   C57       1.0  0.55776  0.20034000000000002  0.60662  1.0000
  C   C58       1.0  0.5958  0.16200999999999996  0.56378  1.0000
  C   C59       1.0  0.6039599999999999  0.19873000000000002  0.50005  1.0000
  C   C60       1.0  0.57139  0.27291  0.48008  1.0000
  C   C61       1.0  0.53399  0.30952  0.52411  1.0000
  C   C62       1.0  0.62939  0.08271999999999999  0.58606  1.0000
  C   C63       1.0  0.5763500000000001  0.3130399999999999  0.41281  1.0000
  C   C64       1.0  0.79517  0.03923999999999998  0.32449  1.0000
  C   C65       1.0  0.74448  0.08265999999999998  0.36769  1.0000
  C   C66       1.0  0.76908  0.11106999999999996  0.38815  1.0000
  C   C67       1.0  0.7234600000000002  0.14933999999999997  0.4307  1.0000
  C   C68       1.0  0.6513  0.15929999999999997  0.45321  1.0000
  C   C69       1.0  0.62559  0.1326  0.43160000000000004  1.0000
  C   C70       1.0  0.67279  0.09433999999999998  0.38899  1.0000
  C   C71       1.0  0.75114  0.17883999999999997  0.45262  1.0000
  C   C72       1.0  0.5487000000000001  0.14359  0.45449999999999996  1.0000
  C   C73       1.0  0.3152499999999999  0.56013  0.63158  1.0000
  C   C74       1.0  0.2739400000000001  0.61108  0.58698  1.0000
  C   C75       1.0  0.20033999999999988  0.63523  0.60661  1.0000
  C   C76       1.0  0.16202000000000005  0.6782699999999998  0.56373  1.0000
  C   C77       1.0  0.19871  0.69715  0.49998  1.0000
  C   C78       1.0  0.27285000000000004  0.67556  0.48003  1.0000
  C   C79       1.0  0.30946000000000007  0.6323999999999997  0.52409  1.0000
  C   C80       1.0  0.0827500000000001  0.70178  0.58602  1.0000
  C   C81       1.0  0.31298999999999993  0.69781  0.41275000000000006  1.0000
  C   C82       1.0  0.039180000000000076  0.8414299999999999  0.32447  1.0000
  C   C83       1.0  0.08261  0.8054599999999998  0.36765  1.0000
  C   C84       1.0  0.11116999999999999  0.73178  0.38827  1.0000
  C   C85       1.0  0.1494599999999999  0.69639  0.43079  1.0000
  C   C86       1.0  0.1592899999999999  0.73617  0.45314  1.0000
  C   C87       1.0  0.13246999999999995  0.8104  0.43139  1.0000
  C   C88       1.0  0.09418000000000004  0.84426  0.38881  1.0000
  C   C89       1.0  0.17907000000000015  0.61703  0.45281  1.0000
  C   C90       1.0  0.1434200000000001  0.8532899999999999  0.45428  1.0000
  C   C91       1.0  0.56006  0.49317  0.63166  1.0000
  C   C92       1.0  0.6110600000000002  0.52803  0.58704  1.0000
  C   C93       1.0  0.63519  0.5577200000000001  0.60662  1.0000
  C   C94       1.0  0.6783000000000002  0.59578  0.56369  1.0000
  C   C95       1.0  0.69724  0.60404  0.49996  1.0000
  C   C96       1.0  0.67568  0.57153  0.48008  1.0000
  C   C97       1.0  0.6324599999999998  0.53412  0.52418  1.0000
  C   C98       1.0  0.7016900000000001  0.6292299999999998  0.58586  1.0000
  C   C99       1.0  0.6978999999999997  0.5765100000000001  0.41285  1.0000
  C   C100      1.0  0.8411299999999999  0.7952199999999999  0.32448  1.0000
  C   C101      1.0  0.80528  0.74447  0.36762  1.0000
  C   C102      1.0  0.7316  0.76911  0.38812  1.0000
  C   C103      1.0  0.6963499999999999  0.7235300000000001  0.43062999999999996  1.0000
  C   C104      1.0  0.7362199999999999  0.65134  0.45307000000000003  1.0000
  C   C105      1.0  0.81046  0.6255499999999999  0.43142  1.0000
  C   C106      1.0  0.84418  0.67273  0.3888400000000001  1.0000
  C   C107      1.0  0.617  0.75131  0.45268  1.0000
  C   C108      1.0  0.85352  0.54858  0.4544000000000001  1.0000
  C   C109      1.0  0.50671  0.68477  0.36849  1.0000
  C   C110      1.0  0.47199  0.72604  0.41302  1.0000
  C   C111      1.0  0.44223  0.79967  0.39337999999999995  1.0000
  C   C112      1.0  0.40419000000000016  0.8379899999999999  0.43622  1.0000
  C   C113      1.0  0.39603000000000005  0.80127  0.49995  1.0000
  C   C114      1.0  0.42861000000000016  0.7270899999999998  0.51992  1.0000
  C   C115      1.0  0.46601000000000004  0.69048  0.47589000000000004  1.0000
  C   C116      1.0  0.3705999999999999  0.91728  0.41394  1.0000
  C   C117      1.0  0.42363999999999996  0.68696  0.58719  1.0000
  C   C118      1.0  0.20483000000000004  0.96076  0.67551  1.0000
  C   C119      1.0  0.2555100000000001  0.9173399999999999  0.63231  1.0000
  C   C120      1.0  0.2309100000000001  0.88893  0.61185  1.0000
  C   C121      1.0  0.27653  0.8506599999999999  0.5693  1.0000
  C   C122      1.0  0.34868999999999994  0.8407100000000001  0.54679  1.0000
  C   C123      1.0  0.3744  0.8674099999999999  0.5684  1.0000
  C   C124      1.0  0.3272000000000001  0.9056599999999999  0.61101  1.0000
  C   C125      1.0  0.24885000000000015  0.8211599999999999  0.54738  1.0000
  C   C126      1.0  0.45130000000000003  0.8564099999999999  0.5455  1.0000
  C   C127      1.0  0.68474  0.43987000000000004  0.36842  1.0000
  C   C128      1.0  0.72605  0.38892  0.41302  1.0000
  C   C129      1.0  0.79966  0.36477  0.39339  1.0000
  C   C130      1.0  0.83797  0.32173  0.43627  1.0000
  C   C131      1.0  0.80129  0.30285  0.50002  1.0000
  C   C132      1.0  0.7271400000000001  0.3244399999999999  0.51997  1.0000
  C   C133      1.0  0.69054  0.36759999999999987  0.47590999999999994  1.0000
  C   C134      1.0  0.9172400000000002  0.29822  0.41398  1.0000
  C   C135      1.0  0.68701  0.30219  0.58725  1.0000
  C   C136      1.0  0.96081  0.15856999999999993  0.67553  1.0000
  C   C137      1.0  0.91738  0.19453999999999996  0.63235  1.0000
  C   C138      1.0  0.88883  0.26822999999999997  0.61173  1.0000
  C   C139      1.0  0.8505400000000001  0.30362000000000006  0.56921  1.0000
  C   C140      1.0  0.8407100000000001  0.26383  0.54686  1.0000
  C   C141      1.0  0.86753  0.1896  0.56861  1.0000
  C   C142      1.0  0.90582  0.15574  0.61119  1.0000
  C   C143      1.0  0.8209299999999997  0.38298000000000004  0.54719  1.0000
  C   C144      1.0  0.85657  0.14671000000000003  0.54572  1.0000
  C   C145      1.0  0.43993999999999966  0.50683  0.36834  1.0000
  C   C146      1.0  0.3889400000000001  0.47196999999999983  0.41297  1.0000
  C   C147      1.0  0.36481  0.44227999999999995  0.39337999999999995  1.0000
  C   C148      1.0  0.3216999999999999  0.40422  0.43631  1.0000
  C   C149      1.0  0.30275000000000013  0.3959599999999999  0.50004  1.0000
  C   C150      1.0  0.32431  0.42846999999999996  0.51992  1.0000
  C   C151      1.0  0.36754000000000003  0.46588999999999997  0.4758200000000001  1.0000
  C   C152      1.0  0.29829999999999995  0.37076999999999993  0.41414000000000006  1.0000
  C   C153      1.0  0.30209  0.4235  0.58715  1.0000
  C   C154      1.0  0.15887000000000007  0.20477999999999996  0.67552  1.0000
  C   C155      1.0  0.19472000000000006  0.2555399999999999  0.63238  1.0000
  C   C156      1.0  0.26839  0.23088999999999998  0.61188  1.0000
  C   C157      1.0  0.30365  0.27647  0.56937  1.0000
  C   C158      1.0  0.26376999999999995  0.34866  0.54693  1.0000
  C   C159      1.0  0.18954000000000007  0.3744499999999999  0.56858  1.0000
  C   C160      1.0  0.15582  0.32727000000000006  0.61116  1.0000
  C   C161      1.0  0.38298999999999994  0.24869000000000002  0.54733  1.0000
  C   C162      1.0  0.14646999999999996  0.45142  0.54561  1.0000
  C   C163      1.0  0.9398500000000001  0.18476999999999996  0.86844  1.0000
  C   C164      1.0  0.8889100000000001  0.22607000000000002  0.9130299999999999  1.0000
  C   C165      1.0  0.8647599999999999  0.29967999999999995  0.89339  1.0000
  C   C166      1.0  0.82172  0.33798999999999996  0.93626  1.0000
  C   C167      1.0  0.80285  0.30129  2e-05  1.0000
  C   C168      1.0  0.8244500000000001  0.22713999999999998  0.01998  1.0000
  C   C169      1.0  0.86759  0.19053999999999996  0.97592  1.0000
  C   C170      1.0  0.79821  0.41726999999999986  0.9139600000000001  1.0000
  C   C171      1.0  0.8022000000000001  0.18698  0.08726  1.0000
  C   C172      1.0  0.6586000000000002  0.4608  0.1755  1.0000
  C   C173      1.0  0.6945600000000001  0.41736999999999996  0.13233  1.0000
  C   C174      1.0  0.7682400000000003  0.3888299999999999  0.11172  1.0000
  C   C175      1.0  0.80362  0.35053  0.06921  1.0000
  C   C176      1.0  0.76384  0.34071  0.04685  1.0000
  C   C177      1.0  0.68961  0.36753  0.06859  1.0000
  C   C178      1.0  0.65576  0.40580000000000005  0.11117  1.0000
  C   C179      1.0  0.88296  0.32094  0.0472  1.0000
  C   C180      1.0  0.6467100000000001  0.35658  0.04571  1.0000
  C   C181      1.0  0.006830000000000142  0.93993  0.8683399999999999  1.0000
  C   C182      1.0  0.9719599999999998  0.8889399999999996  0.9129700000000001  1.0000
  C   C183      1.0  0.9422700000000002  0.86482  0.89338  1.0000
  C   C184      1.0  0.9042  0.8217199999999999  0.93632  1.0000
  C   C185      1.0  0.89595  0.80275  4e-05  1.0000
  C   C186      1.0  0.92846  0.8242999999999999  0.01993  1.0000
  C   C187      1.0  0.9658700000000002  0.86755  0.97582  1.0000
  C   C188      1.0  0.87075  0.7983099999999999  0.91413  1.0000
  C   C189      1.0  0.92349  0.8020900000000001  0.08716  1.0000
  C   C190      1.0  0.7048  0.65886  0.17552  1.0000
  C   C191      1.0  0.7555399999999999  0.69471  0.13238  1.0000
  C   C192      1.0  0.7309000000000001  0.76839  0.11188000000000001  1.0000
  C   C193      1.0  0.77647  0.80365  0.06936  1.0000
  C   C194      1.0  0.8486600000000001  0.76377  0.046930000000000006  1.0000
  C   C195      1.0  0.8744400000000001  0.68953  0.06859  1.0000
  C   C196      1.0  0.8272699999999998  0.6558  0.11116000000000001  1.0000
  C   C197      1.0  0.74869  0.8830099999999999  0.047310000000000005  1.0000
  C   C198      1.0  0.9514000000000001  0.64647  0.04562  1.0000
  C   C199      1.0  0.18475  0.0067300000000000155  0.86847  1.0000
  C   C200      1.0  0.22601999999999997  0.9720199999999999  0.9130100000000001  1.0000
  C   C201      1.0  0.2996399999999999  0.94226  0.89337  1.0000
  C   C202      1.0  0.33796999999999994  0.90422  0.93622  1.0000
  C   C203      1.0  0.3012600000000001  0.89604  0.99995  1.0000
  C   C204      1.0  0.22709  0.92862  0.0199  1.0000
  C   C205      1.0  0.19047000000000008  0.9660299999999999  0.97588  1.0000
  C   C206      1.0  0.41724999999999984  0.87062  0.9139700000000001  1.0000
  C   C207      1.0  0.18698  0.92364  0.08717  1.0000
  C   C208      1.0  0.46078  0.7048  0.17554  1.0000
  C   C209      1.0  0.4173499999999999  0.7555  0.13233  1.0000
  C   C210      1.0  0.38894000000000006  0.7309  0.11187000000000001  1.0000
  C   C211      1.0  0.35066  0.7765299999999999  0.06932  1.0000
  C   C212      1.0  0.3407  0.8486999999999999  0.04679  1.0000
  C   C213      1.0  0.36741  0.8744  0.0684  1.0000
  C   C214      1.0  0.40566  0.8271999999999999  0.11102000000000001  1.0000
  C   C215      1.0  0.32115000000000016  0.7488699999999999  0.04737999999999999  1.0000
  C   C216      1.0  0.35639999999999994  0.95131  0.04549  1.0000
  O   O1        1.0  0.038989999999999976  0.78149  0.18835  1.0000
  O   O2        1.0  0.040130000000000034  0.8824399999999999  0.10893  1.0000
  O   O3        1.0  0.4088100000000001  0.51285  0.80806  1.0000
  O   O4        1.0  0.30144999999999994  0.53134  0.8079  1.0000
  O   O5        1.0  0.99144  0.038689999999999995  0.18835  1.0000
  O   O6        1.0  0.9685600000000001  0.04021  0.10909  1.0000
  O   O7        1.0  0.27051  0.40856  0.8083200000000001  1.0000
  O   O8        1.0  0.35974999999999996  0.30107999999999996  0.8077000000000001  1.0000
  O   O9        1.0  0.78158  0.9916999999999998  0.18822000000000003  1.0000
  O   O10       1.0  0.8824600000000004  0.9686099999999999  0.10887  1.0000
  O   O11       1.0  0.5129  0.2705000000000001  0.80824  1.0000
  O   O12       1.0  0.53132  0.35974  0.8076399999999999  1.0000
  O   O13       1.0  0.49168  0.28155  0.68822  1.0000
  O   O14       1.0  0.46864  0.38245  0.60884  1.0000
  O   O15       1.0  0.77045  0.012919999999999989  0.30828  1.0000
  O   O16       1.0  0.8597  0.03135  0.30767  1.0000
  O   O17       1.0  0.28151000000000004  0.53898  0.68836  1.0000
  O   O18       1.0  0.38245000000000007  0.54012  0.60896  1.0000
  O   O19       1.0  0.012810000000000083  0.9088599999999999  0.30804  1.0000
  O   O20       1.0  0.031320000000000056  0.80148  0.30786  1.0000
  O   O21       1.0  0.5386600000000001  0.49147999999999986  0.68834  1.0000
  O   O22       1.0  0.5402100000000002  0.46855  0.60909  1.0000
  O   O23       1.0  0.9085399999999999  0.77052  0.30831  1.0000
  O   O24       1.0  0.8010699999999997  0.85978  0.3077  1.0000
  O   O25       1.0  0.9223699999999999  0.92238  0.23274  1.0000
  O   O26       1.0  0.42238000000000003  0.42237  0.73274  1.0000
  O   O27       1.0  0.5083099999999999  0.71845  0.31178  1.0000
  O   O28       1.0  0.53136  0.61755  0.39116  1.0000
  O   O29       1.0  0.22954000000000013  0.9870799999999998  0.69172  1.0000
  O   O30       1.0  0.14029000000000003  0.96865  0.69234  1.0000
  O   O31       1.0  0.71848  0.46101999999999993  0.31164  1.0000
  O   O32       1.0  0.6175500000000003  0.45988999999999997  0.39104  1.0000
  O   O33       1.0  0.98718  0.09114999999999994  0.69196  1.0000
  O   O34       1.0  0.96867  0.19851999999999995  0.69214  1.0000
  O   O35       1.0  0.46134000000000003  0.50852  0.31166  1.0000
  O   O36       1.0  0.4597800000000001  0.5314499999999999  0.39091000000000004  1.0000
  O   O37       1.0  0.09145000000000005  0.22947999999999993  0.69169  1.0000
  O   O38       1.0  0.19892000000000007  0.14022000000000004  0.6923  1.0000
  O   O39       1.0  0.9610000000000001  0.21850999999999995  0.81166  1.0000
  O   O40       1.0  0.9598600000000003  0.11756000000000003  0.8910699999999999  1.0000
  O   O41       1.0  0.5911800000000001  0.48714999999999997  0.19194000000000003  1.0000
  O   O42       1.0  0.6985500000000001  0.4686699999999999  0.1921  1.0000
  O   O43       1.0  0.00856000000000009  0.9613099999999999  0.8116500000000001  1.0000
  O   O44       1.0  0.031429999999999916  0.95979  0.89091  1.0000
  O   O45       1.0  0.72949  0.5914399999999999  0.19168  1.0000
  O   O46       1.0  0.64025  0.6989199999999999  0.1923  1.0000
  O   O47       1.0  0.21842  0.00829999999999995  0.8117800000000001  1.0000
  O   O48       1.0  0.11752999999999991  0.03139999999999997  0.8911300000000001  1.0000
  O   O49       1.0  0.4870900000000001  0.72951  0.19176  1.0000
  O   O50       1.0  0.46867000000000003  0.6402599999999999  0.19236  1.0000
  O   O51       1.0  0.5776099999999998  0.57763  0.26726  1.0000
  O   O52       1.0  0.07761999999999994  0.07762000000000001  0.76726  1.0000
