data_image0
_chemical_formula_structural       Cu6H168C216N24O48
_chemical_formula_sum              "Cu6 H168 C216 N24 O48"
_cell_length_a       20.565
_cell_length_b       23.962439999999997
_cell_length_c       22.6699
_cell_angle_alpha    69.66399
_cell_angle_beta     62.94937
_cell_angle_gamma    64.50285

_space_group_name_H-M_alt    "P 1"
_space_group_IT_number       1

loop_
  _space_group_symop_operation_xyz
  'x, y, z'

loop_
  _atom_site_type_symbol
  _atom_site_label
  _atom_site_symmetry_multiplicity
  _atom_site_fract_x
  _atom_site_fract_y
  _atom_site_fract_z
  _atom_site_occupancy
  Cu  Cu1       1.0  0.26136999999999994  0.6112399999999999  0.89297  1.0000
  Cu  Cu2       1.0  0.7654099999999999  0.8888  0.6066599999999999  1.0000
  Cu  Cu3       1.0  0.7386299999999999  0.38876000000000005  0.10702999999999999  1.0000
  Cu  Cu4       1.0  0.23459  0.11120000000000001  0.39333999999999997  1.0000
  Cu  Cu5       1.0  0.7490900000000001  0.7499900000000002  0.25006  1.0000
  Cu  Cu6       1.0  0.25091  0.25001000000000007  0.7499499999999999  1.0000
  H   H1        1.0  0.9288099999999999  0.70797  0.15426999999999996  1.0000
  H   H2        1.0  0.028130000000000033  0.76202  0.09791999999999997  1.0000
  H   H3        1.0  0.8445599999999999  0.93403  0.15155  1.0000
  H   H4        1.0  0.7516899999999999  0.87428  0.20315  1.0000
  H   H5        1.0  0.0980599999999998  0.9252100000000003  0.9702299999999999  1.0000
  H   H6        1.0  0.17573000000000008  0.85592  0.98452  1.0000
  H   H7        1.0  0.8015  0.24187000000000003  0.11541  1.0000
  H   H8        1.0  0.9321400000000001  0.16604  0.06841  1.0000
  H   H9        1.0  0.026019999999999977  0.31487000000000004  0.01338  1.0000
  H   H10       1.0  0.8913699999999999  0.38448  0.06555  1.0000
  H   H11       1.0  0.17958999999999997  0.09301000000000002  0.95231  1.0000
  H   H12       1.0  0.19001999999999997  0.10026000000000002  0.022759999999999996  1.0000
  H   H13       1.0  0.18982  0.0027199999999999993  0.4443  1.0000
  H   H14       1.0  0.1863199999999998  0.9191600000000002  0.40419  1.0000
  H   H15       1.0  0.23197  0.03524000000000001  0.20517999999999997  1.0000
  H   H16       1.0  0.23902999999999996  0.11144999999999997  0.25153  1.0000
  H   H17       1.0  0.1401699999999999  0.8826800000000002  0.23558999999999997  1.0000
  H   H18       1.0  0.23880000000000012  0.85521  0.18518999999999997  1.0000
  H   H19       1.0  0.15571000000000004  0.84921  0.12416  1.0000
  H   H20       1.0  0.12178999999999998  0.011270000000000007  0.9677299999999999  1.0000
  H   H21       1.0  0.18250999999999995  0.018040000000000004  0.12283  1.0000
  H   H22       1.0  0.68291  0.69023  0.38795999999999997  1.0000
  H   H23       1.0  0.58487  0.6356400000000001  0.4550799999999999  1.0000
  H   H24       1.0  0.59094  0.62168  0.26769  1.0000
  H   H25       1.0  0.6880499999999999  0.67797  0.20738  1.0000
  H   H26       1.0  0.47562  0.49551  0.44578999999999996  1.0000
  H   H27       1.0  0.4615599999999998  0.50997  0.36862999999999996  1.0000
  H   H28       1.0  0.83705  0.8668  0.45761  1.0000
  H   H29       1.0  0.9698799999999997  0.80565  0.39009  1.0000
  H   H30       1.0  0.05330999999999993  0.82428  0.52353  1.0000
  H   H31       1.0  0.9181999999999997  0.8834300000000003  0.58603  1.0000
  H   H32       1.0  0.26654999999999995  0.7630400000000002  0.3947799999999999  1.0000
  H   H33       1.0  0.2393800000000001  0.73586  0.34852  1.0000
  H   H34       1.0  0.2517700000000001  0.47568000000000005  0.89214  1.0000
  H   H35       1.0  0.2403899999999999  0.43931  0.80715  1.0000
  H   H36       1.0  0.19579000000000005  0.6308200000000002  0.6975599999999997  1.0000
  H   H37       1.0  0.20417999999999975  0.6602100000000002  0.78848  1.0000
  H   H38       1.0  0.13334000000000001  0.56697  0.5906699999999999  1.0000
  H   H39       1.0  0.21254  0.49567000000000005  0.59248  1.0000
  H   H40       1.0  0.38028999999999996  0.65495  0.36233  1.0000
  H   H41       1.0  0.15435999999999997  0.66503  0.51344  1.0000
  H   H42       1.0  0.3468699999999998  0.4950000000000001  0.5200999999999999  1.0000
  H   H43       1.0  0.7913199999999999  0.7919  0.34461999999999987  1.0000
  H   H44       1.0  0.8878299999999998  0.7380000000000002  0.40133  1.0000
  H   H45       1.0  0.93052  0.56566  0.34841  1.0000
  H   H46       1.0  0.8297299999999997  0.6253100000000001  0.29643  1.0000
  H   H47       1.0  0.9929999999999999  0.57537  0.53023  1.0000
  H   H48       1.0  0.015349999999999914  0.6450100000000001  0.51487  1.0000
  H   H49       1.0  0.15949999999999998  0.2582  0.38427  1.0000
  H   H50       1.0  0.16612  0.33408  0.4316599999999999  1.0000
  H   H51       1.0  0.35508000000000006  0.18587  0.48591  1.0000
  H   H52       1.0  0.3433  0.11612  0.4334  1.0000
  H   H53       1.0  0.22464000000000006  0.40674  0.5477199999999999  1.0000
  H   H54       1.0  0.31283  0.40005  0.47705999999999993  1.0000
  H   H55       1.0  0.63793  0.4970900000000001  0.055869999999999996  1.0000
  H   H56       1.0  0.5105599999999999  0.58091  0.09560999999999999  1.0000
  H   H57       1.0  0.4720499999999999  0.4652100000000001  0.29479  1.0000
  H   H58       1.0  0.60193  0.38854  0.2489  1.0000
  H   H59       1.0  0.25766  0.61758  0.26458  1.0000
  H   H60       1.0  0.27925  0.64463  0.31466  1.0000
  H   H61       1.0  0.12890000000000004  0.6511000000000001  0.3759399999999999  1.0000
  H   H62       1.0  0.10023000000000001  0.4892  0.53251  1.0000
  H   H63       1.0  0.32324  0.48181  0.37711999999999996  1.0000
  H   H64       1.0  0.76181  0.80881  0.11193999999999998  1.0000
  H   H65       1.0  0.6763899999999999  0.8630300000000001  0.04478  1.0000
  H   H66       1.0  0.48032999999999987  0.87759  0.23187  1.0000
  H   H67       1.0  0.5732100000000001  0.82149  0.29241999999999996  1.0000
  H   H68       1.0  0.41725999999999996  0.004310000000000002  0.053669999999999995  1.0000
  H   H69       1.0  0.34040000000000004  0.98976  0.13078  1.0000
  H   H70       1.0  0.16234  0.63356  0.04207999999999999  1.0000
  H   H71       1.0  0.16603999999999994  0.6950600000000001  0.10908  1.0000
  H   H72       1.0  0.4028099999999999  0.6746600000000003  0.9765699999999999  1.0000
  H   H73       1.0  0.38960999999999996  0.6152500000000001  0.9144799999999998  1.0000
  H   H74       1.0  0.42535000000000006  0.73688  0.10456999999999998  1.0000
  H   H75       1.0  0.32450999999999997  0.7638700000000002  0.15077  1.0000
  H   H76       1.0  0.6201699999999999  0.02451  0.60832  1.0000
  H   H77       1.0  0.48691  0.06076000000000001  0.69324  1.0000
  H   H78       1.0  0.5247200000000001  0.86917  0.8028  1.0000
  H   H79       1.0  0.6537799999999998  0.8399100000000002  0.71201  1.0000
  H   H80       1.0  0.2898899999999998  0.9336200000000001  0.90993  1.0000
  H   H81       1.0  0.30069  0.004580000000000008  0.9073099999999998  1.0000
  H   H82       1.0  0.3981599999999999  0.8447500000000001  0.13704999999999998  1.0000
  H   H83       1.0  0.3330799999999998  0.8349700000000001  0.98631  1.0000
  H   H84       1.0  0.36212  0.004840000000000008  0.9793899999999999  1.0000
  H   H85       1.0  0.07119000000000003  0.29203000000000007  0.84574  1.0000
  H   H86       1.0  0.97187  0.2379800000000001  0.90208  1.0000
  H   H87       1.0  0.1554400000000001  0.06597000000000006  0.8484499999999998  1.0000
  H   H88       1.0  0.24829999999999988  0.12572000000000005  0.79685  1.0000
  H   H89       1.0  0.90194  0.07479  0.02978  1.0000
  H   H90       1.0  0.8242599999999999  0.14408000000000004  0.01548  1.0000
  H   H91       1.0  0.19850000000000018  0.75813  0.8845899999999999  1.0000
  H   H92       1.0  0.06784999999999984  0.8339600000000004  0.9315899999999998  1.0000
  H   H93       1.0  0.9739800000000001  0.68513  0.98662  1.0000
  H   H94       1.0  0.10863000000000002  0.61552  0.93445  1.0000
  H   H95       1.0  0.82041  0.90699  0.04769999999999999  1.0000
  H   H96       1.0  0.8099700000000001  0.8997400000000002  0.97725  1.0000
  H   H97       1.0  0.8101799999999998  0.9972800000000002  0.5557099999999999  1.0000
  H   H98       1.0  0.81368  0.08083999999999998  0.59581  1.0000
  H   H99       1.0  0.76803  0.9647600000000002  0.7948299999999999  1.0000
  H   H100      1.0  0.7609699999999998  0.88855  0.74847  1.0000
  H   H101      1.0  0.8598300000000001  0.11732000000000002  0.7644099999999999  1.0000
  H   H102      1.0  0.7611999999999998  0.14479  0.81481  1.0000
  H   H103      1.0  0.8442900000000002  0.15079000000000006  0.8758399999999997  1.0000
  H   H104      1.0  0.8782099999999999  0.9887300000000001  0.03226999999999999  1.0000
  H   H105      1.0  0.8174899999999999  0.9819600000000002  0.87717  1.0000
  H   H106      1.0  0.31708000000000003  0.30976000000000004  0.6120399999999999  1.0000
  H   H107      1.0  0.41512000000000004  0.3643600000000001  0.5449199999999998  1.0000
  H   H108      1.0  0.4090500000000001  0.37832000000000005  0.73231  1.0000
  H   H109      1.0  0.31194000000000005  0.32203  0.79262  1.0000
  H   H110      1.0  0.5243799999999998  0.5044900000000001  0.55421  1.0000
  H   H111      1.0  0.53843  0.49003  0.6313699999999999  1.0000
  H   H112      1.0  0.16295  0.13320000000000007  0.5423999999999999  1.0000
  H   H113      1.0  0.030119999999999994  0.19435000000000005  0.60992  1.0000
  H   H114      1.0  0.9466899999999999  0.17572000000000002  0.47646999999999995  1.0000
  H   H115      1.0  0.08179000000000003  0.11656999999999998  0.41397  1.0000
  H   H116      1.0  0.73344  0.23696  0.60522  1.0000
  H   H117      1.0  0.7606200000000002  0.26414  0.6514799999999998  1.0000
  H   H118      1.0  0.7482299999999996  0.52432  0.10786  1.0000
  H   H119      1.0  0.7595999999999999  0.56069  0.19285  1.0000
  H   H120      1.0  0.8042099999999999  0.3691800000000001  0.30244  1.0000
  H   H121      1.0  0.79581  0.33979  0.21153  1.0000
  H   H122      1.0  0.8666500000000003  0.4330300000000001  0.40932999999999997  1.0000
  H   H123      1.0  0.7874599999999997  0.50433  0.40751999999999994  1.0000
  H   H124      1.0  0.6197099999999999  0.34505  0.6376699999999998  1.0000
  H   H125      1.0  0.8456399999999998  0.3349600000000001  0.48656  1.0000
  H   H126      1.0  0.65313  0.505  0.4799  1.0000
  H   H127      1.0  0.2086799999999998  0.2081  0.65538  1.0000
  H   H128      1.0  0.11217000000000002  0.26200000000000007  0.5986799999999999  1.0000
  H   H129      1.0  0.06948  0.43434  0.65159  1.0000
  H   H130      1.0  0.17025999999999994  0.37469  0.70357  1.0000
  H   H131      1.0  0.007000000000000002  0.42463  0.46976999999999997  1.0000
  H   H132      1.0  0.9846399999999998  0.3549900000000001  0.48512999999999995  1.0000
  H   H133      1.0  0.8405  0.7418  0.61574  1.0000
  H   H134      1.0  0.8338699999999997  0.6659200000000002  0.5683399999999998  1.0000
  H   H135      1.0  0.6449199999999999  0.8141300000000001  0.51409  1.0000
  H   H136      1.0  0.6567000000000001  0.8838800000000001  0.5665999999999998  1.0000
  H   H137      1.0  0.7753599999999999  0.5932600000000001  0.45228  1.0000
  H   H138      1.0  0.6871699999999997  0.5999500000000001  0.52294  1.0000
  H   H139      1.0  0.3620599999999999  0.50291  0.9441299999999999  1.0000
  H   H140      1.0  0.48944000000000026  0.41909  0.9044  1.0000
  H   H141      1.0  0.5279400000000001  0.5347900000000001  0.7052099999999998  1.0000
  H   H142      1.0  0.39807  0.6114600000000001  0.7510999999999999  1.0000
  H   H143      1.0  0.7423399999999999  0.38242000000000004  0.73542  1.0000
  H   H144      1.0  0.7207500000000001  0.35537  0.68534  1.0000
  H   H145      1.0  0.8711  0.34889  0.62406  1.0000
  H   H146      1.0  0.89976  0.5108  0.4674899999999999  1.0000
  H   H147      1.0  0.6767599999999999  0.5181800000000002  0.62289  1.0000
  H   H148      1.0  0.23819000000000004  0.19119000000000003  0.8880599999999998  1.0000
  H   H149      1.0  0.3236100000000001  0.13697000000000004  0.9552199999999998  1.0000
  H   H150      1.0  0.5196699999999999  0.12241  0.76814  1.0000
  H   H151      1.0  0.42678999999999995  0.17851  0.70758  1.0000
  H   H152      1.0  0.5827399999999999  0.99569  0.94633  1.0000
  H   H153      1.0  0.6596000000000001  0.010230000000000005  0.86923  1.0000
  H   H154      1.0  0.8376599999999998  0.36644000000000004  0.95792  1.0000
  H   H155      1.0  0.83395  0.30494  0.89092  1.0000
  H   H156      1.0  0.59719  0.32534  0.02343  1.0000
  H   H157      1.0  0.6103900000000001  0.38475  0.08552  1.0000
  H   H158      1.0  0.5746500000000001  0.26312  0.89543  1.0000
  H   H159      1.0  0.67548  0.23613000000000006  0.8492299999999999  1.0000
  H   H160      1.0  0.37983  0.97549  0.39167999999999986  1.0000
  H   H161      1.0  0.5130799999999998  0.9392400000000002  0.30675999999999987  1.0000
  H   H162      1.0  0.4752799999999999  0.13083000000000003  0.19719999999999996  1.0000
  H   H163      1.0  0.34622  0.16009  0.28799  1.0000
  H   H164      1.0  0.71011  0.06638  0.09006999999999997  1.0000
  H   H165      1.0  0.6993  0.9954200000000001  0.09269  1.0000
  H   H166      1.0  0.60183  0.15525  0.8629499999999999  1.0000
  H   H167      1.0  0.66691  0.16502000000000003  0.013689999999999999  1.0000
  H   H168      1.0  0.6378800000000001  0.99516  0.020609999999999993  1.0000
  C   C1        1.0  0.9124499999999998  0.7579000000000001  0.15302  1.0000
  C   C2        1.0  0.9677299999999999  0.7879400000000002  0.12197  1.0000
  C   C3        1.0  0.9440399999999999  0.8529  0.12014  1.0000
  C   C4        1.0  0.86496  0.8839200000000002  0.15166  1.0000
  C   C5        1.0  0.81353  0.85073  0.18076999999999996  1.0000
  C   C6        1.0  0.9959700000000001  0.89106  0.08309  1.0000
  C   C7        1.0  0.12246999999999993  0.8918700000000002  0.00833  1.0000
  C   C8        1.0  0.85259  0.25623  0.09279  1.0000
  C   C9        1.0  0.9254100000000001  0.21421  0.06616  1.0000
  C   C10       1.0  0.9907299999999999  0.23419  0.03708  1.0000
  C   C11       1.0  0.97732  0.2975400000000001  0.03551  1.0000
  C   C12       1.0  0.9030899999999998  0.33605  0.06418  1.0000
  C   C13       1.0  0.07105999999999998  0.19280000000000003  0.01204  1.0000
  C   C14       1.0  0.15571999999999997  0.08713000000000001  0.007549999999999999  1.0000
  C   C15       1.0  0.20087999999999998  0.007009999999999997  0.39141  1.0000
  C   C16       1.0  0.19858999999999996  0.9611300000000003  0.36934  1.0000
  C   C17       1.0  0.20962000000000003  0.96976  0.301  1.0000
  C   C18       1.0  0.22424  0.025410000000000002  0.25807  1.0000
  C   C19       1.0  0.22727  0.06852  0.28391  1.0000
  C   C20       1.0  0.20295000000000002  0.9216200000000001  0.27967  1.0000
  C   C21       1.0  0.18795000000000012  0.89774  0.19416999999999998  1.0000
  C   C22       1.0  0.16959999999999997  0.93092  0.13101999999999997  1.0000
  C   C23       1.0  0.15393  0.89784  0.10148  1.0000
  C   C24       1.0  0.13719999999999996  0.9267  0.04255  1.0000
  C   C25       1.0  0.1368399999999999  0.9885800000000002  0.012639999999999998  1.0000
  C   C26       1.0  0.15376  0.021560000000000006  0.04093999999999999  1.0000
  C   C27       1.0  0.1694799999999998  0.9926000000000003  0.10048  1.0000
  C   C28       1.0  0.6615600000000001  0.67425  0.36289  1.0000
  C   C29       1.0  0.60692  0.6439500000000002  0.4002399999999999  1.0000
  C   C30       1.0  0.5802599999999997  0.6236900000000001  0.3668  1.0000
  C   C31       1.0  0.60958  0.63657  0.2958799999999999  1.0000
  C   C32       1.0  0.66401  0.66745  0.2622499999999999  1.0000
  C   C33       1.0  0.5241199999999999  0.5894500000000001  0.40793  1.0000
  C   C34       1.0  0.45508  0.53203  0.40691999999999995  1.0000
  C   C35       1.0  0.8864200000000002  0.8565  0.4706199999999999  1.0000
  C   C36       1.0  0.9599399999999998  0.82228  0.4334  1.0000
  C   C37       1.0  0.022909999999999858  0.80968  0.45118  1.0000
  C   C38       1.0  0.007049999999999962  0.83244  0.50749  1.0000
  C   C39       1.0  0.93188  0.8658500000000001  0.54213  1.0000
  C   C40       1.0  0.10139999999999967  0.7747100000000007  0.41063  1.0000
  C   C41       1.0  0.23418000000000003  0.7344  0.39941  1.0000
  C   C42       1.0  0.23901000000000003  0.50871  0.84856  1.0000
  C   C43       1.0  0.2333599999999999  0.48837000000000014  0.80119  1.0000
  C   C44       1.0  0.21678999999999998  0.5321500000000001  0.7452699999999999  1.0000
  C   C45       1.0  0.20786000000000002  0.5952  0.74001  1.0000
  C   C46       1.0  0.213  0.6115700000000002  0.7901999999999998  1.0000
  C   C47       1.0  0.20819000000000004  0.5118600000000001  0.69545  1.0000
  C   C48       1.0  0.1938100000000001  0.5468800000000001  0.5869699999999999  1.0000
  C   C49       1.0  0.3720500000000001  0.57102  0.43750999999999995  1.0000
  C   C50       1.0  0.3420099999999999  0.6332400000000001  0.40745  1.0000
  C   C51       1.0  0.2635999999999999  0.6676100000000001  0.43461  1.0000
  C   C52       1.0  0.21531999999999998  0.63879  0.49222  1.0000
  C   C53       1.0  0.24485999999999997  0.57662  0.52311  1.0000
  C   C54       1.0  0.3233100000000001  0.54311  0.4958  1.0000
  C   C55       1.0  0.8235999999999999  0.7419200000000001  0.34613  1.0000
  C   C56       1.0  0.87765  0.7119  0.37741  1.0000
  C   C57       1.0  0.9172  0.6468900000000001  0.37951  1.0000
  C   C58       1.0  0.9008699999999997  0.61581  0.34803999999999996  1.0000
  C   C59       1.0  0.8455099999999999  0.64896  0.3187  1.0000
  C   C60       1.0  0.9701199999999999  0.60882  0.41676999999999986  1.0000
  C   C61       1.0  0.02207999999999992  0.6086100000000001  0.49166  1.0000
  C   C62       1.0  0.20226  0.24393000000000012  0.40691999999999995  1.0000
  C   C63       1.0  0.20584  0.28602000000000005  0.43373999999999996  1.0000
  C   C64       1.0  0.2621900000000001  0.26619  0.46260999999999997  1.0000
  C   C65       1.0  0.31109000000000003  0.20295  0.46392999999999995  1.0000
  C   C66       1.0  0.3045800000000001  0.16439  0.4350499999999999  1.0000
  C   C67       1.0  0.2757600000000001  0.30756  0.48777999999999994  1.0000
  C   C68       1.0  0.2501000000000001  0.41304  0.4924499999999999  1.0000
  C   C69       1.0  0.6001  0.49297000000000013  0.10870999999999997  1.0000
  C   C70       1.0  0.5297199999999999  0.5389300000000001  0.13056  1.0000
  C   C71       1.0  0.48058  0.53032  0.19878  1.0000
  C   C72       1.0  0.50775  0.4747900000000001  0.24193999999999996  1.0000
  C   C73       1.0  0.5798899999999998  0.43152000000000007  0.21636999999999995  1.0000
  C   C74       1.0  0.4041200000000001  0.5783000000000001  0.21980999999999998  1.0000
  C   C75       1.0  0.27960999999999997  0.6022800000000001  0.30566999999999994  1.0000
  C   C76       1.0  0.23135999999999995  0.5691800000000001  0.36902  1.0000
  C   C77       1.0  0.15298  0.60243  0.39865  1.0000
  C   C78       1.0  0.10601999999999995  0.5737  0.4576  1.0000
  C   C79       1.0  0.13759999999999997  0.5118100000000001  0.48757999999999996  1.0000
  C   C80       1.0  0.21590000000000004  0.47869  0.45923999999999987  1.0000
  C   C81       1.0  0.26236  0.50748  0.39959999999999996  1.0000
  C   C82       1.0  0.6992699999999996  0.8248400000000001  0.13701  1.0000
  C   C83       1.0  0.65175  0.8549200000000001  0.09961  1.0000
  C   C84       1.0  0.5712099999999999  0.8753400000000001  0.1329  1.0000
  C   C85       1.0  0.5422100000000001  0.8626600000000001  0.20381999999999995  1.0000
  C   C86       1.0  0.5937900000000002  0.83194  0.23755999999999997  1.0000
  C   C87       1.0  0.52207  0.9098200000000001  0.09169  1.0000
  C   C88       1.0  0.39446999999999993  0.96771  0.09249999999999997  1.0000
  C   C89       1.0  0.21461999999999998  0.6435100000000001  0.02915  1.0000
  C   C90       1.0  0.21645999999999993  0.6780200000000001  0.06608  1.0000
  C   C91       1.0  0.28487  0.69021  0.04831  1.0000
  C   C92       1.0  0.3484799999999999  0.6668300000000003  0.9924299999999999  1.0000
  C   C93       1.0  0.34145000000000003  0.63322  0.9580899999999998  1.0000
  C   C94       1.0  0.28781  0.72538  0.08852  1.0000
  C   C95       1.0  0.36891  0.76541  0.09990999999999998  1.0000
  C   C96       1.0  0.59673  0.99143  0.65177  1.0000
  C   C97       1.0  0.52315  0.011690000000000008  0.69909  1.0000
  C   C98       1.0  0.4943900000000003  0.9678  0.7548499999999998  1.0000
  C   C99       1.0  0.5435199999999997  0.9048000000000002  0.7603  1.0000
  C   C100      1.0  0.61545  0.8885  0.71016  1.0000
  C   C101      1.0  0.41536000000000006  0.98804  0.8043799999999999  1.0000
  C   C102      1.0  0.32728999999999997  0.95332  0.91295  1.0000
  C   C103      1.0  0.38113  0.92875  0.06189999999999999  1.0000
  C   C104      1.0  0.3833299999999998  0.8665300000000002  0.09193999999999998  1.0000
  C   C105      1.0  0.36647  0.8322500000000002  0.0648  1.0000
  C   C106      1.0  0.34672  0.8611600000000001  0.00736  1.0000
  C   C107      1.0  0.3448100000000001  0.92336  0.97651  1.0000
  C   C108      1.0  0.36256999999999995  0.9567200000000001  0.0037199999999999993  1.0000
  C   C109      1.0  0.08755000000000003  0.2421000000000002  0.8469899999999998  1.0000
  C   C110      1.0  0.03226999999999997  0.21205000000000004  0.87803  1.0000
  C   C111      1.0  0.055960000000000024  0.14710000000000006  0.87986  1.0000
  C   C112      1.0  0.13503999999999988  0.11608000000000002  0.8483399999999999  1.0000
  C   C113      1.0  0.18646999999999997  0.14927  0.81923  1.0000
  C   C114      1.0  0.004030000000000073  0.10894000000000005  0.9169099999999998  1.0000
  C   C115      1.0  0.8775199999999999  0.10813000000000005  0.9916699999999999  1.0000
  C   C116      1.0  0.14740000000000011  0.74377  0.9072099999999998  1.0000
  C   C117      1.0  0.07458999999999996  0.78579  0.93384  1.0000
  C   C118      1.0  0.00926999999999991  0.7658100000000002  0.96292  1.0000
  C   C119      1.0  0.022679999999999954  0.70246  0.96449  1.0000
  C   C120      1.0  0.09690000000000004  0.66394  0.9358199999999998  1.0000
  C   C121      1.0  0.9289399999999999  0.8072  0.98796  1.0000
  C   C122      1.0  0.8442699999999999  0.9128700000000001  0.9924499999999999  1.0000
  C   C123      1.0  0.7991200000000002  0.99299  0.6085899999999997  1.0000
  C   C124      1.0  0.80141  0.03887000000000001  0.63066  1.0000
  C   C125      1.0  0.7903799999999997  0.03023999999999999  0.699  1.0000
  C   C126      1.0  0.7757599999999995  0.9745900000000002  0.74193  1.0000
  C   C127      1.0  0.7727299999999998  0.93148  0.71609  1.0000
  C   C128      1.0  0.79705  0.07837999999999999  0.72033  1.0000
  C   C129      1.0  0.8120499999999999  0.10226  0.80583  1.0000
  C   C130      1.0  0.8304000000000001  0.06908000000000004  0.8689799999999998  1.0000
  C   C131      1.0  0.84606  0.10216000000000004  0.8985199999999999  1.0000
  C   C132      1.0  0.8627899999999998  0.07330000000000002  0.95745  1.0000
  C   C133      1.0  0.8631599999999999  0.01141999999999999  0.98736  1.0000
  C   C134      1.0  0.8462399999999998  0.9784400000000001  0.95906  1.0000
  C   C135      1.0  0.83052  0.007400000000000008  0.8995299999999999  1.0000
  C   C136      1.0  0.3384400000000001  0.32575  0.6371099999999998  1.0000
  C   C137      1.0  0.39306999999999986  0.35605  0.59976  1.0000
  C   C138      1.0  0.4197299999999999  0.37631000000000003  0.6332  1.0000
  C   C139      1.0  0.3904100000000001  0.36343  0.7041199999999999  1.0000
  C   C140      1.0  0.33597999999999995  0.33255000000000007  0.73775  1.0000
  C   C141      1.0  0.4758700000000001  0.41055000000000014  0.5920699999999999  1.0000
  C   C142      1.0  0.54491  0.4679700000000001  0.5930799999999999  1.0000
  C   C143      1.0  0.11357999999999997  0.14350000000000004  0.52939  1.0000
  C   C144      1.0  0.04006000000000001  0.1777200000000001  0.5665999999999998  1.0000
  C   C145      1.0  0.9770899999999998  0.19032000000000004  0.54883  1.0000
  C   C146      1.0  0.99295  0.16755  0.49250999999999995  1.0000
  C   C147      1.0  0.06812000000000001  0.13415000000000002  0.45787  1.0000
  C   C148      1.0  0.8985999999999995  0.22529000000000005  0.58937  1.0000
  C   C149      1.0  0.76581  0.2656  0.60059  1.0000
  C   C150      1.0  0.7609899999999999  0.49129000000000006  0.15144  1.0000
  C   C151      1.0  0.76664  0.5116300000000001  0.19880999999999993  1.0000
  C   C152      1.0  0.7832099999999999  0.46785  0.25472999999999996  1.0000
  C   C153      1.0  0.7921400000000001  0.4048  0.26  1.0000
  C   C154      1.0  0.787  0.38842000000000004  0.20979999999999993  1.0000
  C   C155      1.0  0.7917999999999998  0.48813000000000006  0.30454999999999993  1.0000
  C   C156      1.0  0.8061800000000005  0.45312000000000013  0.41303  1.0000
  C   C157      1.0  0.62795  0.42898  0.5624899999999999  1.0000
  C   C158      1.0  0.65799  0.36676  0.59255  1.0000
  C   C159      1.0  0.7363999999999999  0.33239000000000013  0.56539  1.0000
  C   C160      1.0  0.78468  0.36121  0.5077799999999999  1.0000
  C   C161      1.0  0.75513  0.42338000000000003  0.4768899999999999  1.0000
  C   C162      1.0  0.67669  0.45689  0.5042  1.0000
  C   C163      1.0  0.17639  0.25808000000000003  0.65387  1.0000
  C   C164      1.0  0.12235000000000007  0.2881  0.62259  1.0000
  C   C165      1.0  0.08279999999999994  0.3531100000000001  0.62049  1.0000
  C   C166      1.0  0.09913000000000002  0.38419  0.6519599999999999  1.0000
  C   C167      1.0  0.15447999999999992  0.35104000000000013  0.6813  1.0000
  C   C168      1.0  0.02987999999999997  0.39118  0.58323  1.0000
  C   C169      1.0  0.97792  0.39139  0.5083399999999999  1.0000
  C   C170      1.0  0.7977399999999998  0.75607  0.5930799999999999  1.0000
  C   C171      1.0  0.79416  0.7139800000000001  0.56626  1.0000
  C   C172      1.0  0.7378100000000001  0.7338099999999999  0.5373899999999999  1.0000
  C   C173      1.0  0.68891  0.79705  0.5360699999999999  1.0000
  C   C174      1.0  0.6954199999999999  0.83561  0.5649499999999998  1.0000
  C   C175      1.0  0.7242399999999999  0.69244  0.51222  1.0000
  C   C176      1.0  0.7499000000000001  0.58696  0.50756  1.0000
  C   C177      1.0  0.39990000000000014  0.50703  0.8912899999999999  1.0000
  C   C178      1.0  0.47028  0.46107000000000015  0.8694399999999999  1.0000
  C   C179      1.0  0.5194099999999998  0.46968000000000004  0.8012199999999999  1.0000
  C   C180      1.0  0.49223999999999973  0.52521  0.75806  1.0000
  C   C181      1.0  0.42010999999999993  0.56848  0.78363  1.0000
  C   C182      1.0  0.5958800000000002  0.4217  0.78019  1.0000
  C   C183      1.0  0.7203899999999996  0.39772000000000013  0.69433  1.0000
  C   C184      1.0  0.7686399999999999  0.43082  0.6309799999999999  1.0000
  C   C185      1.0  0.84701  0.39756  0.60135  1.0000
  C   C186      1.0  0.8939800000000001  0.4263  0.5423999999999999  1.0000
  C   C187      1.0  0.8624  0.48819  0.51242  1.0000
  C   C188      1.0  0.7840999999999998  0.52131  0.54076  1.0000
  C   C189      1.0  0.7376399999999999  0.49251999999999996  0.60041  1.0000
  C   C190      1.0  0.30072  0.17516  0.86299  1.0000
  C   C191      1.0  0.34824999999999995  0.14508000000000001  0.9003899999999999  1.0000
  C   C192      1.0  0.42879000000000006  0.12466000000000006  0.8670999999999998  1.0000
  C   C193      1.0  0.45779  0.13734  0.79618  1.0000
  C   C194      1.0  0.40620000000000006  0.16806000000000004  0.76245  1.0000
  C   C195      1.0  0.47793000000000013  0.09018000000000004  0.9083099999999997  1.0000
  C   C196      1.0  0.6055200000000001  0.032289999999999985  0.9075  1.0000
  C   C197      1.0  0.78538  0.35648000000000013  0.97085  1.0000
  C   C198      1.0  0.7835399999999999  0.32197999999999993  0.93392  1.0000
  C   C199      1.0  0.7151299999999997  0.3097900000000001  0.9516899999999999  1.0000
  C   C200      1.0  0.6515099999999999  0.3331700000000001  0.007569999999999999  1.0000
  C   C201      1.0  0.65855  0.3667800000000001  0.04192  1.0000
  C   C202      1.0  0.7121899999999999  0.27462  0.9114799999999998  1.0000
  C   C203      1.0  0.63109  0.23459000000000002  0.9000899999999998  1.0000
  C   C204      1.0  0.4032699999999999  0.008570000000000001  0.34823  1.0000
  C   C205      1.0  0.47685000000000005  0.9883  0.30090999999999996  1.0000
  C   C206      1.0  0.50561  0.03220000000000001  0.24515  1.0000
  C   C207      1.0  0.45647  0.0952  0.2397  1.0000
  C   C208      1.0  0.38455  0.11150000000000002  0.28984  1.0000
  C   C209      1.0  0.58463  0.011959999999999998  0.19562  1.0000
  C   C210      1.0  0.6727099999999999  0.04668  0.08705  1.0000
  C   C211      1.0  0.6188699999999999  0.07125000000000004  0.9380999999999999  1.0000
  C   C212      1.0  0.61667  0.13347  0.90806  1.0000
  C   C213      1.0  0.63353  0.16775000000000004  0.9352  1.0000
  C   C214      1.0  0.6532700000000001  0.13884000000000005  0.9926399999999999  1.0000
  C   C215      1.0  0.65519  0.07664  0.02349  1.0000
  C   C216      1.0  0.63742  0.04328000000000002  0.9962799999999999  1.0000
  N   N1        1.0  0.8359199999999999  0.78822  0.1812  1.0000
  N   N2        1.0  0.8397899999999999  0.31669  0.09405  1.0000
  N   N3        1.0  0.21461  0.06107000000000001  0.3501699999999999  1.0000
  N   N4        1.0  0.69131  0.6856900000000001  0.29433999999999994  1.0000
  N   N5        1.0  0.87057  0.87896  0.52499  1.0000
  N   N6        1.0  0.22742  0.56983  0.84507  1.0000
  N   N7        1.0  0.80577  0.71152  0.31802  1.0000
  N   N8        1.0  0.25175  0.18362  0.40524999999999994  1.0000
  N   N9        1.0  0.62634  0.4388900000000001  0.15013  1.0000
  N   N10       1.0  0.6716099999999998  0.8137200000000002  0.20558  1.0000
  N   N11       1.0  0.27588999999999997  0.6204800000000001  0.9751699999999999  1.0000
  N   N12       1.0  0.64293  0.93027  0.65525  1.0000
  N   N13       1.0  0.16407  0.21178000000000013  0.8187999999999999  1.0000
  N   N14       1.0  0.16021000000000013  0.68331  0.9059499999999999  1.0000
  N   N15       1.0  0.78538  0.93893  0.64984  1.0000
  N   N16       1.0  0.3086900000000001  0.31431000000000014  0.7056599999999998  1.0000
  N   N17       1.0  0.12941999999999995  0.12104000000000005  0.47501  1.0000
  N   N18       1.0  0.77258  0.43017  0.15492999999999998  1.0000
  N   N19       1.0  0.19422000000000003  0.28848  0.68198  1.0000
  N   N20       1.0  0.7482399999999994  0.81638  0.59475  1.0000
  N   N21       1.0  0.37366000000000005  0.56111  0.84987  1.0000
  N   N22       1.0  0.32839000000000007  0.18628  0.79442  1.0000
  N   N23       1.0  0.7241000000000001  0.37951  0.02483  1.0000
  N   N24       1.0  0.35707000000000005  0.06973000000000001  0.34474999999999995  1.0000
  O   O1        1.0  0.97414  0.9485  0.07704  1.0000
  O   O2        1.0  0.07093000000000005  0.85549  0.05414  1.0000
  O   O3        1.0  0.12773000000000007  0.21108999999999997  0.98316  1.0000
  O   O4        1.0  0.07644000000000002  0.13093  0.026979999999999997  1.0000
  O   O5        1.0  0.19567999999999997  0.87111  0.31583999999999995  1.0000
  O   O6        1.0  0.20388999999999996  0.93981  0.21507999999999997  1.0000
  O   O7        1.0  0.4970500000000001  0.5795100000000001  0.46983  1.0000
  O   O8        1.0  0.5066600000000001  0.56943  0.36907999999999996  1.0000
  O   O9        1.0  0.11732  0.75566  0.36036  1.0000
  O   O10       1.0  0.15448999999999988  0.7656900000000002  0.43671  1.0000
  O   O11       1.0  0.21059000000000005  0.45841  0.69977  1.0000
  O   O12       1.0  0.19692999999999997  0.5608100000000001  0.64351  1.0000
  O   O13       1.0  1.9999999999983966e-05  0.55138  0.42291999999999996  1.0000
  O   O14       1.0  0.97999  0.64456  0.44578999999999996  1.0000
  O   O15       1.0  0.32154999999999995  0.28915000000000013  0.51698  1.0000
  O   O16       1.0  0.23419  0.36943000000000004  0.47275  1.0000
  O   O17       1.0  0.38250999999999996  0.62863  0.18343  1.0000
  O   O18       1.0  0.35856999999999994  0.5600700000000001  0.2844  1.0000
  O   O19       1.0  0.5471699999999999  0.9197100000000002  0.02977  1.0000
  O   O20       1.0  0.44556  0.9303  0.13045  1.0000
  O   O21       1.0  0.23414000000000001  0.74491  0.13849  1.0000
  O   O22       1.0  0.35819  0.73393  0.06268  1.0000
  O   O23       1.0  0.36879000000000006  0.04164  0.80016  1.0000
  O   O24       1.0  0.4005  0.93897  0.85594  1.0000
  O   O25       1.0  0.025850000000000095  0.05150000000000003  0.9229599999999998  1.0000
  O   O26       1.0  0.9290600000000002  0.14451  0.94586  1.0000
  O   O27       1.0  0.8722700000000002  0.7889100000000002  0.01684  1.0000
  O   O28       1.0  0.9235599999999999  0.8690700000000001  0.97302  1.0000
  O   O29       1.0  0.80431  0.12889  0.68416  1.0000
  O   O30       1.0  0.7961  0.06018999999999999  0.78492  1.0000
  O   O31       1.0  0.50295  0.42049000000000003  0.53017  1.0000
  O   O32       1.0  0.49333000000000005  0.4305700000000001  0.6309199999999998  1.0000
  O   O33       1.0  0.88268  0.24433999999999997  0.63964  1.0000
  O   O34       1.0  0.8455099999999999  0.23431  0.56329  1.0000
  O   O35       1.0  0.78941  0.54159  0.30023  1.0000
  O   O36       1.0  0.8030700000000001  0.43918000000000007  0.35649999999999993  1.0000
  O   O37       1.0  0.9999699999999997  0.44861000000000034  0.5770799999999999  1.0000
  O   O38       1.0  0.02001  0.35544  0.55422  1.0000
  O   O39       1.0  0.6784399999999997  0.7108500000000001  0.48301999999999995  1.0000
  O   O40       1.0  0.7658099999999999  0.6305600000000001  0.52725  1.0000
  O   O41       1.0  0.6174800000000003  0.37137000000000003  0.81657  1.0000
  O   O42       1.0  0.64143  0.43993000000000004  0.7156  1.0000
  O   O43       1.0  0.45282  0.08029000000000001  0.9702399999999999  1.0000
  O   O44       1.0  0.55444  0.06970000000000001  0.86955  1.0000
  O   O45       1.0  0.7658600000000001  0.25509  0.8615099999999999  1.0000
  O   O46       1.0  0.64181  0.26607000000000003  0.9373199999999999  1.0000
  O   O47       1.0  0.6312099999999999  0.9583600000000002  0.19983999999999993  1.0000
  O   O48       1.0  0.59949  0.06103000000000003  0.14405999999999997  1.0000
