data_image0
_chemical_formula_structural       Zn8H172C220N12O32
_chemical_formula_sum              "Zn8 H172 C220 N12 O32"
_cell_length_a       15.37375
_cell_length_b       15.374419999999999
_cell_length_c       48.580589999999994
_cell_angle_alpha    94.45849
_cell_angle_beta     94.38102
_cell_angle_gamma    96.36575

_space_group_name_H-M_alt    "P 1"
_space_group_IT_number       1

loop_
  _space_group_symop_operation_xyz
  'x, y, z'

loop_
  _atom_site_type_symbol
  _atom_site_label
  _atom_site_symmetry_multiplicity
  _atom_site_fract_x
  _atom_site_fract_y
  _atom_site_fract_z
  _atom_site_occupancy
  Zn  Zn1       1.0  0.14888000000000007  0.37526  0.61865  1.0000
  Zn  Zn2       1.0  0.2798500000000001  0.24509000000000006  0.17606  1.0000
  Zn  Zn3       1.0  0.2657  0.23069  0.11770000000000001  1.0000
  Zn  Zn4       1.0  0.16268  0.39193  0.67691  1.0000
  Zn  Zn5       1.0  0.7691500000000002  0.73439  0.88226  1.0000
  Zn  Zn6       1.0  0.60826  0.83719  0.32309  1.0000
  Zn  Zn7       1.0  0.62478  0.85132  0.38137  1.0000
  Zn  Zn8       1.0  0.7548700000000003  0.72017  0.82388  1.0000
  H   H1        1.0  0.26570000000000005  0.1842300000000001  0.7649700000000001  1.0000
  H   H2        1.0  0.4112200000000001  0.25783  0.33759  1.0000
  H   H3        1.0  0.025999999999999985  0.27752  0.57286  1.0000
  H   H4        1.0  0.32490000000000013  0.4283  0.2701  1.0000
  H   H5        1.0  0.20437  0.14389  0.22103  1.0000
  H   H6        1.0  0.13787  0.35406  0.00993  1.0000
  H   H7        1.0  0.24035000000000012  0.45417  0.52367  1.0000
  H   H8        1.0  0.2986  0.4126800000000001  0.86917  1.0000
  H   H9        1.0  0.3608900000000001  0.19206  0.9314  1.0000
  H   H10       1.0  0.2043800000000001  0.8427500000000001  0.6902900000000001  1.0000
  H   H11       1.0  0.8258700000000002  0.27272000000000013  0.10483000000000002  1.0000
  H   H12       1.0  0.3825600000000001  0.24925000000000005  0.30126  1.0000
  H   H13       1.0  0.73282  0.29048  0.19025000000000003  1.0000
  H   H14       1.0  0.012200000000000011  0.26236  0.52062  1.0000
  H   H15       1.0  0.07237000000000005  0.40081  0.34169  1.0000
  H   H16       1.0  0.43230000000000013  0.3501  0.31865  1.0000
  H   H17       1.0  0.32518  0.51337  0.10614000000000001  1.0000
  H   H18       1.0  0.3292700000000001  0.9797200000000003  0.18956  1.0000
  H   H19       1.0  0.6935900000000003  0.18927  0.10457000000000001  1.0000
  H   H20       1.0  0.20417  0.22627000000000003  0.43521  1.0000
  H   H21       1.0  0.01616  0.46317  0.50557  1.0000
  H   H22       1.0  0.1922800000000001  0.2996  0.8932400000000001  1.0000
  H   H23       1.0  0.60949  0.42072  0.69224  1.0000
  H   H24       1.0  0.09985000000000005  0.8026600000000003  0.60491  1.0000
  H   H25       1.0  0.1448500000000001  0.4530000000000001  0.39043000000000005  1.0000
  H   H26       1.0  0.3003700000000001  0.51399  0.80823  1.0000
  H   H27       1.0  0.24071  0.40822000000000025  0.4021  1.0000
  H   H28       1.0  0.3760500000000001  0.3215400000000001  0.02691  1.0000
  H   H29       1.0  0.3442600000000001  0.38884  0.21987  1.0000
  H   H30       1.0  0.05953  0.26878  0.99406  1.0000
  H   H31       1.0  0.13192  0.15036000000000008  0.01736  1.0000
  H   H32       1.0  0.26923000000000014  0.14334  0.83532  1.0000
  H   H33       1.0  0.26842000000000016  0.52662  0.8423900000000001  1.0000
  H   H34       1.0  0.4178400000000001  0.12734  0.96944  1.0000
  H   H35       1.0  0.06723000000000001  0.30643  0.38943  1.0000
  H   H36       1.0  0.32704000000000005  0.33656  0.36998000000000003  1.0000
  H   H37       1.0  0.11016  0.64238  0.6057  1.0000
  H   H38       1.0  0.2714100000000001  0.26135  0.5057  1.0000
  H   H39       1.0  0.07769000000000001  0.3147800000000001  0.77295  1.0000
  H   H40       1.0  0.04022000000000005  0.4329600000000001  0.4293600000000001  1.0000
  H   H41       1.0  0.5711600000000002  0.29379  0.19112  1.0000
  H   H42       1.0  0.07859000000000002  0.3677800000000001  0.97796  1.0000
  H   H43       1.0  0.31755  0.17696  0.88263  1.0000
  H   H44       1.0  0.051740000000000015  0.34842  0.72325  1.0000
  H   H45       1.0  0.44032  0.21465  0.99591  1.0000
  H   H46       1.0  0.31479000000000007  0.43045000000000005  0.7187600000000001  1.0000
  H   H47       1.0  0.23493  0.10388999999999997  0.78798  1.0000
  H   H48       1.0  0.5814000000000002  0.34839  0.60427  1.0000
  H   H49       1.0  0.10436000000000004  0.3888300000000001  0.26902  1.0000
  H   H50       1.0  0.17767000000000005  0.17338  0.27118  1.0000
  H   H51       1.0  0.24859000000000006  0.17658000000000004  0.47819  1.0000
  H   H52       1.0  0.3783300000000001  0.3085800000000001  0.07819  1.0000
  H   H53       1.0  0.87147  0.40121  0.60559  1.0000
  H   H54       1.0  0.06891  0.53816  0.4846  1.0000
  H   H55       1.0  0.37151  0.28372  0.8931  1.0000
  H   H56       1.0  0.14341  0.14586  0.06906  1.0000
  H   H57       1.0  0.2447400000000001  0.46145000000000014  0.57578  1.0000
  H   H58       1.0  0.18782000000000004  0.49841000000000013  0.81399  1.0000
  H   H59       1.0  0.9664300000000002  0.47872  0.47230000000000005  1.0000
  H   H60       1.0  0.04632000000000002  0.2929500000000001  0.27925  1.0000
  H   H61       1.0  0.24686000000000008  0.6851900000000001  0.18959000000000004  1.0000
  H   H62       1.0  0.8843100000000003  0.35751  0.69166  1.0000
  H   H63       1.0  0.17528  0.93268  0.6038  1.0000
  H   H64       1.0  0.20755000000000004  0.68136  0.69118  1.0000
  H   H65       1.0  0.4205100000000001  0.35492  0.60404  1.0000
  H   H66       1.0  0.12775  0.32317  0.93533  1.0000
  H   H67       1.0  0.3256300000000001  0.67605  0.10646  1.0000
  H   H68       1.0  0.027450000000000002  0.39712  0.29437  1.0000
  H   H69       1.0  0.9867000000000002  0.26445000000000013  0.10377  1.0000
  H   H70       1.0  0.2502  0.52309  0.18928  1.0000
  H   H71       1.0  0.12234000000000009  0.11460000000000005  0.6884200000000001  1.0000
  H   H72       1.0  0.33849000000000007  0.8187  0.18985  1.0000
  H   H73       1.0  0.36392  0.12359000000000003  0.00052  1.0000
  H   H74       1.0  0.15559000000000006  0.16545000000000004  0.7728300000000001  1.0000
  H   H75       1.0  0.71099  0.40966  0.60542  1.0000
  H   H76       1.0  0.0011399999999999913  0.19396999999999998  0.18732  1.0000
  H   H77       1.0  0.22144000000000005  0.77947  0.10588  1.0000
  H   H78       1.0  0.12122000000000012  0.9527900000000001  0.6895700000000002  1.0000
  H   H79       1.0  0.53271  0.19711  0.10555  1.0000
  H   H80       1.0  0.7229300000000002  0.3573400000000001  0.6914300000000001  1.0000
  H   H81       1.0  0.21538000000000004  0.94114  0.10568  1.0000
  H   H82       1.0  0.8395500000000002  0.19723  0.18838  1.0000
  H   H83       1.0  0.17553  0.18660000000000004  0.50463  1.0000
  H   H84       1.0  0.35229  0.40143000000000006  0.7683200000000001  1.0000
  H   H85       1.0  0.17047  0.09391000000000002  0.6027  1.0000
  H   H86       1.0  0.4482200000000002  0.42195000000000005  0.6916400000000003  1.0000
  H   H87       1.0  0.8232800000000002  0.75132  0.52175  1.0000
  H   H88       1.0  0.8268300000000002  0.82246  0.72884  1.0000
  H   H89       1.0  0.8857100000000003  0.87771  0.31157  1.0000
  H   H90       1.0  0.8764800000000003  0.63613  0.99932  1.0000
  H   H91       1.0  0.058640000000000005  0.78472  0.89427  1.0000
  H   H92       1.0  0.8080700000000001  0.6391  0.06848  1.0000
  H   H93       1.0  0.4862600000000002  0.6747700000000001  0.8938100000000002  1.0000
  H   H94       1.0  0.5368400000000002  0.9838999999999999  0.49458  1.0000
  H   H95       1.0  0.8566900000000002  0.73066  0.16458  1.0000
  H   H96       1.0  0.7005500000000002  0.8077  0.10678000000000003  1.0000
  H   H97       1.0  0.6322300000000002  0.92138  0.02215  1.0000
  H   H98       1.0  0.5901000000000002  0.28903  0.39456  1.0000
  H   H99       1.0  0.31887000000000004  0.79243  0.30884  1.0000
  H   H100      1.0  0.48603000000000013  0.69957  0.19176000000000004  1.0000
  H   H101      1.0  0.6030000000000001  0.9725500000000002  0.70573  1.0000
  H   H102      1.0  0.70714  0.9537400000000001  0.7208300000000001  1.0000
  H   H103      1.0  0.78541  0.55973  0.00393  1.0000
  H   H104      1.0  0.7163500000000003  0.6284  0.10680000000000002  1.0000
  H   H105      1.0  0.47343000000000013  0.73146  0.15762  1.0000
  H   H106      1.0  0.53839  0.7552300000000002  0.42427000000000004  1.0000
  H   H107      1.0  0.15751000000000007  0.79565  0.30973  1.0000
  H   H108      1.0  0.5469800000000001  0.85466  0.60963  1.0000
  H   H109      1.0  0.5719300000000003  0.67508  0.72991  1.0000
  H   H110      1.0  0.31495000000000023  0.75307  0.8103500000000002  1.0000
  H   H111      1.0  0.5986000000000002  0.64756  0.23159  1.0000
  H   H112      1.0  0.5696600000000003  0.68497  0.28119  1.0000
  H   H113      1.0  0.7094700000000003  0.26705  0.8098  1.0000
  H   H114      1.0  0.7422500000000001  0.58864  0.66239  1.0000
  H   H115      1.0  0.5670499999999999  0.9599199999999999  0.57076  1.0000
  H   H116      1.0  0.8105600000000002  0.30676000000000003  0.8954600000000001  1.0000
  H   H117      1.0  0.6453  0.5795  0.39598000000000005  1.0000
  H   H118      1.0  0.6426000000000002  0.27678  0.30855  1.0000
  H   H119      1.0  0.04748000000000003  0.87843  0.31043  1.0000
  H   H120      1.0  0.8497500000000002  0.86813  0.98262  1.0000
  H   H121      1.0  0.8156400000000003  0.73424  0.23495  1.0000
  H   H122      1.0  0.6851300000000002  0.92223  0.22708  1.0000
  H   H123      1.0  0.64242  0.11537  0.3083  1.0000
  H   H124      1.0  0.7354500000000003  0.013549999999999996  0.89627  1.0000
  H   H125      1.0  0.80269  0.16044000000000005  0.8116500000000002  1.0000
  H   H126      1.0  0.7311800000000003  0.94057  0.00601  1.0000
  H   H127      1.0  0.80286  0.46763  0.89444  1.0000
  H   H128      1.0  0.6459500000000002  0.86217  0.9901500000000001  1.0000
  H   H129      1.0  0.7271300000000003  0.17438  0.89522  1.0000
  H   H130      1.0  0.6499100000000002  0.56772  0.68133  1.0000
  H   H131      1.0  0.59224  0.75905  0.59794  1.0000
  H   H132      1.0  0.7375  0.9877599999999999  0.47944  1.0000
  H   H133      1.0  0.69136  0.62182  0.9217600000000002  1.0000
  H   H134      1.0  0.58742  0.7012700000000002  0.13079  1.0000
  H   H135      1.0  0.6785100000000002  0.6240500000000002  0.97305  1.0000
  H   H136      1.0  0.7736100000000002  0.7958  0.56477  1.0000
  H   H137      1.0  0.19723000000000004  0.90023  0.39514  1.0000
  H   H138      1.0  0.5984400000000002  0.12849000000000002  0.39437000000000005  1.0000
  H   H139      1.0  0.52128  0.03362  0.52788  1.0000
  H   H140      1.0  0.3575500000000001  0.88988  0.39434  1.0000
  H   H141      1.0  0.7385600000000002  0.72852  0.4942500000000001  1.0000
  H   H142      1.0  0.6112499999999997  0.89563  0.73105  1.0000
  H   H143      1.0  0.8562400000000003  0.79565  0.77896  1.0000
  H   H144      1.0  0.6635600000000003  0.67282  0.63003  1.0000
  H   H145      1.0  0.06694  0.82432  0.39618  1.0000
  H   H146      1.0  0.5016200000000001  0.8121200000000002  0.18603000000000003  1.0000
  H   H147      1.0  0.6113700000000002  0.65564  0.7801100000000001  1.0000
  H   H148      1.0  0.6515400000000002  0.9480800000000003  0.27681  1.0000
  H   H149      1.0  0.4771100000000001  0.74976  0.8107000000000001  1.0000
  H   H150      1.0  0.5457400000000002  0.75959  0.47637  1.0000
  H   H151      1.0  0.6769200000000002  0.8722400000000002  0.06473  1.0000
  H   H152      1.0  0.8231200000000002  0.6823300000000002  0.11726000000000003  1.0000
  H   H153      1.0  0.6516000000000002  0.41859  0.39572  1.0000
  H   H154      1.0  0.22028000000000003  0.77856  0.89407  1.0000
  H   H155      1.0  0.5783500000000001  0.5516100000000003  0.30839  1.0000
  H   H156      1.0  0.46183000000000013  0.93115  0.51555  1.0000
  H   H157      1.0  0.75076  0.6173900000000001  0.6987200000000001  1.0000
  H   H158      1.0  0.8344500000000002  0.84436  0.22712  1.0000
  H   H159      1.0  0.6931300000000002  0.93299  0.61062  1.0000
  H   H160      1.0  0.8960500000000002  0.76501  0.21195  1.0000
  H   H161      1.0  0.59939  0.9275800000000004  0.6584  1.0000
  H   H162      1.0  0.32360000000000005  0.6743300000000002  0.89345  1.0000
  H   H163      1.0  0.8060000000000003  0.99888  0.81268  1.0000
  H   H164      1.0  0.5792100000000001  0.39033  0.30777  1.0000
  H   H165      1.0  0.8133200000000004  0.82441  0.49536  1.0000
  H   H166      1.0  0.7062800000000002  0.42875  0.80889  1.0000
  H   H167      1.0  0.18128000000000008  0.6615500000000002  0.81005  1.0000
  H   H168      1.0  0.9058700000000004  0.8299600000000003  0.39729  1.0000
  H   H169      1.0  0.8727400000000002  0.58216  0.03036  1.0000
  H   H170      1.0  0.02035000000000008  0.6709  0.8103500000000002  1.0000
  H   H171      1.0  0.7223800000000001  0.97395  0.4272000000000001  1.0000
  H   H172      1.0  0.85416  0.8566900000000001  0.9309100000000001  1.0000
  C   C1        1.0  0.30776000000000014  0.6425200000000002  0.12449  1.0000
  C   C2        1.0  0.8453400000000002  0.36765  0.67281  1.0000
  C   C3        1.0  0.19337999999999997  0.18348  0.058660000000000004  1.0000
  C   C4        1.0  0.24867  0.30395  0.27481  1.0000
  C   C5        1.0  0.13385000000000014  0.9834400000000001  0.6706000000000001  1.0000
  C   C6        1.0  0.2847200000000001  0.38953  0.75918  1.0000
  C   C7        1.0  0.24363000000000007  0.2583  0.92957  1.0000
  C   C8        1.0  0.27753  0.3422  0.35316  1.0000
  C   C9        1.0  0.02919000000000003  0.47384  0.4841400000000001  1.0000
  C   C10       1.0  0.22392000000000006  0.16911000000000007  0.78176  1.0000
  C   C11       1.0  0.31488  0.21159  0.97173  1.0000
  C   C12       1.0  0.23958000000000004  0.3275100000000002  0.8028300000000002  1.0000
  C   C13       1.0  0.7549300000000002  0.3688  0.67262  1.0000
  C   C14       1.0  0.2647000000000001  0.40618  0.73184  1.0000
  C   C15       1.0  0.2833400000000001  0.4101500000000001  0.14705  1.0000
  C   C16       1.0  0.5990100000000003  0.27155  0.17227  1.0000
  C   C17       1.0  0.1467600000000001  0.21145  0.64489  1.0000
  C   C18       1.0  0.8635400000000001  0.25359  0.12279000000000002  1.0000
  C   C19       1.0  0.9616600000000002  0.21056000000000002  0.16938000000000003  1.0000
  C   C20       1.0  0.1107800000000001  0.3206200000000001  0.9898100000000001  1.0000
  C   C21       1.0  0.8207000000000001  0.23549  0.14669  1.0000
  C   C22       1.0  0.28679000000000016  0.27476  0.8553400000000001  1.0000
  C   C23       1.0  0.12314000000000001  0.3476900000000001  0.48708  1.0000
  C   C24       1.0  0.24948000000000012  0.24361000000000008  0.9873400000000001  1.0000
  C   C25       1.0  0.3273600000000001  0.39112  0.64735  1.0000
  C   C26       1.0  0.07633000000000005  0.3911300000000001  0.44199  1.0000
  C   C27       1.0  0.19449000000000008  0.4187000000000001  0.56257  1.0000
  C   C28       1.0  0.12571  0.35715  0.51788  1.0000
  C   C29       1.0  0.2829  0.36361  0.85157  1.0000
  C   C30       1.0  0.3254700000000001  0.27465  0.06376  1.0000
  C   C31       1.0  0.19777  0.3715  0.35926  1.0000
  C   C32       1.0  0.2666600000000001  0.21262  0.83256  1.0000
  C   C33       1.0  0.2465600000000001  0.82333  0.12408000000000002  1.0000
  C   C34       1.0  0.30881000000000003  0.24721  0.88394  1.0000
  C   C35       1.0  0.21792000000000006  0.35412  0.77457  1.0000
  C   C36       1.0  0.14943  0.35398  0.30983  1.0000
  C   C37       1.0  0.28725  0.50829  0.14764  1.0000
  C   C38       1.0  0.6674100000000004  0.21397000000000005  0.12344000000000001  1.0000
  C   C39       1.0  0.16316  0.55504  0.64862  1.0000
  C   C40       1.0  0.25377  0.48743  0.8224  1.0000
  C   C41       1.0  0.2719  0.97009  0.14759  1.0000
  C   C42       1.0  0.4784500000000001  0.40693  0.6726  1.0000
  C   C43       1.0  0.00369000000000002  0.2285900000000001  0.14547  1.0000
  C   C44       1.0  0.4246000000000001  0.38972  0.64775  1.0000
  C   C45       1.0  0.3237  0.28106  0.03537  1.0000
  C   C46       1.0  0.26569  0.64801  0.17146  1.0000
  C   C47       1.0  0.30845  0.5519  0.12429000000000003  1.0000
  C   C48       1.0  0.17885000000000006  0.39344  0.38888  1.0000
  C   C49       1.0  0.68916  0.26862  0.17173000000000002  1.0000
  C   C50       1.0  0.54211  0.24628  0.14833  1.0000
  C   C51       1.0  0.10110000000000002  0.22747  0.14527  1.0000
  C   C52       1.0  0.31113000000000013  0.21874  0.94317  1.0000
  C   C53       1.0  0.22985000000000003  0.2058  0.23284  1.0000
  C   C54       1.0  0.9534900000000002  0.24975  0.12212  1.0000
  C   C55       1.0  0.16189999999999996  0.9718100000000001  0.62229  1.0000
  C   C56       1.0  0.12284000000000005  0.32839000000000007  0.42913  1.0000
  C   C57       1.0  0.5531900000000002  0.3667  0.62343  1.0000
  C   C58       1.0  0.18189000000000005  0.79912  0.67181  1.0000
  C   C59       1.0  0.18495  0.70903  0.67237  1.0000
  C   C60       1.0  0.8715900000000002  0.21347000000000002  0.16993  1.0000
  C   C61       1.0  0.2973900000000001  0.36439  0.26005  1.0000
  C   C62       1.0  0.13465000000000005  0.37735  0.33737000000000006  1.0000
  C   C63       1.0  0.24223  0.91332  0.12393  1.0000
  C   C64       1.0  0.7041400000000001  0.3831800000000001  0.64837  1.0000
  C   C65       1.0  0.06456  0.30731  0.53209  1.0000
  C   C66       1.0  0.3879200000000001  0.16686000000000004  0.9851000000000001  1.0000
  C   C67       1.0  0.1320400000000001  0.3408400000000001  0.7617300000000001  1.0000
  C   C68       1.0  0.24327000000000004  0.23757  0.80612  1.0000
  C   C69       1.0  0.2961500000000001  0.32018  0.32587  1.0000
  C   C70       1.0  0.12563000000000005  0.7769200000000003  0.6237  1.0000
  C   C71       1.0  0.38472000000000006  0.29227  0.32044  1.0000
  C   C72       1.0  0.30903  0.34303  0.2323  1.0000
  C   C73       1.0  0.17943000000000006  0.2909  0.94549  1.0000
  C   C74       1.0  0.15197000000000005  0.83499  0.64749  1.0000
  C   C75       1.0  0.2809300000000001  0.7875900000000002  0.14783  1.0000
  C   C76       1.0  0.57745  0.21761  0.1239  1.0000
  C   C77       1.0  0.25335000000000013  0.23693000000000006  0.01763  1.0000
  C   C78       1.0  0.21519000000000005  0.22278  0.26058  1.0000
  C   C79       1.0  0.14616  0.11407000000000003  0.64545  1.0000
  C   C80       1.0  0.21883999999999998  0.22372  0.49157  1.0000
  C   C81       1.0  0.14889  0.93058  0.64681  1.0000
  C   C82       1.0  0.74784  0.3957200000000001  0.62426  1.0000
  C   C83       1.0  0.19152000000000002  0.4141500000000002  0.53378  1.0000
  C   C84       1.0  0.44477000000000005  0.24801000000000006  0.14873  1.0000
  C   C85       1.0  0.07638000000000002  0.40231  0.47095  1.0000
  C   C86       1.0  0.2669600000000001  0.55752  0.17133  1.0000
  C   C87       1.0  0.8378900000000005  0.39219000000000004  0.62424  1.0000
  C   C88       1.0  0.18101000000000006  0.2834900000000001  0.9738900000000001  1.0000
  C   C89       1.0  0.2851300000000001  0.6920800000000001  0.14794  1.0000
  C   C90       1.0  0.13331000000000004  0.07380000000000003  0.67  1.0000
  C   C91       1.0  0.9850500000000002  0.37686  0.64869  1.0000
  C   C92       1.0  0.60829  0.38516  0.64821  1.0000
  C   C93       1.0  0.11693  0.35925  0.73429  1.0000
  C   C94       1.0  0.5687700000000002  0.4052400000000001  0.6728  1.0000
  C   C95       1.0  0.25918000000000013  0.39141000000000004  0.82558  1.0000
  C   C96       1.0  0.15989  0.6520900000000002  0.64842  1.0000
  C   C97       1.0  0.26911  0.06726  0.14735  1.0000
  C   C98       1.0  0.88775  0.37833  0.64854  1.0000
  C   C99       1.0  0.13033000000000003  0.68715  0.62407  1.0000
  C   C100      1.0  0.0784  0.35883  0.28694  1.0000
  C   C101      1.0  0.31030000000000013  0.84509  0.17150000000000004  1.0000
  C   C102      1.0  0.07164000000000002  0.31523  0.56094  1.0000
  C   C103      1.0  0.16001000000000007  0.06194  0.62156  1.0000
  C   C104      1.0  0.16942000000000007  0.28312  0.47444000000000003  1.0000
  C   C105      1.0  0.7252000000000002  0.23949  0.14732  1.0000
  C   C106      1.0  0.23128000000000007  0.3260900000000001  0.30415  1.0000
  C   C107      1.0  0.16898000000000005  0.27511000000000013  0.44557  1.0000
  C   C108      1.0  0.30575000000000013  0.93502  0.17142  1.0000
  C   C109      1.0  0.4630200000000002  0.36954  0.62315  1.0000
  C   C110      1.0  0.18733000000000005  0.187  0.030070000000000003  1.0000
  C   C111      1.0  0.72847  0.40098  0.82774  1.0000
  C   C112      1.0  0.6311400000000003  0.24484000000000006  0.32736  1.0000
  C   C113      1.0  0.67248  0.76034  0.19713  1.0000
  C   C114      1.0  0.64623  0.8505999999999999  0.69023  1.0000
  C   C115      1.0  0.75372  0.45800000000000013  0.85167  1.0000
  C   C116      1.0  0.8860600000000002  0.85462  0.35458  1.0000
  C   C117      1.0  0.6800000000000003  0.70382  0.6741400000000001  1.0000
  C   C118      1.0  0.6407100000000002  0.8829100000000004  0.26574  1.0000
  C   C119      1.0  0.3480300000000001  0.84011  0.35161000000000003  1.0000
  C   C120      1.0  0.6167  0.2957100000000001  0.35162000000000004  1.0000
  C   C121      1.0  0.6106000000000003  0.67284  0.35264000000000006  1.0000
  C   C122      1.0  0.7313500000000003  0.3108300000000001  0.8283  1.0000
  C   C123      1.0  0.7859300000000004  0.33283  0.87658  1.0000
  C   C124      1.0  0.6458400000000001  0.7819700000000003  0.2254  1.0000
  C   C125      1.0  0.31286000000000014  0.86972  0.37596  1.0000
  C   C126      1.0  0.60885  0.92375  0.5581  1.0000
  C   C127      1.0  0.52615  0.97087  0.51601  1.0000
  C   C128      1.0  0.016760000000000018  0.86606  0.32942  1.0000
  C   C129      1.0  0.5938500000000002  0.73511  0.26813  1.0000
  C   C130      1.0  0.7864400000000001  0.12845000000000006  0.8301  1.0000
  C   C131      1.0  0.58573  0.80843  0.46626  1.0000
  C   C132      1.0  0.59331  0.52146  0.32743  1.0000
  C   C133      1.0  0.7253000000000002  0.67467  0.93619  1.0000
  C   C134      1.0  0.4450600000000001  0.8365700000000003  0.3514  1.0000
  C   C135      1.0  0.78935  0.03838  0.83064  1.0000
  C   C136      1.0  0.2911500000000001  0.8150700000000002  0.32766  1.0000
  C   C137      1.0  0.6413000000000002  0.9216300000000001  0.71314  1.0000
  C   C138      1.0  0.7092  0.8205800000000002  0.05454  1.0000
  C   C139      1.0  0.78877  0.8549700000000002  0.35512  1.0000
  C   C140      1.0  0.6794100000000002  0.88924  0.01026  1.0000
  C   C141      1.0  0.63328  0.44673  0.37657000000000007  1.0000
  C   C142      1.0  0.7724500000000002  0.8989899999999998  0.85474  1.0000
  C   C143      1.0  0.76438  0.17942  0.85335  1.0000
  C   C144      1.0  0.60759  0.16205  0.3757300000000001  1.0000
  C   C145      1.0  0.9379500000000001  0.8404400000000002  0.3784500000000001  1.0000
  C   C146      1.0  0.7813800000000002  0.68887  0.05675  1.0000
  C   C147      1.0  0.62287  0.86532  0.6627  1.0000
  C   C148      1.0  0.63646  0.7169900000000002  0.14839  1.0000
  C   C149      1.0  0.7713100000000003  0.99642  0.85455  1.0000
  C   C150      1.0  0.7528800000000002  0.69109  0.11598  1.0000
  C   C151      1.0  0.22307000000000005  0.8744700000000001  0.37634  1.0000
  C   C152      1.0  0.49166000000000015  0.7127600000000002  0.8523200000000001  1.0000
  C   C153      1.0  0.06946  0.85107  0.35322  1.0000
  C   C154      1.0  0.7418100000000002  0.75635  0.0704  1.0000
  C   C155      1.0  0.6067200000000001  0.8209500000000002  0.61117  1.0000
  C   C156      1.0  0.7774000000000003  0.7849100000000002  0.7394300000000001  1.0000
  C   C157      1.0  0.6104600000000002  0.71513  0.24077  1.0000
  C   C158      1.0  0.7761600000000001  0.7810800000000001  0.50841  1.0000
  C   C159      1.0  0.62287  0.014839999999999999  0.35131  1.0000
  C   C160      1.0  0.5898000000000002  0.7167100000000002  0.8528800000000001  1.0000
  C   C161      1.0  0.83082  0.77602  0.21817  1.0000
  C   C162      1.0  0.8332200000000002  0.61211  0.014750000000000001  1.0000
  C   C163      1.0  0.60862  0.74073  0.17440000000000003  1.0000
  C   C164      1.0  0.20106000000000004  0.81817  0.32822  1.0000
  C   C165      1.0  0.7885200000000002  0.68515  0.02818  1.0000
  C   C166      1.0  0.7247700000000002  0.83099  0.55444  1.0000
  C   C167      1.0  0.8165200000000002  0.80674  0.9413  1.0000
  C   C168      1.0  0.61098  0.57545  0.35228  1.0000
  C   C169      1.0  0.69255  0.9354  0.46797  1.0000
  C   C170      1.0  0.78741  0.73324  0.16736  1.0000
  C   C171      1.0  0.6741200000000003  0.76876  0.69587  1.0000
  C   C172      1.0  0.06497000000000004  0.6943800000000001  0.8285000000000001  1.0000
  C   C173      1.0  0.21233000000000005  0.7191000000000002  0.85209  1.0000
  C   C174      1.0  0.7943600000000002  0.77018  0.76715  1.0000
  C   C175      1.0  0.44791000000000003  0.69154  0.87565  1.0000
  C   C176      1.0  0.7631300000000002  0.74674  0.9823300000000001  1.0000
  C   C177      1.0  0.02802000000000004  0.8380500000000003  0.37771  1.0000
  C   C178      1.0  0.65221  0.8768099999999999  0.51297  1.0000
  C   C179      1.0  0.6715400000000002  0.8772100000000003  0.57092  1.0000
  C   C180      1.0  0.6962600000000002  0.75142  0.7252  1.0000
  C   C181      1.0  0.6591000000000004  0.8678500000000001  0.23828  1.0000
  C   C182      1.0  0.78236  0.4227900000000001  0.8761  1.0000
  C   C183      1.0  0.7501200000000002  0.04669  0.87791  1.0000
  C   C184      1.0  0.7166  0.8190300000000003  0.02613  1.0000
  C   C185      1.0  0.74628  0.13665  0.8772500000000001  1.0000
  C   C186      1.0  0.64274  0.87424  0.48217  1.0000
  C   C187      1.0  0.5126000000000002  0.74615  0.1776  1.0000
  C   C188      1.0  0.15490000000000007  0.6898  0.82842  1.0000
  C   C189      1.0  0.5976500000000001  0.9236500000000002  0.52914  1.0000
  C   C190      1.0  0.7078  0.6152300000000002  0.67954  1.0000
  C   C191      1.0  0.5811600000000002  0.80549  0.43748  1.0000
  C   C192      1.0  0.16508  0.84811  0.35254  1.0000
  C   C193      1.0  0.6214600000000002  0.11211000000000003  0.35142  1.0000
  C   C194      1.0  0.6306400000000002  0.53694  0.37687  1.0000
  C   C195      1.0  0.76242  0.75665  0.19382  1.0000
  C   C196      1.0  0.65716  0.69093  0.76768  1.0000
  C   C197      1.0  0.72531  0.71309  0.1446  1.0000
  C   C198      1.0  0.08650000000000004  0.75785  0.876  1.0000
  C   C199      1.0  0.3520400000000001  0.7342700000000002  0.82848  1.0000
  C   C200      1.0  0.6287100000000002  0.80214  0.6407900000000001  1.0000
  C   C201      1.0  0.71896  0.6764  0.96459  1.0000
  C   C202      1.0  0.02980000000000004  0.7282600000000001  0.8523400000000001  1.0000
  C   C203      1.0  0.7520300000000002  0.55533  0.85127  1.0000
  C   C204      1.0  0.9326200000000003  0.7310600000000002  0.85259  1.0000
  C   C205      1.0  0.9264500000000003  0.86697  0.33001  1.0000
  C   C206      1.0  0.6147900000000002  0.3915900000000001  0.35179000000000005  1.0000
  C   C207      1.0  0.6579800000000002  0.72239  0.64686  1.0000
  C   C208      1.0  0.7603900000000001  0.27492000000000005  0.8527200000000001  1.0000
  C   C209      1.0  0.3572800000000001  0.69222  0.8754300000000002  1.0000
  C   C210      1.0  0.17648000000000008  0.7534900000000001  0.87585  1.0000
  C   C211      1.0  0.6358100000000002  0.70263  0.73995  1.0000
  C   C212      1.0  0.7167500000000002  0.8305  0.52557  1.0000
  C   C213      1.0  0.44253  0.73302  0.82862  1.0000
  C   C214      1.0  0.8130700000000002  0.81275  0.9699000000000001  1.0000
  C   C215      1.0  0.75648  0.75058  0.01263  1.0000
  C   C216      1.0  0.59473  0.43109  0.32721  1.0000
  C   C217      1.0  0.3078400000000001  0.7148400000000001  0.8519900000000002  1.0000
  C   C218      1.0  0.6322900000000002  0.15443  0.32716  1.0000
  C   C219      1.0  0.6846400000000001  0.9283300000000003  0.43911000000000006  1.0000
  C   C220      1.0  0.6041  0.25210000000000005  0.3757300000000001  1.0000
  N   N1        1.0  0.18234  0.3901100000000001  0.71939  1.0000
  N   N2        1.0  0.13576  0.36978  0.57592  1.0000
  N   N3        1.0  0.26129000000000024  0.22666000000000006  0.07532  1.0000
  N   N4        1.0  0.23813000000000006  0.26405  0.90135  1.0000
  N   N5        1.0  0.12849000000000005  0.31719  0.39966  1.0000
  N   N6        1.0  0.2756300000000001  0.26508  0.21878  1.0000
  N   N7        1.0  0.60989  0.8174600000000002  0.28061  1.0000
  N   N8        1.0  0.77325  0.73888  0.92463  1.0000
  N   N9        1.0  0.6827700000000002  0.87168  0.60039  1.0000
  N   N10       1.0  0.7360400000000001  0.76181  0.09862000000000003  1.0000
  N   N11       1.0  0.63008  0.86422  0.42412  1.0000
  N   N12       1.0  0.73508  0.72432  0.78119  1.0000
  O   O1        1.0  0.41512  0.26418  0.17215000000000003  1.0000
  O   O2        1.0  0.14366  0.22093  0.16842  1.0000
  O   O3        1.0  0.02825000000000005  0.3853300000000001  0.67242  1.0000
  O   O4        1.0  0.3993600000000001  0.23223  0.12534  1.0000
  O   O5        1.0  0.2949500000000001  0.39652  0.67074  1.0000
  O   O6        1.0  0.14772  0.25587  0.6682  1.0000
  O   O7        1.0  0.14681000000000005  0.24233000000000007  0.62121  1.0000
  O   O8        1.0  0.27622  0.37675  0.17017  1.0000
  O   O9        1.0  0.2847700000000001  0.38578  0.62361  1.0000
  O   O10       1.0  0.17258  0.52436  0.67217  1.0000
  O   O11       1.0  0.28599  0.36793  0.12359000000000003  1.0000
  O   O12       1.0  0.016740000000000036  0.36799  0.62525  1.0000
  O   O13       1.0  0.2862  0.11259000000000001  0.17074000000000003  1.0000
  O   O14       1.0  0.25082000000000004  0.09667000000000002  0.12405000000000001  1.0000
  O   O15       1.0  0.13403  0.23414  0.12207  1.0000
  O   O16       1.0  0.15556000000000003  0.51069  0.62503  1.0000
  O   O17       1.0  0.6315700000000002  0.9834800000000004  0.37477000000000005  1.0000
  O   O18       1.0  0.9031700000000003  0.74919  0.87592  1.0000
  O   O19       1.0  0.6319800000000001  0.71411  0.8763200000000001  1.0000
  O   O20       1.0  0.77907  0.8564  0.83158  1.0000
  O   O21       1.0  0.76578  0.86607  0.87794  1.0000
  O   O22       1.0  0.8873300000000002  0.71392  0.82922  1.0000
  O   O23       1.0  0.61457  0.97133  0.3276  1.0000
  O   O24       1.0  0.6065  0.70515  0.32925  1.0000
  O   O25       1.0  0.7443700000000002  0.85252  0.33179  1.0000
  O   O26       1.0  0.7677800000000002  0.6008  0.8746600000000001  1.0000
  O   O27       1.0  0.4758000000000001  0.8268200000000001  0.32784  1.0000
  O   O28       1.0  0.4893500000000002  0.84437  0.37498  1.0000
  O   O29       1.0  0.6149500000000002  0.71558  0.37636000000000003  1.0000
  O   O30       1.0  0.7579200000000003  0.8569100000000002  0.37885  1.0000
  O   O31       1.0  0.6232200000000002  0.72377  0.82973  1.0000
  O   O32       1.0  0.7358900000000003  0.58491  0.82785  1.0000
