data_image0
_chemical_formula_structural       Ni12H152C208N24O56
_chemical_formula_sum              "Ni12 H152 C208 N24 O56"
_cell_length_a       16.12005
_cell_length_b       16.11827
_cell_length_c       30.50609
_cell_angle_alpha    90.0
_cell_angle_beta     89.99910999999999
_cell_angle_gamma    90.01895999999999

_symmetry_space_group_name_H-M    'P 1'
_symmetry_Int_Tables_number       1

loop_
  _symmetry_equiv_pos_as_xyz
  'x,y,z'

loop_
  _atom_site_type_symbol
  _atom_site_label
  _atom_site_symmetry_multiplicity
  _atom_site_fract_x
  _atom_site_fract_y
  _atom_site_fract_z
  _atom_site_occupancy
  Ni  Ni1       1.0  0.00867  0.2654  0.7485000000000003  1.0000
  Ni  Ni2       1.0  0.9914299999999998  0.7346599999999998  0.24849000000000004  1.0000
  Ni  Ni3       1.0  0.73471  0.0091  0.9990200000000001  1.0000
  Ni  Ni4       1.0  0.26527  0.9908399999999998  0.4990300000000001  1.0000
  Ni  Ni5       1.0  0.99089  0.2653399999999999  0.25145  1.0000
  Ni  Ni6       1.0  0.009079999999999996  0.73468  0.7514200000000002  1.0000
  Ni  Ni7       1.0  0.26529  0.00876  0.00109  1.0000
  Ni  Ni8       1.0  0.7346199999999998  0.99115  0.50105  1.0000
  Ni  Ni9       1.0  0.53278  0.5325  0.8749100000000002  1.0000
  Ni  Ni10      1.0  0.46723  0.4674899999999999  0.3749200000000001  1.0000
  Ni  Ni11      1.0  0.46719  0.53254  0.12508  1.0000
  Ni  Ni12      1.0  0.5328  0.46747  0.62508  1.0000
  H   H1        1.0  0.73835  0.3983099999999999  0.8301300000000003  1.0000
  H   H2        1.0  0.86905  0.16922999999999994  0.8492500000000001  1.0000
  H   H3        1.0  0.6511099999999997  0.22414  0.9265100000000002  1.0000
  H   H4        1.0  0.7025299999999998  0.53004  0.9022200000000002  1.0000
  H   H5        1.0  0.79531  0.6076499999999998  0.95385  1.0000
  H   H6        1.0  0.73192  0.71673  0.0030900000000000007  1.0000
  H   H7        1.0  0.58045  0.74481  0.9971300000000002  1.0000
  H   H8        1.0  0.49513  0.65734  0.9446300000000002  1.0000
  H   H9        1.0  0.1354  0.39832  0.73724  1.0000
  H   H10       1.0  0.23565  0.47717  0.7862600000000002  1.0000
  H   H11       1.0  0.23802  0.44523  0.8659100000000002  1.0000
  H   H12       1.0  0.14049  0.33377999999999997  0.8953300000000002  1.0000
  H   H13       1.0  0.04369  0.2639799999999999  0.8421000000000002  1.0000
  H   H14       1.0  0.17747  0.18856999999999993  0.7592400000000002  1.0000
  H   H15       1.0  0.23827  0.06406999999999997  0.7971100000000001  1.0000
  H   H16       1.0  0.14021  0.95979  0.83113  1.0000
  H   H17       1.0  0.98699  0.9834599999999998  0.8240800000000003  1.0000
  H   H18       1.0  0.93803  0.11295  0.78521  1.0000
  H   H19       1.0  0.00549  0.18116999999999994  0.6757700000000002  1.0000
  H   H20       1.0  0.26164  0.60171  0.33015  1.0000
  H   H21       1.0  0.13099999999999995  0.8308099999999998  0.3493000000000001  1.0000
  H   H22       1.0  0.3489599999999999  0.7758399999999998  0.42652  1.0000
  H   H23       1.0  0.29747  0.4699599999999999  0.40222  1.0000
  H   H24       1.0  0.20469  0.39236  0.4538600000000001  1.0000
  H   H25       1.0  0.26808  0.2832899999999999  0.5031000000000002  1.0000
  H   H26       1.0  0.41955  0.25519  0.4971300000000001  1.0000
  H   H27       1.0  0.50486  0.34266  0.44463000000000014  1.0000
  H   H28       1.0  0.8646  0.60168  0.23725000000000004  1.0000
  H   H29       1.0  0.76435  0.52283  0.28626  1.0000
  H   H30       1.0  0.7619699999999998  0.5547799999999998  0.36592  1.0000
  H   H31       1.0  0.85949  0.6662199999999998  0.39534  1.0000
  H   H32       1.0  0.9562899999999998  0.73601  0.34211000000000014  1.0000
  H   H33       1.0  0.82253  0.81144  0.25925  1.0000
  H   H34       1.0  0.7617199999999997  0.93594  0.29711  1.0000
  H   H35       1.0  0.85976  0.04024999999999999  0.33113  1.0000
  H   H36       1.0  0.012989999999999996  0.01658  0.32409  1.0000
  H   H37       1.0  0.06196  0.88707  0.28521  1.0000
  H   H38       1.0  0.99426  0.8188799999999998  0.17572  1.0000
  H   H39       1.0  0.6016499999999998  0.7384  0.0801  1.0000
  H   H40       1.0  0.8307  0.86936  0.09925000000000003  1.0000
  H   H41       1.0  0.77577  0.65119  0.17646000000000006  1.0000
  H   H42       1.0  0.46987  0.70245  0.15230000000000005  1.0000
  H   H43       1.0  0.3922799999999999  0.79537  0.20388000000000006  1.0000
  H   H44       1.0  0.2831399999999999  0.7320599999999998  0.25312  1.0000
  H   H45       1.0  0.25498  0.58045  0.24723000000000006  1.0000
  H   H46       1.0  0.34244  0.4951399999999999  0.19477000000000005  1.0000
  H   H47       1.0  0.6016  0.13552  0.98726  1.0000
  H   H48       1.0  0.52276  0.23573999999999995  0.03628  1.0000
  H   H49       1.0  0.55484  0.23800999999999994  0.11597  1.0000
  H   H50       1.0  0.6661899999999997  0.14053999999999997  0.14535000000000006  1.0000
  H   H51       1.0  0.73586  0.04380999999999999  0.09206  1.0000
  H   H52       1.0  0.81152  0.17756  0.00924  1.0000
  H   H53       1.0  0.9359999999999998  0.23835  0.047150000000000004  1.0000
  H   H54       1.0  0.04024  0.14031  0.08115000000000003  1.0000
  H   H55       1.0  0.01646  0.9870699999999998  0.07407000000000002  1.0000
  H   H56       1.0  0.8870299999999998  0.9380299999999998  0.03519  1.0000
  H   H57       1.0  0.81819  0.0051  0.9262300000000002  1.0000
  H   H58       1.0  0.39834999999999987  0.26162  0.5801000000000002  1.0000
  H   H59       1.0  0.16930999999999993  0.13065999999999994  0.59923  1.0000
  H   H60       1.0  0.22422  0.34881  0.67646  1.0000
  H   H61       1.0  0.53013  0.2975599999999999  0.6523  1.0000
  H   H62       1.0  0.60771  0.20463999999999993  0.7038800000000002  1.0000
  H   H63       1.0  0.71685  0.26794  0.7531200000000001  1.0000
  H   H64       1.0  0.74502  0.41955  0.7472300000000002  1.0000
  H   H65       1.0  0.6575499999999997  0.5048599999999998  0.6947700000000002  1.0000
  H   H66       1.0  0.39839  0.86451  0.48726000000000014  1.0000
  H   H67       1.0  0.47721  0.76429  0.5362800000000002  1.0000
  H   H68       1.0  0.44513999999999987  0.76201  0.6159600000000002  1.0000
  H   H69       1.0  0.3338  0.85947  0.6453300000000002  1.0000
  H   H70       1.0  0.26414  0.9562099999999998  0.5920500000000001  1.0000
  H   H71       1.0  0.18849  0.8224399999999997  0.5092400000000001  1.0000
  H   H72       1.0  0.06399  0.7616399999999998  0.5471400000000002  1.0000
  H   H73       1.0  0.95975  0.8597  0.58115  1.0000
  H   H74       1.0  0.9835099999999998  0.01294  0.57407  1.0000
  H   H75       1.0  0.11295999999999998  0.061979999999999986  0.53519  1.0000
  H   H76       1.0  0.18147  0.9946999999999999  0.42620000000000013  1.0000
  H   H77       1.0  0.26168999999999987  0.39832  0.16986000000000007  1.0000
  H   H78       1.0  0.13076  0.16924  0.15081  1.0000
  H   H79       1.0  0.3488  0.22411  0.07352  1.0000
  H   H80       1.0  0.29744  0.52998  0.09777000000000002  1.0000
  H   H81       1.0  0.20467  0.60764  0.04616  1.0000
  H   H82       1.0  0.26809  0.71678  0.9969500000000002  1.0000
  H   H83       1.0  0.4195699999999999  0.74487  0.00288  1.0000
  H   H84       1.0  0.50489  0.65734  0.055340000000000014  1.0000
  H   H85       1.0  0.86456  0.3983299999999999  0.26273  1.0000
  H   H86       1.0  0.76433  0.47718  0.21372000000000005  1.0000
  H   H87       1.0  0.76203  0.44517  0.13409  1.0000
  H   H88       1.0  0.85947  0.33379  0.10464000000000002  1.0000
  H   H89       1.0  0.95621  0.2640899999999999  0.15790000000000007  1.0000
  H   H90       1.0  0.82251  0.18856999999999993  0.24076000000000006  1.0000
  H   H91       1.0  0.7617099999999998  0.06404  0.20287  1.0000
  H   H92       1.0  0.85972  0.9597999999999998  0.16887  1.0000
  H   H93       1.0  0.01297  0.98356  0.17594000000000007  1.0000
  H   H94       1.0  0.06195  0.11304  0.21481000000000006  1.0000
  H   H95       1.0  0.99475  0.18177  0.3240500000000001  1.0000
  H   H96       1.0  0.73829  0.6016699999999998  0.6698600000000002  1.0000
  H   H97       1.0  0.86923  0.8307399999999998  0.6508200000000002  1.0000
  H   H98       1.0  0.6512299999999998  0.7759  0.5735300000000002  1.0000
  H   H99       1.0  0.70256  0.47002  0.59776  1.0000
  H   H100      1.0  0.79533  0.39237  0.5461600000000002  1.0000
  H   H101      1.0  0.73191  0.28322  0.4969500000000001  1.0000
  H   H102      1.0  0.58043  0.25513  0.50288  1.0000
  H   H103      1.0  0.49511  0.34266  0.55534  1.0000
  H   H104      1.0  0.13541  0.60168  0.7627300000000002  1.0000
  H   H105      1.0  0.23563999999999993  0.52285  0.71372  1.0000
  H   H106      1.0  0.23794999999999994  0.5548399999999998  0.63409  1.0000
  H   H107      1.0  0.14052  0.6662199999999998  0.60465  1.0000
  H   H108      1.0  0.04377  0.73592  0.65791  1.0000
  H   H109      1.0  0.17749  0.81144  0.74075  1.0000
  H   H110      1.0  0.23830999999999994  0.9359699999999997  0.70287  1.0000
  H   H111      1.0  0.14029  0.04022  0.6688700000000002  1.0000
  H   H112      1.0  0.9870299999999997  0.01648  0.6759200000000002  1.0000
  H   H113      1.0  0.9380399999999999  0.88698  0.7148000000000002  1.0000
  H   H114      1.0  0.00545  0.81829  0.8241600000000002  1.0000
  H   H115      1.0  0.39833  0.7385  0.9199000000000003  1.0000
  H   H116      1.0  0.16923  0.86911  0.9006700000000002  1.0000
  H   H117      1.0  0.22428  0.65103  0.8235200000000003  1.0000
  H   H118      1.0  0.5301899999999998  0.70242  0.8477200000000003  1.0000
  H   H119      1.0  0.6077199999999998  0.79535  0.7961  1.0000
  H   H120      1.0  0.71679  0.73207  0.74683  1.0000
  H   H121      1.0  0.74496  0.58048  0.75275  1.0000
  H   H122      1.0  0.6575499999999997  0.49516  0.80525  1.0000
  H   H123      1.0  0.39838  0.13547  0.012780000000000003  1.0000
  H   H124      1.0  0.47722  0.23571  0.96376  1.0000
  H   H125      1.0  0.44517  0.23803  0.8840400000000003  1.0000
  H   H126      1.0  0.33377  0.14046999999999996  0.8546900000000001  1.0000
  H   H127      1.0  0.26403  0.04369999999999999  0.9079700000000003  1.0000
  H   H128      1.0  0.18847999999999995  0.17753999999999995  0.9907600000000002  1.0000
  H   H129      1.0  0.06403  0.23836999999999994  0.9528600000000003  1.0000
  H   H130      1.0  0.95972  0.14025999999999994  0.9188500000000002  1.0000
  H   H131      1.0  0.9834099999999998  0.98705  0.9258900000000002  1.0000
  H   H132      1.0  0.11287  0.9380199999999997  0.9648100000000002  1.0000
  H   H133      1.0  0.181  0.00548  0.07403000000000003  1.0000
  H   H134      1.0  0.6016599999999998  0.26153  0.4199100000000001  1.0000
  H   H135      1.0  0.83072  0.13085  0.4007  1.0000
  H   H136      1.0  0.77574  0.34891  0.32353  1.0000
  H   H137      1.0  0.4698099999999999  0.2975899999999999  0.34771000000000013  1.0000
  H   H138      1.0  0.39227  0.20466  0.2961  1.0000
  H   H139      1.0  0.28319  0.26793  0.24684000000000006  1.0000
  H   H140      1.0  0.25503  0.4195299999999999  0.2527500000000001  1.0000
  H   H141      1.0  0.34244999999999987  0.50484  0.30525000000000013  1.0000
  H   H142      1.0  0.60162  0.86452  0.51279  1.0000
  H   H143      1.0  0.5227699999999997  0.76429  0.4637500000000001  1.0000
  H   H144      1.0  0.55482  0.7619699999999998  0.3840400000000001  1.0000
  H   H145      1.0  0.66622  0.85954  0.3546900000000001  1.0000
  H   H146      1.0  0.73598  0.9563099999999998  0.40797  1.0000
  H   H147      1.0  0.8115  0.82246  0.4907700000000001  1.0000
  H   H148      1.0  0.93597  0.7616399999999998  0.4528600000000001  1.0000
  H   H149      1.0  0.04025  0.85976  0.41885  1.0000
  H   H150      1.0  0.01656  0.012969999999999997  0.4259  1.0000
  H   H151      1.0  0.88711  0.061979999999999986  0.4648100000000001  1.0000
  H   H152      1.0  0.81886  0.99471  0.57397  1.0000
  C   C1        1.0  0.60962  0.36995  0.8902300000000002  1.0000
  C   C2        1.0  0.68426  0.31633  0.87929  1.0000
  C   C3        1.0  0.74284  0.3393199999999999  0.84745  1.0000
  C   C4        1.0  0.80872  0.28631  0.8367900000000003  1.0000
  C   C5        1.0  0.86941  0.3118  0.80141  1.0000
  C   C6        1.0  0.81801  0.20999  0.8585700000000003  1.0000
  C   C7        1.0  0.76103  0.18802  0.8913800000000002  1.0000
  C   C8        1.0  0.7686  0.11142  0.9174300000000002  1.0000
  C   C9        1.0  0.6955  0.24162999999999996  0.9015500000000001  1.0000
  C   C10       1.0  0.6785699999999999  0.57657  0.9247500000000002  1.0000
  C   C11       1.0  0.7292  0.62066  0.95337  1.0000
  C   C12       1.0  0.69398  0.6811299999999998  0.9803500000000003  1.0000
  C   C13       1.0  0.60875  0.69573  0.9776100000000002  1.0000
  C   C14       1.0  0.56161  0.64872  0.9485400000000003  1.0000
  C   C15       1.0  0.13846  0.38834  0.77258  1.0000
  C   C16       1.0  0.19361999999999993  0.43068  0.7996800000000002  1.0000
  C   C17       1.0  0.19494  0.4122399999999999  0.8445400000000002  1.0000
  C   C18       1.0  0.14126  0.35114  0.86074  1.0000
  C   C19       1.0  0.08741999999999997  0.3117799999999999  0.8316900000000003  1.0000
  C   C20       1.0  0.13846  0.14122  0.7741600000000002  1.0000
  C   C21       1.0  0.17126  0.07218  0.7954300000000002  1.0000
  C   C22       1.0  0.11698  0.01436  0.8140600000000001  1.0000
  C   C23       1.0  0.03154999999999999  0.027309999999999994  0.8103900000000002  1.0000
  C   C24       1.0  0.003489999999999999  0.09803  0.78862  1.0000
  C   C25       1.0  0.88005  0.2033  0.6758  1.0000
  C   C26       1.0  0.83563  0.20039  0.6420300000000002  1.0000
  C   C27       1.0  0.39042  0.63005  0.39023  1.0000
  C   C28       1.0  0.3158  0.68366  0.3792900000000001  1.0000
  C   C29       1.0  0.25718  0.66069  0.3474700000000001  1.0000
  C   C30       1.0  0.19129  0.71369  0.33679  1.0000
  C   C31       1.0  0.13059  0.68826  0.30142000000000013  1.0000
  C   C32       1.0  0.18202  0.78999  0.3585800000000001  1.0000
  C   C33       1.0  0.23899  0.81194  0.39141  1.0000
  C   C34       1.0  0.23134999999999997  0.88852  0.4174500000000001  1.0000
  C   C35       1.0  0.30456  0.75836  0.4015600000000001  1.0000
  C   C36       1.0  0.32142  0.42343  0.4247500000000001  1.0000
  C   C37       1.0  0.2708  0.37935  0.4533700000000001  1.0000
  C   C38       1.0  0.30602  0.31888  0.48035  1.0000
  C   C39       1.0  0.3912399999999999  0.30428  0.4776100000000001  1.0000
  C   C40       1.0  0.43838  0.35128  0.4485400000000001  1.0000
  C   C41       1.0  0.86154  0.61167  0.27258  1.0000
  C   C42       1.0  0.80638  0.56933  0.29968  1.0000
  C   C43       1.0  0.80506  0.5877599999999997  0.34455  1.0000
  C   C44       1.0  0.85873  0.64886  0.3607500000000001  1.0000
  C   C45       1.0  0.91257  0.6882299999999999  0.33169  1.0000
  C   C46       1.0  0.86156  0.8587899999999998  0.27416  1.0000
  C   C47       1.0  0.82874  0.92782  0.29543  1.0000
  C   C48       1.0  0.8830099999999997  0.98566  0.31407  1.0000
  C   C49       1.0  0.9684399999999997  0.9727  0.3103800000000001  1.0000
  C   C50       1.0  0.9964999999999999  0.90198  0.2886200000000001  1.0000
  C   C51       1.0  0.12015  0.79669  0.17561000000000004  1.0000
  C   C52       1.0  0.16426999999999994  0.79957  0.14218000000000006  1.0000
  C   C53       1.0  0.63077  0.6094199999999997  0.14037  1.0000
  C   C54       1.0  0.68366  0.6844599999999997  0.12943000000000005  1.0000
  C   C55       1.0  0.66054  0.74283  0.09753000000000003  1.0000
  C   C56       1.0  0.7134699999999998  0.8086899999999998  0.0867  1.0000
  C   C57       1.0  0.6881  0.86924  0.05109000000000002  1.0000
  C   C58       1.0  0.7897899999999998  0.81835  0.10857  1.0000
  C   C59       1.0  0.81187  0.76128  0.14137  1.0000
  C   C60       1.0  0.88837  0.7685799999999998  0.16743  1.0000
  C   C61       1.0  0.75841  0.69573  0.15158000000000005  1.0000
  C   C62       1.0  0.42322  0.6786  0.17481000000000005  1.0000
  C   C63       1.0  0.3792099999999999  0.72926  0.20342000000000005  1.0000
  C   C64       1.0  0.31868999999999986  0.69407  0.23039000000000007  1.0000
  C   C65       1.0  0.30401  0.60884  0.22771000000000005  1.0000
  C   C66       1.0  0.3509599999999999  0.56164  0.19867  1.0000
  C   C67       1.0  0.61154  0.13863  0.02259  1.0000
  C   C68       1.0  0.56922  0.19373  0.04971000000000001  1.0000
  C   C69       1.0  0.58775  0.19499  0.09456  1.0000
  C   C70       1.0  0.6488199999999997  0.14133  0.11077  1.0000
  C   C71       1.0  0.68813  0.08757999999999998  0.0817  1.0000
  C   C72       1.0  0.8588199999999998  0.1385  0.024150000000000005  1.0000
  C   C73       1.0  0.92787  0.17131999999999994  0.04544  1.0000
  C   C74       1.0  0.98564  0.11705  0.06408  1.0000
  C   C75       1.0  0.97262  0.03161  0.06036000000000001  1.0000
  C   C76       1.0  0.90189  0.0035199999999999993  0.0386  1.0000
  C   C77       1.0  0.79661  0.87916  0.9256000000000002  1.0000
  C   C78       1.0  0.79943  0.83615  0.89255  1.0000
  C   C79       1.0  0.36923  0.39057999999999987  0.6403700000000002  1.0000
  C   C80       1.0  0.31633  0.31555  0.62943  1.0000
  C   C81       1.0  0.33946  0.25717  0.5975300000000002  1.0000
  C   C82       1.0  0.28652  0.19129999999999994  0.58672  1.0000
  C   C83       1.0  0.31194  0.13072  0.5511100000000001  1.0000
  C   C84       1.0  0.21019  0.18166999999999994  0.6085800000000002  1.0000
  C   C85       1.0  0.18808999999999995  0.23871999999999993  0.6413700000000002  1.0000
  C   C86       1.0  0.11152999999999998  0.23138999999999996  0.6674100000000002  1.0000
  C   C87       1.0  0.24158  0.3042699999999999  0.6515800000000003  1.0000
  C   C88       1.0  0.57678  0.3214  0.6748100000000002  1.0000
  C   C89       1.0  0.62079  0.27073999999999987  0.7034200000000003  1.0000
  C   C90       1.0  0.68131  0.30592999999999987  0.73039  1.0000
  C   C91       1.0  0.69599  0.3911599999999999  0.7277100000000002  1.0000
  C   C92       1.0  0.64903  0.43836  0.69867  1.0000
  C   C93       1.0  0.38843  0.8613999999999998  0.52259  1.0000
  C   C94       1.0  0.4307499999999999  0.8063099999999997  0.5497100000000003  1.0000
  C   C95       1.0  0.41224  0.8050299999999998  0.59456  1.0000
  C   C96       1.0  0.35117  0.85869  0.61075  1.0000
  C   C97       1.0  0.31186  0.91245  0.5816800000000002  1.0000
  C   C98       1.0  0.14119  0.8615099999999998  0.52415  1.0000
  C   C99       1.0  0.07214  0.82868  0.54543  1.0000
  C   C100      1.0  0.01436  0.8829499999999998  0.5640900000000002  1.0000
  C   C101      1.0  0.02736999999999999  0.9683999999999998  0.56036  1.0000
  C   C102      1.0  0.09811  0.99648  0.53859  1.0000
  C   C103      1.0  0.20308  0.12081999999999997  0.4255400000000001  1.0000
  C   C104      1.0  0.20048  0.16372999999999993  0.3926600000000001  1.0000
  C   C105      1.0  0.39035  0.36989  0.10976000000000002  1.0000
  C   C106      1.0  0.31569  0.3163  0.12072000000000002  1.0000
  C   C107      1.0  0.25712  0.3393199999999999  0.15254000000000006  1.0000
  C   C108      1.0  0.19123  0.2862599999999999  0.16321000000000005  1.0000
  C   C109      1.0  0.13052  0.31185  0.19860000000000005  1.0000
  C   C110      1.0  0.18188999999999994  0.20991999999999997  0.14143000000000006  1.0000
  C   C111      1.0  0.23897  0.18799  0.10864000000000003  1.0000
  C   C112      1.0  0.23141  0.11148  0.08259000000000002  1.0000
  C   C113      1.0  0.30445  0.24161  0.09847000000000003  1.0000
  C   C114      1.0  0.32141  0.57654  0.07524  1.0000
  C   C115      1.0  0.27079  0.62065  0.04664  1.0000
  C   C116      1.0  0.30603  0.68117  0.01968  1.0000
  C   C117      1.0  0.39126  0.6957599999999998  0.0224  1.0000
  C   C118      1.0  0.43839  0.64874  0.05145000000000002  1.0000
  C   C119      1.0  0.86147  0.38841  0.22739000000000006  1.0000
  C   C120      1.0  0.80634  0.4307199999999999  0.20029000000000005  1.0000
  C   C121      1.0  0.80505  0.41223  0.15545  1.0000
  C   C122      1.0  0.8586899999999997  0.3511799999999999  0.13922000000000007  1.0000
  C   C123      1.0  0.91249  0.3118599999999999  0.16827  1.0000
  C   C124      1.0  0.86153  0.14122  0.22584000000000007  1.0000
  C   C125      1.0  0.82872  0.07215999999999997  0.20457000000000006  1.0000
  C   C126      1.0  0.88298  0.01438  0.18592  1.0000
  C   C127      1.0  0.9684  0.02737  0.18964000000000003  1.0000
  C   C128      1.0  0.9964800000000001  0.09812  0.21140000000000006  1.0000
  C   C129      1.0  0.12091  0.20319  0.32466000000000006  1.0000
  C   C130      1.0  0.16386999999999996  0.20041  0.35751  1.0000
  C   C131      1.0  0.60966  0.63011  0.60976  1.0000
  C   C132      1.0  0.68431  0.6837  0.6207100000000002  1.0000
  C   C133      1.0  0.7428799999999998  0.66067  0.6525400000000002  1.0000
  C   C134      1.0  0.8087499999999997  0.7137599999999997  0.66321  1.0000
  C   C135      1.0  0.86947  0.68819  0.6986100000000002  1.0000
  C   C136      1.0  0.8180899999999998  0.79009  0.64143  1.0000
  C   C137      1.0  0.76103  0.81205  0.60864  1.0000
  C   C138      1.0  0.7686  0.88858  0.58259  1.0000
  C   C139      1.0  0.69556  0.7584  0.5984800000000002  1.0000
  C   C140      1.0  0.6785899999999998  0.4234599999999999  0.57524  1.0000
  C   C141      1.0  0.72921  0.37936  0.5466400000000002  1.0000
  C   C142      1.0  0.69397  0.3188399999999999  0.51968  1.0000
  C   C143      1.0  0.60874  0.3042399999999999  0.5224  1.0000
  C   C144      1.0  0.5616  0.35127  0.5514500000000002  1.0000
  C   C145      1.0  0.13849  0.61162  0.7273900000000002  1.0000
  C   C146      1.0  0.19363  0.56931  0.7003  1.0000
  C   C147      1.0  0.19493  0.58778  0.6554500000000002  1.0000
  C   C148      1.0  0.14129  0.64883  0.63923  1.0000
  C   C149      1.0  0.08747999999999997  0.68815  0.66828  1.0000
  C   C150      1.0  0.13845  0.8587799999999998  0.7258500000000002  1.0000
  C   C151      1.0  0.17128  0.92785  0.7045700000000003  1.0000
  C   C152      1.0  0.11702999999999997  0.98562  0.68591  1.0000
  C   C153      1.0  0.03159  0.97265  0.6896400000000003  1.0000
  C   C154      1.0  0.0035199999999999993  0.9018899999999997  0.7114000000000003  1.0000
  C   C155      1.0  0.87907  0.7968  0.8247200000000002  1.0000
  C   C156      1.0  0.8362199999999997  0.79959  0.8574300000000002  1.0000
  C   C157      1.0  0.36934  0.60941  0.8596500000000001  1.0000
  C   C158      1.0  0.31642  0.6843999999999998  0.8705700000000002  1.0000
  C   C159      1.0  0.33945  0.74282  0.90248  1.0000
  C   C160      1.0  0.2866  0.8086999999999998  0.9133200000000002  1.0000
  C   C161      1.0  0.31181  0.8691999999999998  0.9489500000000002  1.0000
  C   C162      1.0  0.21029999999999993  0.81824  0.89146  1.0000
  C   C163      1.0  0.18817999999999993  0.76118  0.85867  1.0000
  C   C164      1.0  0.11161  0.7686299999999998  0.83256  1.0000
  C   C165      1.0  0.24164999999999995  0.69561  0.84842  1.0000
  C   C166      1.0  0.57681  0.67859  0.8251900000000002  1.0000
  C   C167      1.0  0.62079  0.72925  0.79657  1.0000
  C   C168      1.0  0.6812699999999998  0.69408  0.76957  1.0000
  C   C169      1.0  0.6959499999999998  0.60886  0.77228  1.0000
  C   C170      1.0  0.64902  0.5616599999999998  0.8013300000000002  1.0000
  C   C171      1.0  0.38836  0.13855  0.9774500000000003  1.0000
  C   C172      1.0  0.43072  0.19366  0.95033  1.0000
  C   C173      1.0  0.41224  0.19495  0.9054600000000003  1.0000
  C   C174      1.0  0.35111  0.14124  0.8892900000000002  1.0000
  C   C175      1.0  0.31175999999999987  0.08748  0.9183600000000002  1.0000
  C   C176      1.0  0.14116  0.13849  0.9758500000000002  1.0000
  C   C177      1.0  0.07216  0.17133  0.9545600000000002  1.0000
  C   C178      1.0  0.01433  0.11702  0.93592  1.0000
  C   C179      1.0  0.02731  0.031559999999999984  0.93961  1.0000
  C   C180      1.0  0.098  0.00349  0.9613800000000001  1.0000
  C   C181      1.0  0.20297  0.88004  0.07405000000000003  1.0000
  C   C182      1.0  0.20048  0.83589  0.10791  1.0000
  C   C183      1.0  0.6306899999999998  0.39057999999999987  0.35966  1.0000
  C   C184      1.0  0.68361  0.31556  0.3705700000000001  1.0000
  C   C185      1.0  0.66054  0.25718  0.4024900000000001  1.0000
  C   C186      1.0  0.7134  0.19129999999999994  0.4133000000000001  1.0000
  C   C187      1.0  0.68814  0.13079999999999994  0.44894000000000006  1.0000
  C   C188      1.0  0.78972  0.18175  0.39145000000000013  1.0000
  C   C189      1.0  0.8118899999999999  0.23878999999999995  0.3586600000000001  1.0000
  C   C190      1.0  0.8885  0.23138999999999996  0.3325800000000001  1.0000
  C   C191      1.0  0.75838  0.30433  0.3484200000000001  1.0000
  C   C192      1.0  0.42319  0.3214199999999999  0.32519  1.0000
  C   C193      1.0  0.3792  0.27075  0.29657  1.0000
  C   C194      1.0  0.31872  0.30592999999999987  0.2695800000000001  1.0000
  C   C195      1.0  0.3040499999999999  0.39115  0.27228000000000013  1.0000
  C   C196      1.0  0.35098  0.43835  0.3013300000000001  1.0000
  C   C197      1.0  0.6116199999999998  0.86143  0.4774600000000001  1.0000
  C   C198      1.0  0.56927  0.80633  0.4503200000000001  1.0000
  C   C199      1.0  0.58776  0.8050399999999998  0.4054600000000001  1.0000
  C   C200      1.0  0.64888  0.85876  0.38929000000000014  1.0000
  C   C201      1.0  0.68824  0.91252  0.4183500000000001  1.0000
  C   C202      1.0  0.85884  0.8614999999999998  0.4758500000000001  1.0000
  C   C203      1.0  0.9278399999999998  0.82867  0.45456000000000013  1.0000
  C   C204      1.0  0.98565  0.88299  0.4359300000000001  1.0000
  C   C205      1.0  0.97267  0.96844  0.4396000000000001  1.0000
  C   C206      1.0  0.90199  0.9965099999999999  0.4613800000000001  1.0000
  C   C207      1.0  0.79694  0.12027  0.5740400000000002  1.0000
  C   C208      1.0  0.79945  0.16404  0.6079100000000002  1.0000
  N   N1        1.0  0.59596  0.59018  0.92249  1.0000
  N   N2        1.0  0.08583  0.33052  0.7884900000000002  1.0000
  N   N3        1.0  0.05607  0.15409999999999993  0.7710700000000003  1.0000
  N   N4        1.0  0.40404  0.40982  0.4224900000000001  1.0000
  N   N5        1.0  0.91417  0.6694899999999998  0.2885  1.0000
  N   N6        1.0  0.94394  0.84589  0.27107  1.0000
  N   N7        1.0  0.40949  0.596  0.17263  1.0000
  N   N8        1.0  0.66939  0.08606999999999997  0.03849  1.0000
  N   N9        1.0  0.84576  0.0561  0.02107  1.0000
  N   N10       1.0  0.59051  0.404  0.67263  1.0000
  N   N11       1.0  0.33059  0.91396  0.5384800000000002  1.0000
  N   N12       1.0  0.15425  0.9439099999999998  0.5210800000000002  1.0000
  N   N13       1.0  0.40403  0.59017  0.07749000000000003  1.0000
  N   N14       1.0  0.91407  0.3306  0.21148000000000006  1.0000
  N   N15       1.0  0.94393  0.15427999999999994  0.22892000000000007  1.0000
  N   N16       1.0  0.59597  0.4098299999999999  0.57749  1.0000
  N   N17       1.0  0.08588  0.66942  0.71148  1.0000
  N   N18       1.0  0.05605  0.8456999999999998  0.72892  1.0000
  N   N19       1.0  0.59052  0.596  0.8273800000000002  1.0000
  N   N20       1.0  0.3305  0.08599999999999997  0.9615500000000002  1.0000
  N   N21       1.0  0.15402  0.05611999999999999  0.9789300000000002  1.0000
  N   N22       1.0  0.4094799999999999  0.40400999999999987  0.3273800000000001  1.0000
  N   N23       1.0  0.6694799999999997  0.9139899999999997  0.4615500000000001  1.0000
  N   N24       1.0  0.84597  0.94388  0.4789300000000001  1.0000
  O   O1        1.0  0.60763  0.43853  0.8671800000000002  1.0000
  O   O2        1.0  0.55738  0.3473499999999999  0.9177800000000003  1.0000
  O   O3        1.0  0.86353  0.37936  0.7818200000000002  1.0000
  O   O4        1.0  0.9239499999999998  0.25394  0.7940000000000003  1.0000
  O   O5        1.0  0.72128  0.09888  0.9497500000000002  1.0000
  O   O6        1.0  0.82473  0.05798  0.9046700000000002  1.0000
  O   O7        1.0  0.9378199999999998  0.19510999999999995  0.7037200000000002  1.0000
  O   O8        1.0  0.39237  0.56146  0.36718  1.0000
  O   O9        1.0  0.4426499999999999  0.6526399999999998  0.4177800000000001  1.0000
  O   O10       1.0  0.13646  0.62068  0.28184  1.0000
  O   O11       1.0  0.07606  0.74612  0.29401  1.0000
  O   O12       1.0  0.2787  0.90115  0.4497400000000001  1.0000
  O   O13       1.0  0.17505  0.94187  0.40471  1.0000
  O   O14       1.0  0.06210999999999999  0.8048599999999998  0.20374000000000006  1.0000
  O   O15       1.0  0.5611799999999998  0.60753  0.11835  1.0000
  O   O16       1.0  0.65519  0.55636  0.16687  1.0000
  O   O17       1.0  0.62137  0.8632  0.03070000000000001  1.0000
  O   O18       1.0  0.7456  0.9247  0.04468  1.0000
  O   O19       1.0  0.9009  0.7217399999999998  0.19988000000000006  1.0000
  O   O20       1.0  0.94179  0.82463  0.15456  1.0000
  O   O21       1.0  0.80467  0.93813  0.9537400000000003  1.0000
  O   O22       1.0  0.4388299999999999  0.39247  0.6183500000000002  1.0000
  O   O23       1.0  0.34481  0.44365  0.66687  1.0000
  O   O24       1.0  0.37869  0.1368  0.53075  1.0000
  O   O25       1.0  0.25445  0.07529  0.54465  1.0000
  O   O26       1.0  0.09914  0.2782799999999999  0.6998700000000002  1.0000
  O   O27       1.0  0.05803  0.17544  0.65452  1.0000
  O   O28       1.0  0.19527  0.06179999999999999  0.4537700000000001  1.0000
  O   O29       1.0  0.39238  0.43847  0.13281  1.0000
  O   O30       1.0  0.4425999999999999  0.34732  0.08222  1.0000
  O   O31       1.0  0.13652999999999996  0.37942  0.21818  1.0000
  O   O32       1.0  0.07585  0.25405  0.20605000000000007  1.0000
  O   O33       1.0  0.27844  0.09884  0.05023000000000001  1.0000
  O   O34       1.0  0.17522  0.05815  0.09541000000000002  1.0000
  O   O35       1.0  0.06183  0.1952  0.29654000000000014  1.0000
  O   O36       1.0  0.60763  0.56153  0.63282  1.0000
  O   O37       1.0  0.5574099999999997  0.65269  0.58222  1.0000
  O   O38       1.0  0.86352  0.6206  0.7181700000000002  1.0000
  O   O39       1.0  0.92406  0.74604  0.7061000000000002  1.0000
  O   O40       1.0  0.72153  0.90115  0.55023  1.0000
  O   O41       1.0  0.82474  0.94199  0.59539  1.0000
  O   O42       1.0  0.93824  0.80483  0.7965200000000002  1.0000
  O   O43       1.0  0.4389499999999999  0.60756  0.8816600000000002  1.0000
  O   O44       1.0  0.34492  0.55636  0.8331300000000003  1.0000
  O   O45       1.0  0.37857  0.86326  0.9693000000000003  1.0000
  O   O46       1.0  0.25423  0.9244599999999997  0.9553500000000003  1.0000
  O   O47       1.0  0.09914  0.7215799999999998  0.80013  1.0000
  O   O48       1.0  0.058149999999999986  0.82475  0.8452900000000002  1.0000
  O   O49       1.0  0.19521  0.93777  0.04606  1.0000
  O   O50       1.0  0.56108  0.39245  0.38167  1.0000
  O   O51       1.0  0.65511  0.44363  0.3331400000000001  1.0000
  O   O52       1.0  0.62142  0.13676  0.46932  1.0000
  O   O53       1.0  0.74569  0.07548  0.45532  1.0000
  O   O54       1.0  0.90084  0.27843  0.3001300000000001  1.0000
  O   O55       1.0  0.9420499999999999  0.17541999999999994  0.34536  1.0000
  O   O56       1.0  0.8048  0.062119999999999995  0.5460100000000002  1.0000
