data_image0
_chemical_formula_structural       Zn16H144C256S8N32O64
_chemical_formula_sum              "Zn16 H144 C256 S8 N32 O64"
_cell_length_a       15.62801
_cell_length_b       18.37849
_cell_length_c       31.22424
_cell_angle_alpha    90.0027
_cell_angle_beta     90.01032
_cell_angle_gamma    89.95463

_space_group_name_H-M_alt    "P 1"
_space_group_IT_number       1

loop_
  _space_group_symop_operation_xyz
  'x, y, z'

loop_
  _atom_site_type_symbol
  _atom_site_label
  _atom_site_symmetry_multiplicity
  _atom_site_fract_x
  _atom_site_fract_y
  _atom_site_fract_z
  _atom_site_occupancy
  Zn  Zn1       1.0  0.5734299999999998  0.33216  0.12411000000000003  1.0000
  Zn  Zn2       1.0  0.57367  0.17691  0.12604  1.0000
  Zn  Zn3       1.0  0.07252  0.16878  0.8758600000000002  1.0000
  Zn  Zn4       1.0  0.07503  0.32367  0.87406  1.0000
  Zn  Zn5       1.0  0.07251  0.33223  0.37583  1.0000
  Zn  Zn6       1.0  0.07502  0.17687999999999998  0.3743  1.0000
  Zn  Zn7       1.0  0.57382  0.16881999999999997  0.6239  1.0000
  Zn  Zn8       1.0  0.57379  0.32352  0.62615  1.0000
  Zn  Zn9       1.0  0.9274799999999997  0.66776  0.62418  1.0000
  Zn  Zn10      1.0  0.92497  0.82311  0.6257000000000001  1.0000
  Zn  Zn11      1.0  0.42617  0.83117  0.3761  1.0000
  Zn  Zn12      1.0  0.4261999999999999  0.67648  0.3738500000000001  1.0000
  Zn  Zn13      1.0  0.42656  0.6678399999999999  0.8758900000000002  1.0000
  Zn  Zn14      1.0  0.42632  0.82309  0.8739600000000002  1.0000
  Zn  Zn15      1.0  0.92747  0.83121  0.12414000000000003  1.0000
  Zn  Zn16      1.0  0.9249599999999999  0.67633  0.12594  1.0000
  H   H1        1.0  0.7524499999999997  0.14170999999999997  0.22903  1.0000
  H   H2        1.0  0.8691499999999998  0.14146  0.28476  1.0000
  H   H3        1.0  0.87133  0.37448  0.28381  1.0000
  H   H4        1.0  0.75569  0.37483  0.22776000000000005  1.0000
  H   H5        1.0  0.78246  0.36806  0.03473  1.0000
  H   H6        1.0  0.8958199999999997  0.3657  0.97747  1.0000
  H   H7        1.0  0.87718  0.1334  0.97139  1.0000
  H   H8        1.0  0.7639799999999998  0.1356  0.028900000000000006  1.0000
  H   H9        1.0  0.6038699999999998  0.45723  0.18286  1.0000
  H   H10       1.0  0.60142  0.59306  0.17925  1.0000
  H   H11       1.0  0.5452999999999998  0.5740499999999998  0.04421  1.0000
  H   H12       1.0  0.5494799999999997  0.43838  0.05368  1.0000
  H   H13       1.0  0.67004  0.82078  0.15599  1.0000
  H   H14       1.0  0.6725899999999998  0.68871  0.15478  1.0000
  H   H15       1.0  0.70976  0.9222199999999999  0.11975000000000002  1.0000
  H   H16       1.0  0.70629  0.05736  0.12934  1.0000
  H   H17       1.0  0.4430199999999999  0.06399  0.11508000000000003  1.0000
  H   H18       1.0  0.4348299999999999  0.92909  0.1047  1.0000
  H   H19       1.0  0.25237  0.3588  0.771  1.0000
  H   H20       1.0  0.36878  0.35896999999999996  0.71516  1.0000
  H   H21       1.0  0.3713799999999999  0.12592  0.7161700000000002  1.0000
  H   H22       1.0  0.25571  0.12570999999999996  0.77218  1.0000
  H   H23       1.0  0.2816599999999999  0.13215  0.96497  1.0000
  H   H24       1.0  0.39519  0.13357  0.022230000000000007  1.0000
  H   H25       1.0  0.37751  0.36596  0.028900000000000006  1.0000
  H   H26       1.0  0.26453  0.36455999999999994  0.97123  1.0000
  H   H27       1.0  0.10384999999999997  0.04283  0.81708  1.0000
  H   H28       1.0  0.10139  0.9071199999999999  0.8207600000000003  1.0000
  H   H29       1.0  0.04534999999999999  0.9263  0.9557400000000003  1.0000
  H   H30       1.0  0.04944  0.06185999999999999  0.9462800000000002  1.0000
  H   H31       1.0  0.16997  0.67916  0.8440600000000003  1.0000
  H   H32       1.0  0.17251999999999995  0.8112299999999999  0.84521  1.0000
  H   H33       1.0  0.20961999999999995  0.57814  0.8803  1.0000
  H   H34       1.0  0.20626  0.44289999999999996  0.8707  1.0000
  H   H35       1.0  0.94306  0.43638  0.8849300000000002  1.0000
  H   H36       1.0  0.9346799999999997  0.57144  0.8953200000000002  1.0000
  H   H37       1.0  0.25232  0.14229  0.27109  1.0000
  H   H38       1.0  0.3686699999999999  0.14205  0.21520000000000006  1.0000
  H   H39       1.0  0.3710999999999999  0.37502  0.21619000000000005  1.0000
  H   H40       1.0  0.25543  0.37544  0.2723100000000001  1.0000
  H   H41       1.0  0.2824799999999999  0.36839  0.46537  1.0000
  H   H42       1.0  0.39601  0.36585  0.52261  1.0000
  H   H43       1.0  0.37696  0.13351  0.5285900000000001  1.0000
  H   H44       1.0  0.26397  0.13600999999999996  0.4709500000000001  1.0000
  H   H45       1.0  0.1038  0.45724  0.31714  1.0000
  H   H46       1.0  0.10146  0.59308  0.32076  1.0000
  H   H47       1.0  0.04537  0.5740499999999998  0.4558000000000001  1.0000
  H   H48       1.0  0.04948  0.43837  0.44631  1.0000
  H   H49       1.0  0.17002999999999993  0.82081  0.34406  1.0000
  H   H50       1.0  0.17251999999999995  0.68876  0.34519  1.0000
  H   H51       1.0  0.20968  0.9221  0.38024  1.0000
  H   H52       1.0  0.20636  0.057229999999999996  0.37069  1.0000
  H   H53       1.0  0.9431099999999998  0.06415  0.3849500000000001  1.0000
  H   H54       1.0  0.9347599999999998  0.92918  0.39528000000000013  1.0000
  H   H55       1.0  0.7521999999999999  0.35941  0.72898  1.0000
  H   H56       1.0  0.86906  0.35966  0.78473  1.0000
  H   H57       1.0  0.87147  0.12663  0.78384  1.0000
  H   H58       1.0  0.75587  0.12631  0.7278000000000002  1.0000
  H   H59       1.0  0.78184  0.13263  0.5349900000000002  1.0000
  H   H60       1.0  0.8952199999999998  0.134  0.47776  1.0000
  H   H61       1.0  0.87782  0.36633  0.47105000000000014  1.0000
  H   H62       1.0  0.76457  0.36511  0.52858  1.0000
  H   H63       1.0  0.604  0.04288  0.6829000000000002  1.0000
  H   H64       1.0  0.6012999999999997  0.90716  0.67927  1.0000
  H   H65       1.0  0.5452  0.9263  0.54426  1.0000
  H   H66       1.0  0.5495  0.06185  0.55372  1.0000
  H   H67       1.0  0.67  0.67921  0.6560100000000002  1.0000
  H   H68       1.0  0.6725899999999998  0.8112699999999998  0.6547800000000003  1.0000
  H   H69       1.0  0.70975  0.5780099999999999  0.6197000000000003  1.0000
  H   H70       1.0  0.70628  0.4427499999999999  0.6293100000000003  1.0000
  H   H71       1.0  0.44307  0.43645  0.6151  1.0000
  H   H72       1.0  0.43479  0.57143  0.60467  1.0000
  H   H73       1.0  0.74767  0.8577  0.72891  1.0000
  H   H74       1.0  0.6313299999999997  0.85794  0.7848000000000002  1.0000
  H   H75       1.0  0.62889  0.62498  0.78381  1.0000
  H   H76       1.0  0.74456  0.62455  0.7276900000000002  1.0000
  H   H77       1.0  0.71751  0.6316099999999999  0.53463  1.0000
  H   H78       1.0  0.6039799999999997  0.63415  0.47739  1.0000
  H   H79       1.0  0.62303  0.86649  0.4714100000000001  1.0000
  H   H80       1.0  0.73602  0.86399  0.52905  1.0000
  H   H81       1.0  0.8961899999999998  0.54276  0.6828600000000001  1.0000
  H   H82       1.0  0.89853  0.40692  0.67924  1.0000
  H   H83       1.0  0.95462  0.42594  0.5442  1.0000
  H   H84       1.0  0.9505099999999997  0.56162  0.55369  1.0000
  H   H85       1.0  0.82996  0.17918999999999993  0.65594  1.0000
  H   H86       1.0  0.8274699999999998  0.31123  0.6548100000000002  1.0000
  H   H87       1.0  0.79031  0.07789999999999998  0.61976  1.0000
  H   H88       1.0  0.79363  0.9427699999999999  0.6293100000000003  1.0000
  H   H89       1.0  0.05688  0.9358499999999998  0.61505  1.0000
  H   H90       1.0  0.06522999999999997  0.07081  0.60472  1.0000
  H   H91       1.0  0.24778999999999995  0.64059  0.27102  1.0000
  H   H92       1.0  0.13093  0.6403299999999998  0.21527  1.0000
  H   H93       1.0  0.12851999999999994  0.8733599999999999  0.21616  1.0000
  H   H94       1.0  0.24412  0.8736799999999999  0.2722  1.0000
  H   H95       1.0  0.21815  0.8673699999999998  0.46501  1.0000
  H   H96       1.0  0.10477  0.866  0.52224  1.0000
  H   H97       1.0  0.12216999999999997  0.63367  0.52895  1.0000
  H   H98       1.0  0.23542  0.63488  0.4714200000000001  1.0000
  H   H99       1.0  0.39599  0.95711  0.3171000000000001  1.0000
  H   H100      1.0  0.39869  0.09284  0.32073  1.0000
  H   H101      1.0  0.4547899999999999  0.0737  0.45574  1.0000
  H   H102      1.0  0.45049  0.9381499999999999  0.4462800000000001  1.0000
  H   H103      1.0  0.33  0.32078  0.34399  1.0000
  H   H104      1.0  0.3274  0.18872999999999998  0.3452200000000001  1.0000
  H   H105      1.0  0.2902399999999999  0.42199  0.3803  1.0000
  H   H106      1.0  0.2937099999999999  0.55725  0.37069  1.0000
  H   H107      1.0  0.55692  0.56355  0.38490000000000013  1.0000
  H   H108      1.0  0.56521  0.42856  0.39533  1.0000
  H   H109      1.0  0.24753999999999995  0.85829  0.77097  1.0000
  H   H110      1.0  0.13084  0.85853  0.7152500000000003  1.0000
  H   H111      1.0  0.12865999999999994  0.62551  0.7161900000000002  1.0000
  H   H112      1.0  0.2443  0.6251699999999999  0.77225  1.0000
  H   H113      1.0  0.21752999999999995  0.63194  0.9652700000000002  1.0000
  H   H114      1.0  0.10417  0.63429  0.02253000000000001  1.0000
  H   H115      1.0  0.12280999999999997  0.8665999999999998  0.02861  1.0000
  H   H116      1.0  0.23601  0.8643899999999998  0.9711000000000002  1.0000
  H   H117      1.0  0.39612  0.54276  0.81714  1.0000
  H   H118      1.0  0.39856999999999987  0.40694  0.8207500000000002  1.0000
  H   H119      1.0  0.45469  0.42594  0.9557900000000003  1.0000
  H   H120      1.0  0.45051  0.56162  0.9463200000000003  1.0000
  H   H121      1.0  0.3299499999999999  0.17922  0.84401  1.0000
  H   H122      1.0  0.3274  0.31128  0.84522  1.0000
  H   H123      1.0  0.29023  0.07778  0.88026  1.0000
  H   H124      1.0  0.2937  0.94263  0.87066  1.0000
  H   H125      1.0  0.55697  0.936  0.8849200000000003  1.0000
  H   H126      1.0  0.56516  0.0709  0.8953000000000002  1.0000
  H   H127      1.0  0.74762  0.6412  0.22900000000000006  1.0000
  H   H128      1.0  0.6312099999999998  0.6410199999999999  0.28484  1.0000
  H   H129      1.0  0.62861  0.8740799999999999  0.28383  1.0000
  H   H130      1.0  0.7442799999999998  0.87429  0.22782  1.0000
  H   H131      1.0  0.71833  0.8678499999999998  0.03503000000000001  1.0000
  H   H132      1.0  0.6047999999999998  0.86642  0.9777700000000003  1.0000
  H   H133      1.0  0.6224799999999998  0.63404  0.9711000000000002  1.0000
  H   H134      1.0  0.73546  0.63543  0.028770000000000007  1.0000
  H   H135      1.0  0.89614  0.9571699999999999  0.18292  1.0000
  H   H136      1.0  0.8986  0.09287999999999998  0.17924  1.0000
  H   H137      1.0  0.9546399999999998  0.07369  0.04426  1.0000
  H   H138      1.0  0.9505499999999998  0.93813  0.05372  1.0000
  H   H139      1.0  0.83002  0.32084  0.15594000000000005  1.0000
  H   H140      1.0  0.8274799999999998  0.18877  0.15479  1.0000
  H   H141      1.0  0.79037  0.42185  0.1197  1.0000
  H   H142      1.0  0.79373  0.55709  0.1293  1.0000
  H   H143      1.0  0.05692999999999999  0.5636199999999999  0.11507000000000003  1.0000
  H   H144      1.0  0.06531  0.42855  0.10468000000000002  1.0000
  C   C1        1.0  0.6838  0.25811999999999996  0.18883000000000005  1.0000
  C   C2        1.0  0.74792  0.2582  0.22471  1.0000
  C   C3        1.0  0.7792699999999998  0.19224  0.24117000000000005  1.0000
  C   C4        1.0  0.84358  0.1921  0.27207  1.0000
  C   C5        1.0  0.8773899999999998  0.25798  0.28725  1.0000
  C   C6        1.0  0.8448  0.32395  0.2715400000000001  1.0000
  C   C7        1.0  0.7806599999999998  0.32404  0.24054000000000006  1.0000
  C   C8        1.0  0.9484999999999999  0.25789  0.31971  1.0000
  C   C9        1.0  0.69839  0.25374  0.06862  1.0000
  C   C10       1.0  0.76698  0.25203999999999993  0.03512  1.0000
  C   C11       1.0  0.80376  0.31709  0.02062  1.0000
  C   C12       1.0  0.86625  0.31579999999999997  0.9888500000000002  1.0000
  C   C13       1.0  0.8928299999999998  0.2493  0.97124  1.0000
  C   C14       1.0  0.8559699999999998  0.18422  0.98571  1.0000
  C   C15       1.0  0.79344  0.1855  0.01743  1.0000
  C   C16       1.0  0.9604699999999999  0.24789  0.9372100000000002  1.0000
  C   C17       1.0  0.59177  0.48574  0.15288  1.0000
  C   C18       1.0  0.5912  0.5611  0.15037  1.0000
  C   C19       1.0  0.5741799999999998  0.59549  0.11093000000000003  1.0000
  C   C20       1.0  0.55893  0.55036  0.07534  1.0000
  C   C21       1.0  0.5610099999999998  0.47525  0.08037000000000002  1.0000
  C   C22       1.0  0.57289  0.67538  0.10836000000000003  1.0000
  C   C23       1.0  0.51678  0.71516  0.08072000000000003  1.0000
  C   C24       1.0  0.51458  0.7941499999999998  0.08189  1.0000
  C   C25       1.0  0.57087  0.83389  0.10940000000000003  1.0000
  C   C26       1.0  0.62632  0.793  0.13445  1.0000
  C   C27       1.0  0.6267799999999998  0.71634  0.13423000000000004  1.0000
  C   C28       1.0  0.57165  0.9137699999999999  0.11244  1.0000
  C   C29       1.0  0.6490099999999998  0.95138  0.11927  1.0000
  C   C30       1.0  0.64769  0.026459999999999997  0.12441  1.0000
  C   C31       1.0  0.50011  0.03006  0.11618000000000003  1.0000
  C   C32       1.0  0.4961  0.95522  0.11039  1.0000
  C   C33       1.0  0.18393  0.24293  0.8111800000000002  1.0000
  C   C34       1.0  0.24789  0.24232999999999996  0.7752500000000002  1.0000
  C   C35       1.0  0.2791599999999999  0.30827  0.7588000000000003  1.0000
  C   C36       1.0  0.34331  0.3083699999999999  0.7278700000000002  1.0000
  C   C37       1.0  0.3773  0.24249  0.7127100000000002  1.0000
  C   C38       1.0  0.34481  0.17652  0.7283900000000002  1.0000
  C   C39       1.0  0.2806499999999999  0.17648  0.7594000000000002  1.0000
  C   C40       1.0  0.44846999999999987  0.24325  0.6803200000000003  1.0000
  C   C41       1.0  0.19838999999999996  0.24755999999999997  0.93138  1.0000
  C   C42       1.0  0.26697  0.24828999999999998  0.9648600000000003  1.0000
  C   C43       1.0  0.30327  0.18290999999999993  0.9791900000000002  1.0000
  C   C44       1.0  0.36581  0.18366  0.010950000000000003  1.0000
  C   C45       1.0  0.39271  0.24984  0.02878  1.0000
  C   C46       1.0  0.35624  0.31528  0.014470000000000004  1.0000
  C   C47       1.0  0.29381  0.31454  0.9827000000000002  1.0000
  C   C48       1.0  0.46045  0.25066  0.06279  1.0000
  C   C49       1.0  0.09182  0.014499999999999999  0.84712  1.0000
  C   C50       1.0  0.09119  0.9391199999999998  0.8496300000000002  1.0000
  C   C51       1.0  0.07418  0.90472  0.8890600000000002  1.0000
  C   C52       1.0  0.05897  0.94995  0.9246100000000003  1.0000
  C   C53       1.0  0.0611  0.025079999999999998  0.91956  1.0000
  C   C54       1.0  0.07287  0.8248  0.8916600000000002  1.0000
  C   C55       1.0  0.01675  0.78507  0.9193200000000002  1.0000
  C   C56       1.0  0.014459999999999994  0.70608  0.9180800000000002  1.0000
  C   C57       1.0  0.07073  0.66632  0.89059  1.0000
  C   C58       1.0  0.12625  0.7070699999999998  0.8655600000000002  1.0000
  C   C59       1.0  0.12673  0.7837199999999999  0.86579  1.0000
  C   C60       1.0  0.0715  0.5865  0.8875700000000002  1.0000
  C   C61       1.0  0.14894  0.54895  0.8807500000000003  1.0000
  C   C62       1.0  0.14768  0.47390999999999994  0.87564  1.0000
  C   C63       1.0  2.999999999999997e-05  0.47036  0.88387  1.0000
  C   C64       1.0  0.9959399999999998  0.5452  0.8896300000000003  1.0000
  C   C65       1.0  0.18377  0.25836999999999993  0.31125000000000014  1.0000
  C   C66       1.0  0.24767999999999996  0.2588  0.27531000000000005  1.0000
  C   C67       1.0  0.2790299999999999  0.19281  0.2588800000000001  1.0000
  C   C68       1.0  0.3430999999999999  0.19266  0.22791000000000006  1.0000
  C   C69       1.0  0.3767699999999999  0.25854  0.2127  1.0000
  C   C70       1.0  0.34441  0.32455  0.22846000000000005  1.0000
  C   C71       1.0  0.28037  0.32465  0.25951000000000013  1.0000
  C   C72       1.0  0.44758  0.25815  0.18017  1.0000
  C   C73       1.0  0.19858  0.25391  0.4313900000000001  1.0000
  C   C74       1.0  0.26708  0.25238  0.4649  1.0000
  C   C75       1.0  0.30379  0.3174  0.47944  1.0000
  C   C76       1.0  0.3663399999999999  0.31602  0.5112000000000001  1.0000
  C   C77       1.0  0.3928499999999999  0.2495  0.5288000000000003  1.0000
  C   C78       1.0  0.35594  0.18441  0.5142900000000002  1.0000
  C   C79       1.0  0.2935  0.1858  0.48254  1.0000
  C   C80       1.0  0.4605899999999999  0.24796  0.56277  1.0000
  C   C81       1.0  0.09177  0.48575999999999997  0.34712  1.0000
  C   C82       1.0  0.09124999999999997  0.56112  0.34964  1.0000
  C   C83       1.0  0.07425  0.5955  0.3890900000000001  1.0000
  C   C84       1.0  0.059  0.55038  0.42467  1.0000
  C   C85       1.0  0.06104  0.47527  0.4196300000000001  1.0000
  C   C86       1.0  0.07296  0.67539  0.39166  1.0000
  C   C87       1.0  0.01685  0.71515  0.4193100000000001  1.0000
  C   C88       1.0  0.01449  0.7941299999999999  0.41808  1.0000
  C   C89       1.0  0.07074999999999997  0.8339  0.39059  1.0000
  C   C90       1.0  0.12626  0.79303  0.3655600000000001  1.0000
  C   C91       1.0  0.12677  0.71637  0.36578  1.0000
  C   C92       1.0  0.07155  0.9137699999999999  0.38755  1.0000
  C   C93       1.0  0.14896  0.9513  0.3807200000000001  1.0000
  C   C94       1.0  0.14772  0.02637  0.3756200000000001  1.0000
  C   C95       1.0  0.00013000000000000004  0.030139999999999997  0.3838400000000001  1.0000
  C   C96       1.0  0.9960499999999998  0.95529  0.3896  1.0000
  C   C97       1.0  0.6839199999999998  0.24318  0.68885  1.0000
  C   C98       1.0  0.74797  0.24295999999999998  0.72474  1.0000
  C   C99       1.0  0.7791699999999998  0.30893  0.74117  1.0000
  C   C100      1.0  0.84349  0.30907  0.77204  1.0000
  C   C101      1.0  0.87741  0.24321  0.78722  1.0000
  C   C102      1.0  0.84491  0.17719  0.77157  1.0000
  C   C103      1.0  0.78078  0.17711  0.74057  1.0000
  C   C104      1.0  0.9485599999999997  0.24356  0.81962  1.0000
  C   C105      1.0  0.69869  0.2478  0.5686300000000002  1.0000
  C   C106      1.0  0.7671099999999997  0.2488  0.53509  1.0000
  C   C107      1.0  0.8034099999999997  0.18339999999999995  0.52077  1.0000
  C   C108      1.0  0.86588  0.1841  0.4890100000000001  1.0000
  C   C109      1.0  0.8928699999999998  0.25026  0.4712  1.0000
  C   C110      1.0  0.8563799999999998  0.31569999999999987  0.4854700000000001  1.0000
  C   C111      1.0  0.7938699999999999  0.31503  0.5172  1.0000
  C   C112      1.0  0.9606  0.25077  0.4372100000000001  1.0000
  C   C113      1.0  0.59194  0.01452  0.65288  1.0000
  C   C114      1.0  0.5911499999999997  0.93914  0.65039  1.0000
  C   C115      1.0  0.57411  0.90472  0.61096  1.0000
  C   C116      1.0  0.55889  0.94993  0.5754  1.0000
  C   C117      1.0  0.56117  0.025049999999999992  0.5804300000000002  1.0000
  C   C118      1.0  0.57281  0.8248  0.60836  1.0000
  C   C119      1.0  0.51672  0.78503  0.58071  1.0000
  C   C120      1.0  0.51461  0.7060399999999999  0.58189  1.0000
  C   C121      1.0  0.57088  0.66629  0.6094000000000003  1.0000
  C   C122      1.0  0.62631  0.70709  0.63447  1.0000
  C   C123      1.0  0.6267399999999997  0.7837499999999997  0.63423  1.0000
  C   C124      1.0  0.5716399999999998  0.5864599999999999  0.61242  1.0000
  C   C125      1.0  0.6490499999999998  0.54884  0.61925  1.0000
  C   C126      1.0  0.64772  0.4737799999999999  0.6243700000000002  1.0000
  C   C127      1.0  0.50009  0.47037  0.6161400000000002  1.0000
  C   C128      1.0  0.4960499999999999  0.5452  0.61036  1.0000
  C   C129      1.0  0.81622  0.74163  0.68875  1.0000
  C   C130      1.0  0.7523099999999998  0.7412  0.72469  1.0000
  C   C131      1.0  0.72096  0.80718  0.74112  1.0000
  C   C132      1.0  0.65689  0.80733  0.77209  1.0000
  C   C133      1.0  0.62322  0.74145  0.7873  1.0000
  C   C134      1.0  0.6555799999999998  0.67545  0.77154  1.0000
  C   C135      1.0  0.7196199999999998  0.67534  0.74049  1.0000
  C   C136      1.0  0.55241  0.74185  0.81983  1.0000
  C   C137      1.0  0.80141  0.74608  0.5686100000000002  1.0000
  C   C138      1.0  0.7329099999999997  0.74761  0.5351  1.0000
  C   C139      1.0  0.6961999999999998  0.6826  0.52056  1.0000
  C   C140      1.0  0.63365  0.6839799999999998  0.4888  1.0000
  C   C141      1.0  0.60714  0.7504999999999997  0.4712  1.0000
  C   C142      1.0  0.6440499999999998  0.81558  0.48571000000000003  1.0000
  C   C143      1.0  0.7064999999999998  0.8141999999999999  0.51746  1.0000
  C   C144      1.0  0.5394  0.75203  0.4372300000000001  1.0000
  C   C145      1.0  0.90822  0.5142399999999999  0.65288  1.0000
  C   C146      1.0  0.90874  0.43887999999999994  0.65036  1.0000
  C   C147      1.0  0.9257399999999998  0.40449  0.61091  1.0000
  C   C148      1.0  0.9409899999999998  0.44962  0.57533  1.0000
  C   C149      1.0  0.93895  0.52473  0.5803700000000003  1.0000
  C   C150      1.0  0.92703  0.32460999999999995  0.60834  1.0000
  C   C151      1.0  0.9831399999999998  0.28484  0.58069  1.0000
  C   C152      1.0  0.9854999999999998  0.20585999999999996  0.58192  1.0000
  C   C153      1.0  0.9292399999999997  0.1661  0.6094100000000002  1.0000
  C   C154      1.0  0.8737299999999998  0.20696999999999996  0.63444  1.0000
  C   C155      1.0  0.87322  0.28363  0.6342200000000002  1.0000
  C   C156      1.0  0.92844  0.08622  0.61245  1.0000
  C   C157      1.0  0.85103  0.04868999999999998  0.61928  1.0000
  C   C158      1.0  0.85227  0.97363  0.6243800000000003  1.0000
  C   C159      1.0  0.9998599999999999  0.96986  0.6161600000000003  1.0000
  C   C160      1.0  0.00394  0.04471  0.6104  1.0000
  C   C161      1.0  0.31607  0.75682  0.3111500000000001  1.0000
  C   C162      1.0  0.25202  0.75704  0.27527  1.0000
  C   C163      1.0  0.22081999999999993  0.69107  0.2588300000000001  1.0000
  C   C164      1.0  0.1565  0.6909199999999999  0.22796000000000005  1.0000
  C   C165      1.0  0.12257999999999997  0.75679  0.21278000000000005  1.0000
  C   C166      1.0  0.15507999999999994  0.8228  0.22843000000000005  1.0000
  C   C167      1.0  0.21922  0.8228899999999999  0.25943  1.0000
  C   C168      1.0  0.05142999999999998  0.7564399999999998  0.18038000000000007  1.0000
  C   C169      1.0  0.3012999999999999  0.7521999999999999  0.4313700000000001  1.0000
  C   C170      1.0  0.23287999999999995  0.7511999999999999  0.46491  1.0000
  C   C171      1.0  0.19657999999999995  0.8166  0.4792300000000001  1.0000
  C   C172      1.0  0.13411  0.8159  0.51099  1.0000
  C   C173      1.0  0.10712  0.7497399999999999  0.5288000000000003  1.0000
  C   C174      1.0  0.14360999999999993  0.6843  0.51453  1.0000
  C   C175      1.0  0.20612  0.6849599999999999  0.4828000000000001  1.0000
  C   C176      1.0  0.03938999999999999  0.7492299999999998  0.56279  1.0000
  C   C177      1.0  0.4080499999999999  0.9854699999999998  0.34712  1.0000
  C   C178      1.0  0.40884  0.06086  0.34962  1.0000
  C   C179      1.0  0.42587999999999987  0.09528  0.3890400000000001  1.0000
  C   C180      1.0  0.4410999999999999  0.05007  0.4246  1.0000
  C   C181      1.0  0.43883  0.9749500000000001  0.41957  1.0000
  C   C182      1.0  0.42718  0.1752  0.39164  1.0000
  C   C183      1.0  0.48326999999999987  0.21496  0.4192900000000001  1.0000
  C   C184      1.0  0.48537999999999987  0.29396  0.41811  1.0000
  C   C185      1.0  0.4291099999999999  0.3337  0.3906  1.0000
  C   C186      1.0  0.37368  0.2929  0.3655400000000001  1.0000
  C   C187      1.0  0.37325999999999987  0.21624  0.36577  1.0000
  C   C188      1.0  0.42835  0.41353  0.3875800000000001  1.0000
  C   C189      1.0  0.35094  0.45115  0.3807500000000001  1.0000
  C   C190      1.0  0.35227  0.52621  0.37563000000000013  1.0000
  C   C191      1.0  0.4999  0.5296299999999999  0.3838600000000001  1.0000
  C   C192      1.0  0.50394  0.4548  0.38964000000000004  1.0000
  C   C193      1.0  0.31619  0.74187  0.8111800000000002  1.0000
  C   C194      1.0  0.25207  0.7417899999999998  0.7752900000000003  1.0000
  C   C195      1.0  0.22071999999999997  0.80775  0.7588300000000002  1.0000
  C   C196      1.0  0.15641  0.80789  0.72793  1.0000
  C   C197      1.0  0.12259999999999997  0.7420199999999999  0.7127500000000002  1.0000
  C   C198      1.0  0.15519  0.6760399999999999  0.7284600000000002  1.0000
  C   C199      1.0  0.21932999999999994  0.67596  0.7594600000000002  1.0000
  C   C200      1.0  0.05149  0.74211  0.6802900000000002  1.0000
  C   C201      1.0  0.30159999999999987  0.7462499999999999  0.93138  1.0000
  C   C202      1.0  0.23300999999999994  0.74796  0.9648800000000002  1.0000
  C   C203      1.0  0.19624  0.68291  0.9793800000000003  1.0000
  C   C204      1.0  0.13374  0.68419  0.01115  1.0000
  C   C205      1.0  0.10715999999999998  0.7506999999999999  0.02876  1.0000
  C   C206      1.0  0.14401999999999995  0.81578  0.014290000000000004  1.0000
  C   C207      1.0  0.20654999999999996  0.8144999999999998  0.9825700000000003  1.0000
  C   C208      1.0  0.03952  0.7521  0.06279  1.0000
  C   C209      1.0  0.40821999999999997  0.51426  0.84712  1.0000
  C   C210      1.0  0.40879  0.43889999999999996  0.8496300000000002  1.0000
  C   C211      1.0  0.42581  0.4045099999999999  0.8890700000000002  1.0000
  C   C212      1.0  0.44107  0.44963  0.9246600000000003  1.0000
  C   C213      1.0  0.43898  0.52474  0.91963  1.0000
  C   C214      1.0  0.4271  0.3246199999999999  0.8916400000000002  1.0000
  C   C215      1.0  0.48321  0.28484  0.9192800000000002  1.0000
  C   C216      1.0  0.48541  0.20584999999999998  0.91811  1.0000
  C   C217      1.0  0.42912  0.1661  0.8906  1.0000
  C   C218      1.0  0.3736699999999999  0.207  0.8655500000000003  1.0000
  C   C219      1.0  0.37321  0.28365999999999997  0.86577  1.0000
  C   C220      1.0  0.4283399999999999  0.08623  0.8875600000000002  1.0000
  C   C221      1.0  0.35098  0.048609999999999993  0.8807300000000002  1.0000
  C   C222      1.0  0.3523  0.9735399999999998  0.87559  1.0000
  C   C223      1.0  0.49988  0.9699399999999999  0.88382  1.0000
  C   C224      1.0  0.50389  0.04477999999999999  0.8896100000000002  1.0000
  C   C225      1.0  0.81607  0.75706  0.18882000000000004  1.0000
  C   C226      1.0  0.7521  0.7576699999999998  0.22475  1.0000
  C   C227      1.0  0.72083  0.69173  0.24120000000000005  1.0000
  C   C228      1.0  0.65668  0.69163  0.27213  1.0000
  C   C229      1.0  0.62269  0.75751  0.28729  1.0000
  C   C230      1.0  0.65518  0.82348  0.27161000000000013  1.0000
  C   C231      1.0  0.71934  0.82352  0.2406  1.0000
  C   C232      1.0  0.55152  0.75674  0.31968  1.0000
  C   C233      1.0  0.8016  0.7524399999999999  0.06862  1.0000
  C   C234      1.0  0.73303  0.7516999999999999  0.03514  1.0000
  C   C235      1.0  0.6967199999999998  0.81709  0.02081  1.0000
  C   C236      1.0  0.63418  0.81634  0.98905  1.0000
  C   C237      1.0  0.60728  0.75016  0.97122  1.0000
  C   C238      1.0  0.64376  0.6847199999999999  0.9855300000000002  1.0000
  C   C239      1.0  0.70618  0.6854599999999998  0.017300000000000006  1.0000
  C   C240      1.0  0.5395500000000001  0.74933  0.9372100000000002  1.0000
  C   C241      1.0  0.9081699999999998  0.9855  0.15289  1.0000
  C   C242      1.0  0.9087999999999998  0.06087999999999999  0.15037  1.0000
  C   C243      1.0  0.9258099999999998  0.09528  0.11094000000000002  1.0000
  C   C244      1.0  0.94102  0.05005  0.07540000000000002  1.0000
  C   C245      1.0  0.9388999999999997  0.9749199999999999  0.08044  1.0000
  C   C246      1.0  0.9271199999999998  0.1752  0.10834  1.0000
  C   C247      1.0  0.98324  0.21493  0.08068  1.0000
  C   C248      1.0  0.9855299999999998  0.29392  0.08192000000000003  1.0000
  C   C249      1.0  0.92926  0.3336799999999999  0.10941000000000002  1.0000
  C   C250      1.0  0.87375  0.29293  0.13444000000000006  1.0000
  C   C251      1.0  0.87326  0.21627  0.13421  1.0000
  C   C252      1.0  0.9284899999999998  0.4135  0.11243000000000003  1.0000
  C   C253      1.0  0.8510499999999998  0.45104999999999995  0.11925  1.0000
  C   C254      1.0  0.85231  0.52609  0.12436000000000003  1.0000
  C   C255      1.0  0.99996  0.5296399999999999  0.11613000000000002  1.0000
  C   C256      1.0  0.00406  0.4548  0.11037  1.0000
  S   S1        1.0  0.4120799999999999  0.7549599999999997  0.02981  1.0000
  S   S2        1.0  0.91203  0.7453  0.9701800000000003  1.0000
  S   S3        1.0  0.91207  0.75489  0.47017  1.0000
  S   S4        1.0  0.41212  0.74517  0.52978  1.0000
  S   S5        1.0  0.08791999999999997  0.2451  0.52983  1.0000
  S   S6        1.0  0.5878699999999998  0.25482  0.4702200000000001  1.0000
  S   S7        1.0  0.58791  0.24502999999999997  0.9701900000000002  1.0000
  S   S8        1.0  0.08796  0.2547  0.029820000000000006  1.0000
  N   N1        1.0  0.57658  0.44318  0.11850000000000001  1.0000
  N   N2        1.0  0.57445  0.06545999999999999  0.12327000000000003  1.0000
  N   N3        1.0  0.46064  0.68652  0.052320000000000005  1.0000
  N   N4        1.0  0.45706999999999987  0.8231  0.05429  1.0000
  N   N5        1.0  0.07674  0.05723999999999999  0.8814500000000002  1.0000
  N   N6        1.0  0.07446  0.435  0.87682  1.0000
  N   N7        1.0  0.96067  0.8137399999999999  0.94776  1.0000
  N   N8        1.0  0.95694  0.67711  0.9456400000000003  1.0000
  N   N9        1.0  0.07659  0.4432  0.3815000000000001  1.0000
  N   N10       1.0  0.07454  0.06545999999999999  0.37679  1.0000
  N   N11       1.0  0.96082  0.68649  0.44774  1.0000
  N   N12       1.0  0.9568899999999998  0.82305  0.44564  1.0000
  N   N13       1.0  0.57695  0.05723999999999999  0.61852  1.0000
  N   N14       1.0  0.57446  0.4349299999999999  0.62321  1.0000
  N   N15       1.0  0.46056  0.81366  0.55228  1.0000
  N   N16       1.0  0.45719  0.6770299999999999  0.5542800000000002  1.0000
  N   N17       1.0  0.9234  0.55679  0.6185  1.0000
  N   N18       1.0  0.92545  0.93454  0.62321  1.0000
  N   N19       1.0  0.03917  0.31351  0.55227  1.0000
  N   N20       1.0  0.043099999999999986  0.17694999999999997  0.55436  1.0000
  N   N21       1.0  0.42304  0.94276  0.3814800000000001  1.0000
  N   N22       1.0  0.42553  0.56506  0.37679  1.0000
  N   N23       1.0  0.53943  0.18634  0.44772  1.0000
  N   N24       1.0  0.5427999999999997  0.32297  0.44572  1.0000
  N   N25       1.0  0.42341  0.55682  0.8815000000000002  1.0000
  N   N26       1.0  0.42553999999999986  0.93454  0.8767300000000002  1.0000
  N   N27       1.0  0.53935  0.31347  0.9476800000000002  1.0000
  N   N28       1.0  0.54292  0.17688999999999996  0.94571  1.0000
  N   N29       1.0  0.92325  0.94275  0.11855  1.0000
  N   N30       1.0  0.9255399999999998  0.565  0.12318000000000003  1.0000
  N   N31       1.0  0.03931999999999999  0.18626  0.052240000000000016  1.0000
  N   N32       1.0  0.04305  0.32289  0.05436000000000001  1.0000
  O   O1        1.0  0.6578099999999998  0.31988  0.17537000000000005  1.0000
  O   O2        1.0  0.66273  0.19622  0.17357  1.0000
  O   O3        1.0  0.9737499999999998  0.31973  0.3332500000000001  1.0000
  O   O4        1.0  0.97809  0.19606  0.3308600000000001  1.0000
  O   O5        1.0  0.67541  0.31617999999999996  0.08242  1.0000
  O   O6        1.0  0.6675799999999997  0.19269999999999998  0.08029000000000003  1.0000
  O   O7        1.0  0.98309  0.30906  0.9218600000000002  1.0000
  O   O8        1.0  0.99033  0.1857  0.9266  1.0000
  O   O9        1.0  0.15638  0.18163  0.82446  1.0000
  O   O10       1.0  0.16456  0.30516  0.82664  1.0000
  O   O11       1.0  0.4755899999999999  0.18187  0.66693  1.0000
  O   O12       1.0  0.47618999999999995  0.30559  0.669  1.0000
  O   O13       1.0  0.17413  0.18556999999999996  0.91757  1.0000
  O   O14       1.0  0.16887  0.30914  0.91974  1.0000
  O   O15       1.0  0.48392  0.18937  0.07777  1.0000
  O   O16       1.0  0.48959  0.31282999999999994  0.07371  1.0000
  O   O17       1.0  0.15630999999999995  0.3198  0.32448  1.0000
  O   O18       1.0  0.16442  0.19623999999999997  0.3267500000000001  1.0000
  O   O19       1.0  0.47334  0.31979  0.16662000000000005  1.0000
  O   O20       1.0  0.47627999999999987  0.19603  0.16897  1.0000
  O   O21       1.0  0.17478  0.31607  0.4176200000000001  1.0000
  O   O22       1.0  0.16873  0.1925  0.4196900000000001  1.0000
  O   O23       1.0  0.48446  0.30903  0.57784  1.0000
  O   O24       1.0  0.4893499999999999  0.18556  0.57363  1.0000
  O   O25       1.0  0.6580299999999998  0.18153999999999995  0.6753200000000003  1.0000
  O   O26       1.0  0.6627799999999998  0.3052  0.6737  1.0000
  O   O27       1.0  0.9738999999999998  0.18181  0.8333100000000002  1.0000
  O   O28       1.0  0.97805  0.30548  0.83061  1.0000
  O   O29       1.0  0.67533  0.18548  0.5824300000000002  1.0000
  O   O30       1.0  0.66849  0.30903  0.5803600000000002  1.0000
  O   O31       1.0  0.9828399999999998  0.18933  0.422  1.0000
  O   O32       1.0  0.99096  0.31266  0.4265000000000001  1.0000
  O   O33       1.0  0.84368  0.6802  0.6755200000000002  1.0000
  O   O34       1.0  0.8355699999999998  0.80376  0.6732500000000002  1.0000
  O   O35       1.0  0.5266499999999997  0.68021  0.83338  1.0000
  O   O36       1.0  0.52371  0.80397  0.8310300000000003  1.0000
  O   O37       1.0  0.82521  0.68393  0.5823800000000002  1.0000
  O   O38       1.0  0.83126  0.80749  0.5803200000000002  1.0000
  O   O39       1.0  0.5155299999999998  0.69096  0.4221600000000001  1.0000
  O   O40       1.0  0.51065  0.81443  0.42637  1.0000
  O   O41       1.0  0.3419599999999999  0.8184599999999999  0.32468000000000014  1.0000
  O   O42       1.0  0.33720999999999995  0.69479  0.3263000000000001  1.0000
  O   O43       1.0  0.02609  0.8181799999999999  0.16669  1.0000
  O   O44       1.0  0.02194  0.69451  0.16939000000000007  1.0000
  O   O45       1.0  0.32466  0.81452  0.4175700000000001  1.0000
  O   O46       1.0  0.33151  0.69097  0.4196400000000001  1.0000
  O   O47       1.0  0.01715  0.81067  0.578  1.0000
  O   O48       1.0  0.00903  0.68733  0.5735000000000002  1.0000
  O   O49       1.0  0.34218  0.68012  0.82463  1.0000
  O   O50       1.0  0.3372599999999999  0.8037799999999999  0.8264300000000002  1.0000
  O   O51       1.0  0.02625  0.68027  0.66675  1.0000
  O   O52       1.0  0.0219  0.80394  0.6691400000000002  1.0000
  O   O53       1.0  0.32457999999999987  0.68382  0.91758  1.0000
  O   O54       1.0  0.33240999999999987  0.8072899999999998  0.91971  1.0000
  O   O55       1.0  0.0169  0.6909399999999998  0.07814000000000003  1.0000
  O   O56       1.0  0.00966  0.8143  0.07340000000000003  1.0000
  O   O57       1.0  0.84361  0.81837  0.17554000000000006  1.0000
  O   O58       1.0  0.83543  0.69484  0.17336000000000004  1.0000
  O   O59       1.0  0.5244  0.81813  0.33308  1.0000
  O   O60       1.0  0.5238  0.6944099999999999  0.331  1.0000
  O   O61       1.0  0.82586  0.81443  0.08243000000000002  1.0000
  O   O62       1.0  0.83112  0.69085  0.08026  1.0000
  O   O63       1.0  0.51607  0.81063  0.92223  1.0000
  O   O64       1.0  0.5104  0.68717  0.9262900000000002  1.0000
