data_image0
_chemical_formula_structural       Cd32H96C192N80Cl8
_chemical_formula_sum              "Cd32 H96 C192 N80 Cl8"
_cell_length_a       20.27643
_cell_length_b       28.56848
_cell_length_c       28.56848
_cell_angle_alpha    90.0
_cell_angle_beta     90.0
_cell_angle_gamma    90.0

_symmetry_space_group_name_H-M    'P 1'
_symmetry_Int_Tables_number       1

loop_
  _symmetry_equiv_pos_as_xyz
  'x,y,z'

loop_
  _atom_site_type_symbol
  _atom_site_label
  _atom_site_symmetry_multiplicity
  _atom_site_fract_x
  _atom_site_fract_y
  _atom_site_fract_z
  _atom_site_occupancy
  Cd  Cd1       1.0  0.14439  0.30511  0.44883  1.0000
  Cd  Cd2       1.0  0.5  0.1901  0.6901  1.0000
  Cd  Cd3       1.0  0.14439  0.80511  0.05117  1.0000
  Cd  Cd4       1.0  0.8556099999999999  0.9488300000000002  0.80511  1.0000
  Cd  Cd5       1.0  0.8556099999999999  0.05117  0.19489  1.0000
  Cd  Cd6       1.0  0.8556099999999999  0.80511  0.05117  1.0000
  Cd  Cd7       1.0  0.0  0.027200000000000005  0.10448000000000003  1.0000
  Cd  Cd8       1.0  0.8556099999999999  0.6948900000000002  0.55117  1.0000
  Cd  Cd9       1.0  0.14439  0.19489  0.9488300000000002  1.0000
  Cd  Cd10      1.0  0.14439  0.55117  0.30511  1.0000
  Cd  Cd11      1.0  0.8556099999999999  0.55117  0.30511  1.0000
  Cd  Cd12      1.0  0.0  0.5272  0.39552  1.0000
  Cd  Cd13      1.0  0.0  0.89552  0.027200000000000005  1.0000
  Cd  Cd14      1.0  0.0  0.60448  0.5272  1.0000
  Cd  Cd15      1.0  0.8556099999999999  0.30511  0.44883  1.0000
  Cd  Cd16      1.0  0.5  0.8099000000000002  0.3099  1.0000
  Cd  Cd17      1.0  0.5  0.3099  0.1901  1.0000
  Cd  Cd18      1.0  0.8556099999999999  0.19489  0.9488300000000002  1.0000
  Cd  Cd19      1.0  0.0  0.10448000000000003  0.9728  1.0000
  Cd  Cd20      1.0  0.8556099999999999  0.44883  0.6948900000000002  1.0000
  Cd  Cd21      1.0  0.5  0.77133  0.7286700000000003  1.0000
  Cd  Cd22      1.0  0.5  0.22867  0.27133  1.0000
  Cd  Cd23      1.0  0.14439  0.6948900000000002  0.55117  1.0000
  Cd  Cd24      1.0  0.5  0.6901  0.8099000000000002  1.0000
  Cd  Cd25      1.0  0.0  0.9728  0.89552  1.0000
  Cd  Cd26      1.0  0.5  0.7286700000000003  0.22867  1.0000
  Cd  Cd27      1.0  0.5  0.27133  0.77133  1.0000
  Cd  Cd28      1.0  0.0  0.39552  0.4728  1.0000
  Cd  Cd29      1.0  0.14439  0.05117  0.19489  1.0000
  Cd  Cd30      1.0  0.14439  0.9488300000000002  0.80511  1.0000
  Cd  Cd31      1.0  0.0  0.4728  0.60448  1.0000
  Cd  Cd32      1.0  0.14439  0.44883  0.6948900000000002  1.0000
  H   H1        1.0  0.67406  0.8185300000000002  0.16061000000000003  1.0000
  H   H2        1.0  0.68556  0.55736  0.7450300000000002  1.0000
  H   H3        1.0  0.56621  0.58756  0.6594  1.0000
  H   H4        1.0  0.2208  0.19716  0.02885  1.0000
  H   H5        1.0  0.68556  0.94264  0.24503  1.0000
  H   H6        1.0  0.31444  0.44264  0.25497  1.0000
  H   H7        1.0  0.75437  0.17438000000000006  0.74067  1.0000
  H   H8        1.0  0.76677  0.8471000000000002  0.11177000000000002  1.0000
  H   H9        1.0  0.32594  0.33939  0.68147  1.0000
  H   H10       1.0  0.2208  0.97115  0.19716  1.0000
  H   H11       1.0  0.24563  0.82562  0.25934  1.0000
  H   H12       1.0  0.32594  0.83939  0.8185300000000002  1.0000
  H   H13       1.0  0.56621  0.08756000000000001  0.8406000000000002  1.0000
  H   H14       1.0  0.32593  0.16061000000000003  0.18147  1.0000
  H   H15       1.0  0.68556  0.24503  0.05736  1.0000
  H   H16       1.0  0.31444  0.7450300000000002  0.44264  1.0000
  H   H17       1.0  0.56621  0.41244  0.3406  1.0000
  H   H18       1.0  0.32594  0.68147  0.66061  1.0000
  H   H19       1.0  0.75437  0.82562  0.25934  1.0000
  H   H20       1.0  0.7792  0.19716  0.02885  1.0000
  H   H21       1.0  0.7792  0.80285  0.97115  1.0000
  H   H22       1.0  0.67406  0.83939  0.8185300000000002  1.0000
  H   H23       1.0  0.43378  0.8406000000000002  0.91244  1.0000
  H   H24       1.0  0.75437  0.75934  0.3256200000000001  1.0000
  H   H25       1.0  0.31444  0.24503  0.05736  1.0000
  H   H26       1.0  0.75437  0.3256200000000001  0.24066  1.0000
  H   H27       1.0  0.2208  0.52885  0.69716  1.0000
  H   H28       1.0  0.76677  0.88823  0.8471000000000002  1.0000
  H   H29       1.0  0.56621  0.3406  0.58756  1.0000
  H   H30       1.0  0.23322000000000004  0.38823000000000013  0.6529  1.0000
  H   H31       1.0  0.24563  0.6743800000000002  0.75934  1.0000
  H   H32       1.0  0.67406  0.31853000000000004  0.33939  1.0000
  H   H33       1.0  0.23322000000000004  0.8471000000000002  0.11177000000000002  1.0000
  H   H34       1.0  0.7792  0.52885  0.69716  1.0000
  H   H35       1.0  0.24563  0.3256200000000001  0.24066  1.0000
  H   H36       1.0  0.2208  0.02885  0.80285  1.0000
  H   H37       1.0  0.67406  0.18147  0.83939  1.0000
  H   H38       1.0  0.23322000000000004  0.1529  0.88823  1.0000
  H   H39       1.0  0.31444  0.75497  0.94264  1.0000
  H   H40       1.0  0.23322000000000004  0.88823  0.8471000000000002  1.0000
  H   H41       1.0  0.68556  0.25497  0.55736  1.0000
  H   H42       1.0  0.56621  0.8406000000000002  0.91244  1.0000
  H   H43       1.0  0.2208  0.69716  0.47115  1.0000
  H   H44       1.0  0.76677  0.11177000000000002  0.1529  1.0000
  H   H45       1.0  0.67406  0.16061000000000003  0.18147  1.0000
  H   H46       1.0  0.43378  0.6594  0.41244  1.0000
  H   H47       1.0  0.67406  0.33939  0.68147  1.0000
  H   H48       1.0  0.76677  0.6529  0.61177  1.0000
  H   H49       1.0  0.23322000000000004  0.6529  0.61177  1.0000
  H   H50       1.0  0.23322000000000004  0.3471  0.38823000000000013  1.0000
  H   H51       1.0  0.68556  0.44264  0.25497  1.0000
  H   H52       1.0  0.31444  0.05736  0.75497  1.0000
  H   H53       1.0  0.32594  0.66061  0.31853000000000004  1.0000
  H   H54       1.0  0.43378  0.91244  0.1594  1.0000
  H   H55       1.0  0.67406  0.66061  0.31853000000000004  1.0000
  H   H56       1.0  0.7792  0.02885  0.80285  1.0000
  H   H57       1.0  0.7792  0.47115  0.3028500000000001  1.0000
  H   H58       1.0  0.43378  0.3406  0.58756  1.0000
  H   H59       1.0  0.76677  0.3471  0.38823000000000013  1.0000
  H   H60       1.0  0.24563  0.24066  0.6743800000000002  1.0000
  H   H61       1.0  0.56621  0.1594  0.08756000000000001  1.0000
  H   H62       1.0  0.23322000000000004  0.11177000000000002  0.1529  1.0000
  H   H63       1.0  0.24563  0.75934  0.3256200000000001  1.0000
  H   H64       1.0  0.31444  0.94264  0.24503  1.0000
  H   H65       1.0  0.32593  0.8185300000000002  0.16061000000000003  1.0000
  H   H66       1.0  0.32593  0.18147  0.83939  1.0000
  H   H67       1.0  0.32594  0.31853000000000004  0.33939  1.0000
  H   H68       1.0  0.2208  0.80285  0.97115  1.0000
  H   H69       1.0  0.75437  0.24066  0.6743800000000002  1.0000
  H   H70       1.0  0.43378  0.58756  0.6594  1.0000
  H   H71       1.0  0.23322000000000004  0.61177  0.3471  1.0000
  H   H72       1.0  0.75437  0.74067  0.82562  1.0000
  H   H73       1.0  0.56621  0.6594  0.41244  1.0000
  H   H74       1.0  0.31444  0.55736  0.7450300000000002  1.0000
  H   H75       1.0  0.7792  0.69716  0.47115  1.0000
  H   H76       1.0  0.7792  0.3028500000000001  0.52885  1.0000
  H   H77       1.0  0.68556  0.05736  0.75497  1.0000
  H   H78       1.0  0.2208  0.3028500000000001  0.52885  1.0000
  H   H79       1.0  0.7792  0.97115  0.19716  1.0000
  H   H80       1.0  0.43378  0.08756000000000001  0.8406000000000002  1.0000
  H   H81       1.0  0.2208  0.47115  0.3028500000000001  1.0000
  H   H82       1.0  0.68556  0.7450300000000002  0.44264  1.0000
  H   H83       1.0  0.75437  0.25934  0.17438000000000006  1.0000
  H   H84       1.0  0.56621  0.91244  0.1594  1.0000
  H   H85       1.0  0.24563  0.74067  0.82562  1.0000
  H   H86       1.0  0.31444  0.25497  0.55736  1.0000
  H   H87       1.0  0.24563  0.17438000000000006  0.74067  1.0000
  H   H88       1.0  0.43378  0.41244  0.3406  1.0000
  H   H89       1.0  0.76677  0.1529  0.88823  1.0000
  H   H90       1.0  0.67406  0.68147  0.66061  1.0000
  H   H91       1.0  0.76677  0.38823000000000013  0.6529  1.0000
  H   H92       1.0  0.68556  0.75497  0.94264  1.0000
  H   H93       1.0  0.43378  0.1594  0.08756000000000001  1.0000
  H   H94       1.0  0.76677  0.61177  0.3471  1.0000
  H   H95       1.0  0.75437  0.6743800000000002  0.75934  1.0000
  H   H96       1.0  0.24563  0.25934  0.17438000000000006  1.0000
  C   C1        1.0  0.3031  0.35215000000000013  0.3317800000000001  1.0000
  C   C2        1.0  0.7032  0.92191  0.21566  1.0000
  C   C3        1.0  0.74905  0.1317  0.8591300000000001  1.0000
  C   C4        1.0  0.37874  0.7622700000000001  0.85939  1.0000
  C   C5        1.0  0.74905  0.35913  0.6317  1.0000
  C   C6        1.0  0.35547  0.82837  0.27293  1.0000
  C   C7        1.0  0.2968  0.7156600000000001  0.4219000000000001  1.0000
  C   C8        1.0  0.22001000000000004  0.9111300000000002  0.15112  1.0000
  C   C9        1.0  0.2968  0.78434  0.92191  1.0000
  C   C10       1.0  0.24428  0.4379200000000001  0.3114200000000001  1.0000
  C   C11       1.0  0.16221  0.12466  0.07329  1.0000
  C   C12       1.0  0.7123  0.72108  0.8128700000000002  1.0000
  C   C13       1.0  0.16221  0.62466  0.42671000000000003  1.0000
  C   C14       1.0  0.25095  0.64087  0.36831000000000014  1.0000
  C   C15       1.0  0.2877  0.18713  0.72108  1.0000
  C   C16       1.0  0.22001000000000004  0.41113  0.34889  1.0000
  C   C17       1.0  0.2877  0.68713  0.77893  1.0000
  C   C18       1.0  0.46614  0.31437  0.60248  1.0000
  C   C19       1.0  0.7032  0.28434  0.5781  1.0000
  C   C20       1.0  0.62125  0.7377400000000002  0.35939  1.0000
  C   C21       1.0  0.62125  0.14061000000000004  0.7622700000000001  1.0000
  C   C22       1.0  0.69689  0.14785  0.83178  1.0000
  C   C23       1.0  0.44477  0.87183  0.22683000000000006  1.0000
  C   C24       1.0  0.22001000000000004  0.65112  0.41113  1.0000
  C   C25       1.0  0.55522  0.12817  0.77317  1.0000
  C   C26       1.0  0.62125  0.26226  0.64061  1.0000
  C   C27       1.0  0.74905  0.36831000000000014  0.35913  1.0000
  C   C28       1.0  0.74905  0.6317  0.64087  1.0000
  C   C29       1.0  0.44477  0.72683  0.37183  1.0000
  C   C30       1.0  0.55522  0.72683  0.37183  1.0000
  C   C31       1.0  0.24428  0.68858  0.4379200000000001  1.0000
  C   C32       1.0  0.64453  0.22707000000000005  0.6716300000000002  1.0000
  C   C33       1.0  0.3031  0.85216  0.16822  1.0000
  C   C34       1.0  0.44477  0.12817  0.77317  1.0000
  C   C35       1.0  0.69689  0.3317800000000001  0.64785  1.0000
  C   C36       1.0  0.77998  0.8488900000000003  0.9111300000000002  1.0000
  C   C37       1.0  0.69689  0.16822  0.14785  1.0000
  C   C38       1.0  0.67375  0.79374  0.8785  1.0000
  C   C39       1.0  0.74905  0.14087  0.1317  1.0000
  C   C40       1.0  0.24428  0.18858000000000005  0.06208  1.0000
  C   C41       1.0  0.62125  0.64061  0.7377400000000002  1.0000
  C   C42       1.0  0.46614  0.10248  0.81437  1.0000
  C   C43       1.0  0.3031  0.64785  0.6682200000000003  1.0000
  C   C44       1.0  0.22001000000000004  0.08887000000000002  0.8488900000000003  1.0000
  C   C45       1.0  0.32625  0.79374  0.8785  1.0000
  C   C46       1.0  0.75571  0.18858000000000005  0.06208  1.0000
  C   C47       1.0  0.32625  0.7062600000000002  0.3785  1.0000
  C   C48       1.0  0.53385  0.8975200000000002  0.18563  1.0000
  C   C49       1.0  0.62125  0.35939  0.26226  1.0000
  C   C50       1.0  0.32625  0.3785  0.29374000000000006  1.0000
  C   C51       1.0  0.22001000000000004  0.15112  0.08887000000000002  1.0000
  C   C52       1.0  0.25095  0.36831000000000014  0.35913  1.0000
  C   C53       1.0  0.67375  0.3785  0.29374000000000006  1.0000
  C   C54       1.0  0.75571  0.68858  0.4379200000000001  1.0000
  C   C55       1.0  0.32625  0.29374000000000006  0.6215000000000003  1.0000
  C   C56       1.0  0.25095  0.35913  0.6317  1.0000
  C   C57       1.0  0.67375  0.7062600000000002  0.3785  1.0000
  C   C58       1.0  0.83779  0.42671000000000003  0.3753400000000001  1.0000
  C   C59       1.0  0.44477  0.22683000000000006  0.12817  1.0000
  C   C60       1.0  0.46614  0.39752  0.31437  1.0000
  C   C61       1.0  0.44477  0.77317  0.87183  1.0000
  C   C62       1.0  0.7123  0.68713  0.77893  1.0000
  C   C63       1.0  0.37874  0.85939  0.23774000000000006  1.0000
  C   C64       1.0  0.77998  0.34889  0.58887  1.0000
  C   C65       1.0  0.2877  0.22108  0.68713  1.0000
  C   C66       1.0  0.44477  0.37183  0.27317  1.0000
  C   C67       1.0  0.67375  0.1215  0.79374  1.0000
  C   C68       1.0  0.69689  0.83178  0.85216  1.0000
  C   C69       1.0  0.16221  0.9267100000000003  0.12466  1.0000
  C   C70       1.0  0.22001000000000004  0.34889  0.58887  1.0000
  C   C71       1.0  0.46614  0.6856300000000001  0.39752  1.0000
  C   C72       1.0  0.69689  0.64785  0.6682200000000003  1.0000
  C   C73       1.0  0.32625  0.1215  0.79374  1.0000
  C   C74       1.0  0.55522  0.87183  0.22683000000000006  1.0000
  C   C75       1.0  0.64453  0.82837  0.27293  1.0000
  C   C76       1.0  0.55522  0.37183  0.27317  1.0000
  C   C77       1.0  0.7123  0.18713  0.72108  1.0000
  C   C78       1.0  0.83779  0.07329  0.8753400000000002  1.0000
  C   C79       1.0  0.7032  0.21566  0.07810000000000003  1.0000
  C   C80       1.0  0.53385  0.31437  0.60248  1.0000
  C   C81       1.0  0.37874  0.23774000000000006  0.14061000000000004  1.0000
  C   C82       1.0  0.37874  0.35939  0.26226  1.0000
  C   C83       1.0  0.7123  0.31287  0.22108  1.0000
  C   C84       1.0  0.67375  0.20626  0.1215  1.0000
  C   C85       1.0  0.44477  0.27317  0.62817  1.0000
  C   C86       1.0  0.3031  0.83178  0.85216  1.0000
  C   C87       1.0  0.7032  0.5781  0.7156600000000001  1.0000
  C   C88       1.0  0.83779  0.8753400000000002  0.9267100000000003  1.0000
  C   C89       1.0  0.83779  0.9267100000000003  0.12466  1.0000
  C   C90       1.0  0.37874  0.64061  0.7377400000000002  1.0000
  C   C91       1.0  0.32625  0.20626  0.1215  1.0000
  C   C92       1.0  0.35547  0.6716300000000002  0.7729300000000002  1.0000
  C   C93       1.0  0.53385  0.10248  0.81437  1.0000
  C   C94       1.0  0.35547  0.27293  0.17163  1.0000
  C   C95       1.0  0.55522  0.77317  0.87183  1.0000
  C   C96       1.0  0.46614  0.81437  0.8975200000000002  1.0000
  C   C97       1.0  0.64453  0.32837  0.22707000000000005  1.0000
  C   C98       1.0  0.3031  0.14785  0.83178  1.0000
  C   C99       1.0  0.55522  0.22683000000000006  0.12817  1.0000
  C   C100      1.0  0.7032  0.4219000000000001  0.28434  1.0000
  C   C101      1.0  0.16221  0.07329  0.8753400000000002  1.0000
  C   C102      1.0  0.24428  0.9379200000000002  0.18858000000000005  1.0000
  C   C103      1.0  0.44477  0.62817  0.72683  1.0000
  C   C104      1.0  0.64453  0.6716300000000002  0.7729300000000002  1.0000
  C   C105      1.0  0.7032  0.07810000000000003  0.78434  1.0000
  C   C106      1.0  0.75571  0.8114200000000003  0.9379200000000002  1.0000
  C   C107      1.0  0.53385  0.6856300000000001  0.39752  1.0000
  C   C108      1.0  0.64453  0.17163  0.72707  1.0000
  C   C109      1.0  0.53385  0.18563  0.10248  1.0000
  C   C110      1.0  0.37874  0.14061000000000004  0.7622700000000001  1.0000
  C   C111      1.0  0.24428  0.56208  0.68858  1.0000
  C   C112      1.0  0.35547  0.72707  0.82837  1.0000
  C   C113      1.0  0.35547  0.22707000000000005  0.6716300000000002  1.0000
  C   C114      1.0  0.25095  0.6317  0.64087  1.0000
  C   C115      1.0  0.16221  0.8753400000000002  0.9267100000000003  1.0000
  C   C116      1.0  0.77998  0.65112  0.41113  1.0000
  C   C117      1.0  0.7123  0.8128700000000002  0.27892  1.0000
  C   C118      1.0  0.35547  0.7729300000000002  0.32837  1.0000
  C   C119      1.0  0.69689  0.35215000000000013  0.3317800000000001  1.0000
  C   C120      1.0  0.2877  0.27892  0.18713  1.0000
  C   C121      1.0  0.75571  0.3114200000000001  0.56208  1.0000
  C   C122      1.0  0.3031  0.3317800000000001  0.64785  1.0000
  C   C123      1.0  0.53385  0.60248  0.6856300000000001  1.0000
  C   C124      1.0  0.77998  0.41113  0.34889  1.0000
  C   C125      1.0  0.55522  0.27317  0.62817  1.0000
  C   C126      1.0  0.74905  0.86831  0.14087  1.0000
  C   C127      1.0  0.46614  0.60248  0.6856300000000001  1.0000
  C   C128      1.0  0.2968  0.92191  0.21566  1.0000
  C   C129      1.0  0.69689  0.85216  0.16822  1.0000
  C   C130      1.0  0.62125  0.23774000000000006  0.14061000000000004  1.0000
  C   C131      1.0  0.7032  0.7156600000000001  0.4219000000000001  1.0000
  C   C132      1.0  0.83779  0.5733  0.62466  1.0000
  C   C133      1.0  0.7032  0.78434  0.92191  1.0000
  C   C134      1.0  0.7123  0.27892  0.18713  1.0000
  C   C135      1.0  0.37874  0.26226  0.64061  1.0000
  C   C136      1.0  0.83779  0.62466  0.42671000000000003  1.0000
  C   C137      1.0  0.46614  0.8975200000000002  0.18563  1.0000
  C   C138      1.0  0.25095  0.14087  0.1317  1.0000
  C   C139      1.0  0.53385  0.81437  0.8975200000000002  1.0000
  C   C140      1.0  0.74905  0.64087  0.36831000000000014  1.0000
  C   C141      1.0  0.69689  0.6682200000000003  0.35215000000000013  1.0000
  C   C142      1.0  0.64453  0.72707  0.82837  1.0000
  C   C143      1.0  0.2968  0.4219000000000001  0.28434  1.0000
  C   C144      1.0  0.24428  0.06208  0.8114200000000003  1.0000
  C   C145      1.0  0.2968  0.07810000000000003  0.78434  1.0000
  C   C146      1.0  0.25095  0.86831  0.14087  1.0000
  C   C147      1.0  0.25095  0.8591300000000001  0.86831  1.0000
  C   C148      1.0  0.67375  0.29374000000000006  0.6215000000000003  1.0000
  C   C149      1.0  0.35547  0.32837  0.22707000000000005  1.0000
  C   C150      1.0  0.2877  0.72108  0.8128700000000002  1.0000
  C   C151      1.0  0.55522  0.62817  0.72683  1.0000
  C   C152      1.0  0.64453  0.27293  0.17163  1.0000
  C   C153      1.0  0.7123  0.22108  0.68713  1.0000
  C   C154      1.0  0.24428  0.3114200000000001  0.56208  1.0000
  C   C155      1.0  0.37874  0.7377400000000002  0.35939  1.0000
  C   C156      1.0  0.64453  0.7729300000000002  0.32837  1.0000
  C   C157      1.0  0.16221  0.5733  0.62466  1.0000
  C   C158      1.0  0.22001000000000004  0.58887  0.65112  1.0000
  C   C159      1.0  0.77998  0.9111300000000002  0.15112  1.0000
  C   C160      1.0  0.62125  0.7622700000000001  0.85939  1.0000
  C   C161      1.0  0.22001000000000004  0.8488900000000003  0.9111300000000002  1.0000
  C   C162      1.0  0.75571  0.06208  0.8114200000000003  1.0000
  C   C163      1.0  0.35547  0.17163  0.72707  1.0000
  C   C164      1.0  0.62125  0.85939  0.23774000000000006  1.0000
  C   C165      1.0  0.83779  0.3753400000000001  0.5733  1.0000
  C   C166      1.0  0.2968  0.21566  0.07810000000000003  1.0000
  C   C167      1.0  0.3031  0.16822  0.14785  1.0000
  C   C168      1.0  0.16221  0.3753400000000001  0.5733  1.0000
  C   C169      1.0  0.2968  0.5781  0.7156600000000001  1.0000
  C   C170      1.0  0.53385  0.39752  0.31437  1.0000
  C   C171      1.0  0.77998  0.58887  0.65112  1.0000
  C   C172      1.0  0.32625  0.8785  0.20626  1.0000
  C   C173      1.0  0.16221  0.42671000000000003  0.3753400000000001  1.0000
  C   C174      1.0  0.75571  0.56208  0.68858  1.0000
  C   C175      1.0  0.2968  0.28434  0.5781  1.0000
  C   C176      1.0  0.74905  0.8591300000000001  0.86831  1.0000
  C   C177      1.0  0.2877  0.77893  0.31287  1.0000
  C   C178      1.0  0.7123  0.77893  0.31287  1.0000
  C   C179      1.0  0.67375  0.8785  0.20626  1.0000
  C   C180      1.0  0.25095  0.1317  0.8591300000000001  1.0000
  C   C181      1.0  0.2877  0.31287  0.22108  1.0000
  C   C182      1.0  0.75571  0.9379200000000002  0.18858000000000005  1.0000
  C   C183      1.0  0.75571  0.4379200000000001  0.3114200000000001  1.0000
  C   C184      1.0  0.24428  0.8114200000000003  0.9379200000000002  1.0000
  C   C185      1.0  0.83779  0.12466  0.07329  1.0000
  C   C186      1.0  0.77998  0.08887000000000002  0.8488900000000003  1.0000
  C   C187      1.0  0.32625  0.6215000000000003  0.7062600000000002  1.0000
  C   C188      1.0  0.46614  0.18563  0.10248  1.0000
  C   C189      1.0  0.77998  0.15112  0.08887000000000002  1.0000
  C   C190      1.0  0.2877  0.8128700000000002  0.27892  1.0000
  C   C191      1.0  0.67375  0.6215000000000003  0.7062600000000002  1.0000
  C   C192      1.0  0.3031  0.6682200000000003  0.35215000000000013  1.0000
  N   N1        1.0  0.13128  0.90118  0.09133  1.0000
  N   N2        1.0  0.07954  0.39783  0.53279  1.0000
  N   N3        1.0  0.39393  0.69553  0.8044700000000002  1.0000
  N   N4        1.0  0.9204500000000001  0.46721  0.39783  1.0000
  N   N5        1.0  0.5  0.35838  0.24872000000000005  1.0000
  N   N6        1.0  0.86934  0.03211  0.8684  1.0000
  N   N7        1.0  0.13065  0.13160000000000002  0.03211  1.0000
  N   N8        1.0  0.86872  0.09133  0.09882  1.0000
  N   N9        1.0  0.13065  0.6316  0.4678900000000001  1.0000
  N   N10       1.0  0.07954  0.6021700000000002  0.46721  1.0000
  N   N11       1.0  0.13128  0.40867000000000003  0.59882  1.0000
  N   N12       1.0  0.5  0.75128  0.35838  1.0000
  N   N13       1.0  0.86934  0.6316  0.4678900000000001  1.0000
  N   N14       1.0  0.07988  0.5728100000000003  0.5780200000000002  1.0000
  N   N15       1.0  0.5  0.85838  0.25128  1.0000
  N   N16       1.0  0.07954  0.10217  0.03279  1.0000
  N   N17       1.0  0.5  0.14162000000000005  0.7487200000000002  1.0000
  N   N18       1.0  0.86934  0.3684  0.53211  1.0000
  N   N19       1.0  0.39393  0.19553000000000006  0.69553  1.0000
  N   N20       1.0  0.07954  0.46721  0.39783  1.0000
  N   N21       1.0  0.60607  0.19553000000000006  0.69553  1.0000
  N   N22       1.0  0.9201200000000002  0.07802  0.07281  1.0000
  N   N23       1.0  0.9201200000000002  0.4271900000000001  0.42198000000000013  1.0000
  N   N24       1.0  0.39393  0.8044700000000002  0.3044700000000001  1.0000
  N   N25       1.0  0.5  0.64162  0.75128  1.0000
  N   N26       1.0  0.86872  0.40118  0.40867000000000003  1.0000
  N   N27       1.0  0.07988  0.42198000000000013  0.5728100000000003  1.0000
  N   N28       1.0  0.9201200000000002  0.92719  0.07802  1.0000
  N   N29       1.0  0.39393  0.3044700000000001  0.19553000000000006  1.0000
  N   N30       1.0  0.86872  0.59133  0.40118  1.0000
  N   N31       1.0  0.9204500000000001  0.10217  0.03279  1.0000
  N   N32       1.0  0.5  0.25128  0.14162000000000005  1.0000
  N   N33       1.0  0.07988  0.07281  0.92198  1.0000
  N   N34       1.0  0.13065  0.3684  0.53211  1.0000
  N   N35       1.0  0.9204500000000001  0.9672100000000002  0.10217  1.0000
  N   N36       1.0  0.9201200000000002  0.5728100000000003  0.5780200000000002  1.0000
  N   N37       1.0  0.13065  0.9678900000000003  0.13160000000000002  1.0000
  N   N38       1.0  0.9204500000000001  0.89783  0.9672100000000002  1.0000
  N   N39       1.0  0.13065  0.8684  0.9678900000000003  1.0000
  N   N40       1.0  0.07988  0.4271900000000001  0.42198000000000013  1.0000
  N   N41       1.0  0.86934  0.8684  0.9678900000000003  1.0000
  N   N42       1.0  0.13128  0.40118  0.40867000000000003  1.0000
  N   N43       1.0  0.86872  0.59882  0.59133  1.0000
  N   N44       1.0  0.86872  0.9086700000000002  0.90118  1.0000
  N   N45       1.0  0.9204500000000001  0.53279  0.6021700000000002  1.0000
  N   N46       1.0  0.13065  0.03211  0.8684  1.0000
  N   N47       1.0  0.07988  0.92719  0.07802  1.0000
  N   N48       1.0  0.07954  0.53279  0.6021700000000002  1.0000
  N   N49       1.0  0.07954  0.89783  0.9672100000000002  1.0000
  N   N50       1.0  0.9201200000000002  0.42198000000000013  0.5728100000000003  1.0000
  N   N51       1.0  0.07954  0.9672100000000002  0.10217  1.0000
  N   N52       1.0  0.13128  0.59882  0.59133  1.0000
  N   N53       1.0  0.9201200000000002  0.07281  0.92198  1.0000
  N   N54       1.0  0.9201200000000002  0.5780200000000002  0.4271900000000001  1.0000
  N   N55       1.0  0.86872  0.90118  0.09133  1.0000
  N   N56       1.0  0.9204500000000001  0.03279  0.89783  1.0000
  N   N57       1.0  0.9204500000000001  0.6021700000000002  0.46721  1.0000
  N   N58       1.0  0.9201200000000002  0.92198  0.92719  1.0000
  N   N59       1.0  0.5  0.7487200000000002  0.85838  1.0000
  N   N60       1.0  0.13128  0.59133  0.40118  1.0000
  N   N61       1.0  0.13128  0.09882  0.9086700000000002  1.0000
  N   N62       1.0  0.13128  0.9086700000000002  0.90118  1.0000
  N   N63       1.0  0.60607  0.3044700000000001  0.19553000000000006  1.0000
  N   N64       1.0  0.13128  0.09133  0.09882  1.0000
  N   N65       1.0  0.13065  0.4678900000000001  0.3684  1.0000
  N   N66       1.0  0.86934  0.13160000000000002  0.03211  1.0000
  N   N67       1.0  0.86934  0.53211  0.6316  1.0000
  N   N68       1.0  0.07954  0.03279  0.89783  1.0000
  N   N69       1.0  0.86934  0.4678900000000001  0.3684  1.0000
  N   N70       1.0  0.9204500000000001  0.39783  0.53279  1.0000
  N   N71       1.0  0.13065  0.53211  0.6316  1.0000
  N   N72       1.0  0.5  0.24872000000000005  0.64162  1.0000
  N   N73       1.0  0.86872  0.40867000000000003  0.59882  1.0000
  N   N74       1.0  0.07988  0.5780200000000002  0.4271900000000001  1.0000
  N   N75       1.0  0.60607  0.8044700000000002  0.3044700000000001  1.0000
  N   N76       1.0  0.86872  0.09882  0.9086700000000002  1.0000
  N   N77       1.0  0.60607  0.69553  0.8044700000000002  1.0000
  N   N78       1.0  0.86934  0.9678900000000003  0.13160000000000002  1.0000
  N   N79       1.0  0.07988  0.92198  0.92719  1.0000
  N   N80       1.0  0.07988  0.07802  0.07281  1.0000
  Cl  Cl1       1.0  0.0  0.9496200000000002  0.80986  1.0000
  Cl  Cl2       1.0  0.0  0.05038000000000001  0.19015000000000007  1.0000
  Cl  Cl3       1.0  0.0  0.55038  0.30986  1.0000
  Cl  Cl4       1.0  0.0  0.80986  0.05038000000000001  1.0000
  Cl  Cl5       1.0  0.0  0.44962  0.69015  1.0000
  Cl  Cl6       1.0  0.0  0.30986  0.44962  1.0000
  Cl  Cl7       1.0  0.0  0.19015000000000007  0.9496200000000002  1.0000
  Cl  Cl8       1.0  0.0  0.69015  0.55038  1.0000
