data_image0
_chemical_formula_structural       Cd12H160C192S8N32O32
_chemical_formula_sum              "Cd12 H160 C192 S8 N32 O32"
_cell_length_a       13.78378
_cell_length_b       20.959999999999997
_cell_length_c       21.550139999999995
_cell_angle_alpha    90.06387
_cell_angle_beta     89.97614
_cell_angle_gamma    101.4782

_symmetry_space_group_name_H-M    'P 1'
_symmetry_Int_Tables_number       1

loop_
  _symmetry_equiv_pos_as_xyz
  'x,y,z'

loop_
  _atom_site_type_symbol
  _atom_site_label
  _atom_site_symmetry_multiplicity
  _atom_site_fract_x
  _atom_site_fract_y
  _atom_site_fract_z
  _atom_site_occupancy
  Cd  Cd1       1.0  0.44596  0.73977  0.26634  1.0000
  Cd  Cd2       1.0  0.28979  0.7732  0.01216  1.0000
  Cd  Cd3       1.0  0.62392  0.62285  0.55215  1.0000
  Cd  Cd4       1.0  0.055549999999999974  0.75989  0.76665  1.0000
  Cd  Cd5       1.0  0.21215999999999993  0.72714  0.51284  1.0000
  Cd  Cd6       1.0  0.87564  0.87786  0.05245  1.0000
  Cd  Cd7       1.0  0.55437  0.26006  0.73354  1.0000
  Cd  Cd8       1.0  0.7133599999999999  0.22873999999999997  0.9878699999999998  1.0000
  Cd  Cd9       1.0  0.3773  0.37725  0.44836999999999994  1.0000
  Cd  Cd10      1.0  0.94479  0.23905  0.23401  1.0000
  Cd  Cd11      1.0  0.7862099999999999  0.27126  0.48817  1.0000
  Cd  Cd12      1.0  0.12435999999999997  0.12141  0.94815  1.0000
  H   H1        1.0  0.63581  0.77436  0.18118  1.0000
  H   H2        1.0  0.8138099999999998  0.8283799999999999  0.1805  1.0000
  H   H3        1.0  0.78458  0.86826  0.37631  1.0000
  H   H4        1.0  0.60761  0.81041  0.36860999999999994  1.0000
  H   H5        1.0  0.93594  0.91589  0.32444  1.0000
  H   H6        1.0  0.95463  0.12617  0.13192999999999996  1.0000
  H   H7        1.0  0.94427  0.00589  0.12829  1.0000
  H   H8        1.0  0.019779999999999992  0.01435  0.32333  1.0000
  H   H9        1.0  0.017920000000000005  0.13288  0.32048  1.0000
  H   H10       1.0  0.9362499999999999  0.90695  0.18145  1.0000
  H   H11       1.0  0.15763999999999997  0.8849699999999999  0.026549999999999997  1.0000
  H   H12       1.0  0.07075999999999993  0.9332999999999999  0.11129999999999997  1.0000
  H   H13       1.0  0.18642999999999998  0.80863  0.23977999999999997  1.0000
  H   H14       1.0  0.27472  0.77051  0.15097  1.0000
  H   H15       1.0  0.11718999999999999  0.93157  0.26667  1.0000
  H   H16       1.0  0.26163999999999993  0.8259099999999999  0.4112799999999999  1.0000
  H   H17       1.0  0.1926  0.87738  0.32166  1.0000
  H   H18       1.0  0.9073899999999999  0.75683  0.36402  1.0000
  H   H19       1.0  0.9879799999999995  0.71488  0.45572  1.0000
  H   H20       1.0  0.9729199999999998  0.80197  0.24547  1.0000
  H   H21       1.0  0.30995  0.65115  0.16456999999999997  1.0000
  H   H22       1.0  0.13522  0.59935  0.14341  1.0000
  H   H23       1.0  0.061619999999999994  0.66339  0.32523  1.0000
  H   H24       1.0  0.24072  0.70963  0.34026999999999996  1.0000
  H   H25       1.0  0.9674099999999998  0.57467  0.17534  1.0000
  H   H26       1.0  0.9590599999999998  0.34912  0.34495999999999993  1.0000
  H   H27       1.0  0.9593999999999998  0.46698  0.35955  1.0000
  H   H28       1.0  0.8740000000000001  0.47455  0.16718  1.0000
  H   H29       1.0  0.8843199999999998  0.35673  0.15935999999999997  1.0000
  H   H30       1.0  0.94992  0.56884  0.31723999999999997  1.0000
  H   H31       1.0  0.6531899999999998  0.7029  0.39128  1.0000
  H   H32       1.0  0.7408199999999998  0.69015  0.29114  1.0000
  H   H33       1.0  0.78409  0.50416  0.35978999999999994  1.0000
  H   H34       1.0  0.6998699999999998  0.52698  0.45735999999999993  1.0000
  H   H35       1.0  0.7773999999999998  0.55514  0.22552999999999998  1.0000
  H   H36       1.0  0.66331  0.69004  0.0829  1.0000
  H   H37       1.0  0.70621  0.64501  0.18438  1.0000
  H   H38       1.0  0.014319999999999987  0.70073  0.13215  1.0000
  H   H39       1.0  0.95866  0.74117  0.03244  1.0000
  H   H40       1.0  0.9210799999999998  0.68108  0.26088  1.0000
  H   H41       1.0  0.8669199999999998  0.72347  0.6810199999999998  1.0000
  H   H42       1.0  0.68923  0.66881  0.68029  1.0000
  H   H43       1.0  0.71701  0.63278  0.8769399999999999  1.0000
  H   H44       1.0  0.89394  0.69089  0.86913  1.0000
  H   H45       1.0  0.56632  0.58316  0.82448  1.0000
  H   H46       1.0  0.54859  0.37335  0.63119  1.0000
  H   H47       1.0  0.5592699999999999  0.49366999999999994  0.62795  1.0000
  H   H48       1.0  0.48282999999999987  0.48483999999999994  0.8229  1.0000
  H   H49       1.0  0.4836299999999999  0.36612  0.81944  1.0000
  H   H50       1.0  0.56619  0.59249  0.68148  1.0000
  H   H51       1.0  0.34287  0.61387  0.52708  1.0000
  H   H52       1.0  0.4303299999999999  0.56569  0.61146  1.0000
  H   H53       1.0  0.31673  0.69116  0.74039  1.0000
  H   H54       1.0  0.22757999999999995  0.72904  0.65208  1.0000
  H   H55       1.0  0.38537  0.56774  0.7668  1.0000
  H   H56       1.0  0.24084999999999998  0.67462  0.91121  1.0000
  H   H57       1.0  0.31011  0.622  0.8222999999999999  1.0000
  H   H58       1.0  0.59525  0.74299  0.8640599999999999  1.0000
  H   H59       1.0  0.51461  0.78605  0.95521  1.0000
  H   H60       1.0  0.5299699999999999  0.69722  0.7458  1.0000
  H   H61       1.0  0.19051  0.84913  0.6652  1.0000
  H   H62       1.0  0.36507  0.90118  0.64393  1.0000
  H   H63       1.0  0.4397599999999998  0.8358699999999999  0.82482  1.0000
  H   H64       1.0  0.26055999999999996  0.7901099999999999  0.84042  1.0000
  H   H65       1.0  0.5328599999999999  0.9251199999999999  0.67505  1.0000
  H   H66       1.0  0.5388099999999999  0.15027  0.84462  1.0000
  H   H67       1.0  0.53924  0.03256  0.8590599999999998  1.0000
  H   H68       1.0  0.62834  0.0254  0.6673099999999998  1.0000
  H   H69       1.0  0.6167199999999999  0.14299  0.65937  1.0000
  H   H70       1.0  0.55088  0.9309999999999999  0.8168999999999997  1.0000
  H   H71       1.0  0.84317  0.79609  0.8925299999999998  1.0000
  H   H72       1.0  0.7574400000000001  0.8087900000000001  0.79179  1.0000
  H   H73       1.0  0.71775  0.99642  0.85861  1.0000
  H   H74       1.0  0.8005399999999998  0.9738699999999999  0.9566899999999999  1.0000
  H   H75       1.0  0.7235599999999998  0.9446099999999998  0.72522  1.0000
  H   H76       1.0  0.8379800000000001  0.8084500000000001  0.5831899999999999  1.0000
  H   H77       1.0  0.79434  0.8530199999999999  0.68477  1.0000
  H   H78       1.0  0.48691  0.8009399999999999  0.63008  1.0000
  H   H79       1.0  0.54332  0.76047  0.5305699999999999  1.0000
  H   H80       1.0  0.57968  0.81864  0.76005  1.0000
  H   H81       1.0  0.3647299999999998  0.22484  0.81953  1.0000
  H   H82       1.0  0.18693  0.17042  0.82028  1.0000
  H   H83       1.0  0.21595999999999996  0.13122  0.62429  1.0000
  H   H84       1.0  0.3928599999999999  0.18932  0.63203  1.0000
  H   H85       1.0  0.06502  0.0827  0.67643  1.0000
  H   H86       1.0  0.046980000000000015  0.87294  0.86919  1.0000
  H   H87       1.0  0.05731999999999994  0.99321  0.8726999999999999  1.0000
  H   H88       1.0  0.9811300000000001  0.98438  0.67775  1.0000
  H   H89       1.0  0.98262  0.8657899999999998  0.68088  1.0000
  H   H90       1.0  0.06478999999999997  0.09212  0.8194  1.0000
  H   H91       1.0  0.8421899999999999  0.11541  0.9741499999999997  1.0000
  H   H92       1.0  0.92956  0.06645  0.8900499999999998  1.0000
  H   H93       1.0  0.81519  0.19052  0.7603399999999998  1.0000
  H   H94       1.0  0.72687  0.2296  0.8486  1.0000
  H   H95       1.0  0.88347  0.06714  0.73454  1.0000
  H   H96       1.0  0.7382399999999999  0.17182  0.58932  1.0000
  H   H97       1.0  0.80782  0.12089999999999998  0.67901  1.0000
  H   H98       1.0  0.09235  0.24219  0.63627  1.0000
  H   H99       1.0  0.011340000000000012  0.28317  0.54418  1.0000
  H   H100      1.0  0.027710000000000005  0.19697  0.7547699999999999  1.0000
  H   H101      1.0  0.68992  0.34959  0.83397  1.0000
  H   H102      1.0  0.86459  0.4002899999999999  0.85614  1.0000
  H   H103      1.0  0.9400799999999998  0.33481  0.67528  1.0000
  H   H104      1.0  0.7609099999999998  0.28956  0.6591699999999999  1.0000
  H   H105      1.0  0.03289000000000001  0.42363  0.82546  1.0000
  H   H106      1.0  0.04081000000000001  0.64985  0.65662  1.0000
  H   H107      1.0  0.040559999999999985  0.53206  0.64185  1.0000
  H   H108      1.0  0.12752999999999998  0.52428  0.83391  1.0000
  H   H109      1.0  0.11709000000000003  0.64208  0.84203  1.0000
  H   H110      1.0  0.05089999999999998  0.43037  0.6836399999999999  1.0000
  H   H111      1.0  0.34641  0.29646  0.6082699999999999  1.0000
  H   H112      1.0  0.25931  0.30874  0.7086999999999999  1.0000
  H   H113      1.0  0.21727999999999995  0.4956  0.64159  1.0000
  H   H114      1.0  0.3010699999999999  0.47329999999999994  0.54369  1.0000
  H   H115      1.0  0.22343999999999997  0.44367  0.77529  1.0000
  H   H116      1.0  0.33882  0.31012  0.91742  1.0000
  H   H117      1.0  0.29496  0.35437  0.8158599999999999  1.0000
  H   H118      1.0  0.9871999999999999  0.29765  0.8686399999999999  1.0000
  H   H119      1.0  0.04368  0.25769  0.96829  1.0000
  H   H120      1.0  0.08008999999999998  0.31772  0.73963  1.0000
  H   H121      1.0  0.13408999999999996  0.27585  0.32039  1.0000
  H   H122      1.0  0.31182  0.33034  0.32078  1.0000
  H   H123      1.0  0.2829399999999999  0.36655  0.12424999999999999  1.0000
  H   H124      1.0  0.10597999999999998  0.3085  0.13244  1.0000
  H   H125      1.0  0.43345  0.41636999999999996  0.17628  1.0000
  H   H126      1.0  0.4509499999999999  0.62636  0.36894  1.0000
  H   H127      1.0  0.44039  0.50612  0.37238  1.0000
  H   H128      1.0  0.5174799999999998  0.5146  0.17754999999999999  1.0000
  H   H129      1.0  0.5167599999999999  0.63339  0.18083  1.0000
  H   H130      1.0  0.43410000000000004  0.40729000000000004  0.31925999999999993  1.0000
  H   H131      1.0  0.6576599999999998  0.38583  0.4739199999999999  1.0000
  H   H132      1.0  0.5711499999999998  0.43464  0.38953999999999994  1.0000
  H   H133      1.0  0.6815599999999998  0.30748  0.26084  1.0000
  H   H134      1.0  0.77026  0.26914  0.34914  1.0000
  H   H135      1.0  0.61555  0.43229999999999996  0.2345  1.0000
  H   H136      1.0  0.7619  0.32616  0.09011  1.0000
  H   H137      1.0  0.69203  0.37779  0.17942999999999998  1.0000
  H   H138      1.0  0.40644999999999987  0.259  0.13463  1.0000
  H   H139      1.0  0.4879999999999999  0.21680999999999997  0.04333  1.0000
  H   H140      1.0  0.4716299999999999  0.30232  0.25425  1.0000
  H   H141      1.0  0.80973  0.14917  0.3344599999999999  1.0000
  H   H142      1.0  0.6346399999999999  0.09944  0.35696  1.0000
  H   H143      1.0  0.5595099999999998  0.16466  0.17612999999999998  1.0000
  H   H144      1.0  0.7389699999999998  0.20889  0.15962999999999997  1.0000
  H   H145      1.0  0.46675  0.07563  0.32611  1.0000
  H   H146      1.0  0.46196  0.85007  0.15669  1.0000
  H   H147      1.0  0.46119000000000004  0.9676299999999999  0.1423  1.0000
  H   H148      1.0  0.37224  0.97469  0.33411  1.0000
  H   H149      1.0  0.3839299999999999  0.85709  0.34198  1.0000
  H   H150      1.0  0.4495299999999999  0.06894  0.18425  1.0000
  H   H151      1.0  0.15627  0.20325999999999997  0.10769  1.0000
  H   H152      1.0  0.24194999999999997  0.19082  0.20852999999999997  1.0000
  H   H153      1.0  0.2839  0.0037199999999999998  0.14159999999999998  1.0000
  H   H154      1.0  0.20129  0.02609  0.043359999999999996  1.0000
  H   H155      1.0  0.27591999999999994  0.05537999999999999  0.27517  1.0000
  H   H156      1.0  0.15877999999999995  0.18876  0.41711  1.0000
  H   H157      1.0  0.20421  0.14542  0.31541  1.0000
  H   H158      1.0  0.51099  0.20035  0.37076999999999993  1.0000
  H   H159      1.0  0.45295  0.23935  0.47038  1.0000
  H   H160      1.0  0.4194300000000001  0.1816  0.24065  1.0000
  C   C1        1.0  0.67274  0.79529  0.22335999999999998  1.0000
  C   C2        1.0  0.77203  0.8259299999999999  0.22376999999999997  1.0000
  C   C3        1.0  0.8151399999999998  0.85382  0.27887999999999996  1.0000
  C   C4        1.0  0.75502  0.84809  0.33202  1.0000
  C   C5        1.0  0.6563699999999998  0.8160199999999999  0.32822999999999997  1.0000
  C   C6        1.0  0.922  0.88688  0.28182  1.0000
  C   C7        1.0  0.96701  0.09937999999999998  0.17361999999999997  1.0000
  C   C8        1.0  0.9630399999999998  0.03248  0.17165  1.0000
  C   C9        1.0  0.9802900000000001  0.99937  0.22566  1.0000
  C   C10       1.0  0.00419  0.03656  0.27975  1.0000
  C   C11       1.0  0.0046700000000000005  0.10303  0.27865  1.0000
  C   C12       1.0  0.97172  0.92692  0.22495999999999997  1.0000
  C   C13       1.0  0.16457999999999995  0.8718399999999998  0.07504  1.0000
  C   C14       1.0  0.11546000000000001  0.89761  0.12256999999999997  1.0000
  C   C15       1.0  0.12171  0.87575  0.18352  1.0000
  C   C16       1.0  0.17958999999999997  0.82876  0.19392  1.0000
  C   C17       1.0  0.22876999999999997  0.8066499999999999  0.14474  1.0000
  C   C18       1.0  0.06617999999999997  0.89808  0.23656999999999997  1.0000
  C   C19       1.0  0.18338999999999997  0.81306  0.39914999999999995  1.0000
  C   C20       1.0  0.14393000000000003  0.8410000000000001  0.34919  1.0000
  C   C21       1.0  0.04420999999999999  0.81967  0.33348  1.0000
  C   C22       1.0  0.98615  0.77391  0.37268999999999997  1.0000
  C   C23       1.0  0.030109999999999994  0.74939  0.42316  1.0000
  C   C24       1.0  0.00216000000000005  0.8434800000000001  0.27598  1.0000
  C   C25       1.0  0.25326  0.65159  0.19964  1.0000
  C   C26       1.0  0.15481  0.62342  0.18774  1.0000
  C   C27       1.0  0.08238  0.62762  0.23224  1.0000
  C   C28       1.0  0.11370999999999998  0.65924  0.28820999999999997  1.0000
  C   C29       1.0  0.21323  0.68622  0.29697  1.0000
  C   C30       1.0  0.9758899999999998  0.59883  0.22072  1.0000
  C   C31       1.0  0.94118  0.37862  0.30648  1.0000
  C   C32       1.0  0.9400899999999999  0.4445  0.31445999999999996  1.0000
  C   C33       1.0  0.91585  0.48133  0.2647  1.0000
  C   C34       1.0  0.8926999999999998  0.44886999999999994  0.208  1.0000
  C   C35       1.0  0.8971699999999998  0.38332  0.20304999999999998  1.0000
  C   C36       1.0  0.9196799999999998  0.55285  0.27147  1.0000
  C   C37       1.0  0.6849499999999997  0.66016  0.3823299999999999  1.0000
  C   C38       1.0  0.73308  0.65235  0.32649999999999996  1.0000
  C   C39       1.0  0.77054  0.59566  0.31694  1.0000
  C   C40       1.0  0.7569699999999999  0.54923  0.3645999999999999  1.0000
  C   C41       1.0  0.7094799999999998  0.56165  0.4189599999999999  1.0000
  C   C42       1.0  0.8269099999999998  0.58393  0.25979  1.0000
  C   C43       1.0  0.7405399999999998  0.691  0.09532  1.0000
  C   C44       1.0  0.76494  0.66638  0.15239  1.0000
  C   C45       1.0  0.8644399999999998  0.66929  0.16748  1.0000
  C   C46       1.0  0.9355499999999999  0.69733  0.12366  1.0000
  C   C47       1.0  0.90471  0.72005  0.06759  1.0000
  C   C48       1.0  0.89593  0.64203  0.22692  1.0000
  C   C49       1.0  0.8297700000000001  0.70313  0.72334  1.0000
  C   C50       1.0  0.73064  0.67221  0.72374  1.0000
  C   C51       1.0  0.6872199999999998  0.64531  0.7791  1.0000
  C   C52       1.0  0.7468599999999997  0.65217  0.8324699999999999  1.0000
  C   C53       1.0  0.8454199999999995  0.68439  0.82864  1.0000
  C   C54       1.0  0.58038  0.61225  0.78197  1.0000
  C   C55       1.0  0.53585  0.40007  0.6728999999999999  1.0000
  C   C56       1.0  0.5401199999999999  0.46699999999999997  0.67119  1.0000
  C   C57       1.0  0.5224  0.49998  0.72528  1.0000
  C   C58       1.0  0.4982599999999999  0.46269000000000005  0.77921  1.0000
  C   C59       1.0  0.4972099999999999  0.39619  0.7778199999999998  1.0000
  C   C60       1.0  0.5307599999999998  0.57241  0.72493  1.0000
  C   C61       1.0  0.33656  0.62733  0.57556  1.0000
  C   C62       1.0  0.386  0.60157  0.62289  1.0000
  C   C63       1.0  0.3805399999999999  0.62368  0.6838799999999999  1.0000
  C   C64       1.0  0.3230299999999999  0.67085  0.6944999999999999  1.0000
  C   C65       1.0  0.27348  0.69292  0.64551  1.0000
  C   C66       1.0  0.4363  0.60128  0.73674  1.0000
  C   C67       1.0  0.3191499999999999  0.68732  0.89915  1.0000
  C   C68       1.0  0.3587  0.65878  0.8495199999999999  1.0000
  C   C69       1.0  0.4584399999999999  0.67996  0.83373  1.0000
  C   C70       1.0  0.51646  0.72609  0.87271  1.0000
  C   C71       1.0  0.47244999999999987  0.75119  0.92292  1.0000
  C   C72       1.0  0.5004300000000002  0.65581  0.77628  1.0000
  C   C73       1.0  0.24729000000000004  0.8486000000000001  0.70014  1.0000
  C   C74       1.0  0.34568  0.8767999999999999  0.68811  1.0000
  C   C75       1.0  0.41836  0.8722  0.73222  1.0000
  C   C76       1.0  0.3873899999999999  0.84032  0.78809  1.0000
  C   C77       1.0  0.28786999999999996  0.81351  0.7971  1.0000
  C   C78       1.0  0.52475  0.90095  0.72039  1.0000
  C   C79       1.0  0.55746  0.12089999999999998  0.8061499999999999  1.0000
  C   C80       1.0  0.5591  0.05511  0.81411  1.0000
  C   C81       1.0  0.5846399999999998  0.01845  0.7644999999999998  1.0000
  C   C82       1.0  0.6085699999999998  0.050980000000000004  0.7079799999999999  1.0000
  C   C83       1.0  0.6033999999999998  0.11639  0.70299  1.0000
  C   C84       1.0  0.5810699999999998  0.94697  0.77113  1.0000
  C   C85       1.0  0.8128399999999998  0.8392699999999998  0.883  1.0000
  C   C86       1.0  0.7656599999999998  0.847  0.82684  1.0000
  C   C87       1.0  0.72966  0.9041  0.8166299999999999  1.0000
  C   C88       1.0  0.74385  0.9510400000000001  0.86392  1.0000
  C   C89       1.0  0.79045  0.9387299999999998  0.9186  1.0000
  C   C90       1.0  0.67379  0.9158299999999999  0.7593199999999999  1.0000
  C   C91       1.0  0.76072  0.80812  0.59512  1.0000
  C   C92       1.0  0.7358999999999999  0.8325499999999999  0.6522299999999999  1.0000
  C   C93       1.0  0.63637  0.83067  0.66667  1.0000
  C   C94       1.0  0.5657  0.80369  0.62216  1.0000
  C   C95       1.0  0.5969699999999998  0.7809999999999999  0.56613  1.0000
  C   C96       1.0  0.60474  0.8577799999999999  0.72625  1.0000
  C   C97       1.0  0.32784  0.20391  0.77733  1.0000
  C   C98       1.0  0.22864  0.17305  0.7769699999999999  1.0000
  C   C99       1.0  0.18551999999999996  0.14524  0.72182  1.0000
  C   C100      1.0  0.2455199999999999  0.15127  0.66862  1.0000
  C   C101      1.0  0.34406  0.18353  0.6723899999999999  1.0000
  C   C102      1.0  0.07873999999999998  0.11194  0.71892  1.0000
  C   C103      1.0  0.03429  0.89965  0.8275199999999999  1.0000
  C   C104      1.0  0.03830999999999992  0.96656  0.82939  1.0000
  C   C105      1.0  0.020749999999999973  0.9996  0.7753899999999999  1.0000
  C   C106      1.0  0.9966799999999998  0.9622799999999999  0.72138  1.0000
  C   C107      1.0  0.9960099999999996  0.8957999999999999  0.72259  1.0000
  C   C108      1.0  0.02921  0.07208  0.7759399999999999  1.0000
  C   C109      1.0  0.83577  0.12832  0.9255699999999999  1.0000
  C   C110      1.0  0.8851  0.10216  0.87837  1.0000
  C   C111      1.0  0.8793  0.12364999999999998  0.81725  1.0000
  C   C112      1.0  0.8217399999999998  0.1707  0.80637  1.0000
  C   C113      1.0  0.7724799999999997  0.19332  0.85524  1.0000
  C   C114      1.0  0.9346699999999998  0.10088  0.76433  1.0000
  C   C115      1.0  0.8165299999999998  0.18492  0.6013  1.0000
  C   C116      1.0  0.8562999999999998  0.15724  0.65131  1.0000
  C   C117      1.0  0.9560299999999999  0.17881  0.6669399999999999  1.0000
  C   C118      1.0  0.01369  0.22466  0.62758  1.0000
  C   C119      1.0  0.9694699999999998  0.24876999999999996  0.57696  1.0000
  C   C120      1.0  0.9983999999999998  0.15527  0.7245  1.0000
  C   C121      1.0  0.7469599999999997  0.34851  0.79933  1.0000
  C   C122      1.0  0.84545  0.3761  0.8118099999999999  1.0000
  C   C123      1.0  0.91837  0.37118  0.7679  1.0000
  C   C124      1.0  0.8875299999999998  0.33939  0.71191  1.0000
  C   C125      1.0  0.78793  0.3129  0.70261  1.0000
  C   C126      1.0  0.0248  0.39978  0.77993  1.0000
  C   C127      1.0  0.05891  0.62033  0.69505  1.0000
  C   C128      1.0  0.06007  0.55449  0.68694  1.0000
  C   C129      1.0  0.08481999999999998  0.51761  0.73652  1.0000
  C   C130      1.0  0.10839  0.55001  0.79322  1.0000
  C   C131      1.0  0.10381999999999997  0.61555  0.7983299999999999  1.0000
  C   C132      1.0  0.08111999999999997  0.4461399999999999  0.72947  1.0000
  C   C133      1.0  0.31504999999999994  0.33929  0.61762  1.0000
  C   C134      1.0  0.26718  0.34682  0.67361  1.0000
  C   C135      1.0  0.23017  0.4036  0.68366  1.0000
  C   C136      1.0  0.24400999999999995  0.45042  0.63636  1.0000
  C   C137      1.0  0.29124  0.43829  0.58181  1.0000
  C   C138      1.0  0.17389999999999994  0.41504  0.7409499999999999  1.0000
  C   C139      1.0  0.2614  0.30861  0.90508  1.0000
  C   C140      1.0  0.2365  0.33289  0.8479799999999998  1.0000
  C   C141      1.0  0.13683000000000003  0.32959  0.8330499999999998  1.0000
  C   C142      1.0  0.06607  0.30138  0.877  1.0000
  C   C143      1.0  0.09741999999999998  0.27893  0.93306  1.0000
  C   C144      1.0  0.10499  0.35675  0.77364  1.0000
  C   C145      1.0  0.17103  0.29606  0.27798  1.0000
  C   C146      1.0  0.27022  0.32695  0.27739  1.0000
  C   C147      1.0  0.31336999999999987  0.35387  0.22197  1.0000
  C   C148      1.0  0.25339  0.34707  0.16874999999999998  1.0000
  C   C149      1.0  0.15484999999999993  0.31487  0.17275999999999997  1.0000
  C   C150      1.0  0.4200900000000001  0.38723  0.21879  1.0000
  C   C151      1.0  0.4639599999999999  0.59964  0.3273  1.0000
  C   C152      1.0  0.45970999999999995  0.53271  0.32912  1.0000
  C   C153      1.0  0.4777099999999999  0.49964  0.27517  1.0000
  C   C154      1.0  0.50194  0.53683  0.22118  1.0000
  C   C155      1.0  0.503  0.60335  0.22245  1.0000
  C   C156      1.0  0.46956000000000003  0.42724000000000006  0.27577  1.0000
  C   C157      1.0  0.66359  0.37216  0.42548  1.0000
  C   C158      1.0  0.61457  0.39823  0.37812999999999997  1.0000
  C   C159      1.0  0.6194099999999999  0.37584  0.31719  1.0000
  C   C160      1.0  0.67584  0.32805  0.30668  1.0000
  C   C161      1.0  0.72512  0.30572  0.35564  1.0000
  C   C162      1.0  0.5642599999999999  0.39853  0.26417  1.0000
  C   C163      1.0  0.68336  0.31371  0.10163  1.0000
  C   C164      1.0  0.64346  0.3417  0.15148  1.0000
  C   C165      1.0  0.54334  0.32081  0.16651  1.0000
  C   C166      1.0  0.48548  0.2756  0.12662  1.0000
  C   C167      1.0  0.5299  0.25102  0.07629  1.0000
  C   C168      1.0  0.50075  0.34415  0.22417  1.0000
  C   C169      1.0  0.7526699999999998  0.1504  0.2999  1.0000
  C   C170      1.0  0.6540599999999998  0.12329999999999999  0.31255  1.0000
  C   C171      1.0  0.5812099999999998  0.12825  0.26867  1.0000
  C   C172      1.0  0.6120999999999998  0.15987  0.21264  1.0000
  C   C173      1.0  0.7118199999999998  0.18582  0.20314  1.0000
  C   C174      1.0  0.47482999999999986  0.09956  0.28065  1.0000
  C   C175      1.0  0.44329999999999997  0.8793399999999999  0.19522999999999996  1.0000
  C   C176      1.0  0.44142  0.9450800000000001  0.18727  1.0000
  C   C177      1.0  0.41575999999999985  0.9816999999999999  0.23686999999999994  1.0000
  C   C178      1.0  0.39205  0.94915  0.29342  1.0000
  C   C179      1.0  0.39736  0.88374  0.2984  1.0000
  C   C180      1.0  0.4190099999999999  0.05314  0.22999  1.0000
  C   C181      1.0  0.18715999999999994  0.16029  0.11721  1.0000
  C   C182      1.0  0.23421999999999998  0.15268  0.17343999999999998  1.0000
  C   C183      1.0  0.27068  0.09575  0.18367  1.0000
  C   C184      1.0  0.25731  0.04892  0.13628  1.0000
  C   C185      1.0  0.21083  0.06113  0.08152  1.0000
  C   C186      1.0  0.32603  0.08414  0.24123  1.0000
  C   C187      1.0  0.23632  0.18994  0.40536  1.0000
  C   C188      1.0  0.26213  0.16623  0.34816  1.0000
  C   C189      1.0  0.3619699999999999  0.16919  0.3338999999999999  1.0000
  C   C190      1.0  0.4319699999999998  0.19669999999999999  0.37855999999999995  1.0000
  C   C191      1.0  0.39973  0.21859999999999996  0.43469  1.0000
  C   C192      1.0  0.3944799999999999  0.14239  0.2744  1.0000
  S   S1        1.0  0.45069  0.73358  0.08753999999999999  1.0000
  S   S2        1.0  0.39161  0.72728  0.43249  1.0000
  S   S3        1.0  0.05153999999999999  0.76733  0.58717  1.0000
  S   S4        1.0  0.10859000000000003  0.77139  0.9325599999999998  1.0000
  S   S5        1.0  0.55206  0.26853  0.91263  1.0000
  S   S6        1.0  0.6059199999999999  0.27048  0.56747  1.0000
  S   S7        1.0  0.94699  0.23214999999999997  0.41243  1.0000
  S   S8        1.0  0.89345  0.22778  0.06752999999999999  1.0000
  N   N1        1.0  0.61557  0.7900899999999998  0.27472  1.0000
  N   N2        1.0  0.9856799999999998  0.13409  0.22655999999999996  1.0000
  N   N3        1.0  0.22122999999999995  0.8276099999999998  0.08614  1.0000
  N   N4        1.0  0.12806  0.76689  0.43455  1.0000
  N   N5        1.0  0.28192  0.68358  0.2529  1.0000
  N   N6        1.0  0.92047  0.34836  0.25139999999999996  1.0000
  N   N7        1.0  0.67389  0.616  0.42825  1.0000
  N   N8        1.0  0.80876  0.7173  0.05299  1.0000
  N   N9        1.0  0.8864599999999999  0.70941  0.7749  1.0000
  N   N10       1.0  0.5162199999999999  0.36522  0.72562  1.0000
  N   N11       1.0  0.28036  0.67183  0.58683  1.0000
  N   N12       1.0  0.37445  0.73389  0.93423  1.0000
  N   N13       1.0  0.21892999999999996  0.8164  0.75329  1.0000
  N   N14       1.0  0.5787799999999999  0.15117  0.7511799999999997  1.0000
  N   N15       1.0  0.8244699999999998  0.88393  0.92857  1.0000
  N   N16       1.0  0.6929399999999997  0.7828599999999999  0.55213  1.0000
  N   N17       1.0  0.38487  0.20939  0.72592  1.0000
  N   N18       1.0  0.015169999999999998  0.86481  0.77469  1.0000
  N   N19       1.0  0.7795399999999999  0.17269  0.91401  1.0000
  N   N20       1.0  0.8715299999999998  0.23097999999999996  0.56564  1.0000
  N   N21       1.0  0.71869  0.3163  0.74613  1.0000
  N   N22       1.0  0.08000999999999994  0.65054  0.75011  1.0000
  N   N23       1.0  0.32632  0.38382  0.57202  1.0000
  N   N24       1.0  0.19352999999999995  0.28217  0.94755  1.0000
  N   N25       1.0  0.11408  0.28979  0.22653999999999996  1.0000
  N   N26       1.0  0.4838599999999998  0.63444  0.27455999999999997  1.0000
  N   N27       1.0  0.71886  0.32711  0.4142699999999999  1.0000
  N   N28       1.0  0.6281399999999998  0.26799  0.06564  1.0000
  N   N29       1.0  0.78108  0.18218  0.24655  1.0000
  N   N30       1.0  0.42202999999999985  0.8489999999999999  0.25017  1.0000
  N   N31       1.0  0.17617999999999995  0.1157  0.07159  1.0000
  N   N32       1.0  0.30344  0.2155  0.44863  1.0000
  O   O1        1.0  0.47524  0.73369  0.15637  1.0000
  O   O2        1.0  0.5193099999999998  0.70128  0.052669999999999995  1.0000
  O   O3        1.0  0.34292  0.69834  0.07839  1.0000
  O   O4        1.0  0.45447999999999994  0.8031399999999999  0.06569  1.0000
  O   O5        1.0  0.40477  0.75906  0.36861999999999995  1.0000
  O   O6        1.0  0.48092999999999997  0.70197  0.44962  1.0000
  O   O7        1.0  0.2998  0.6733  0.4319  1.0000
  O   O8        1.0  0.3714799999999999  0.7789699999999999  0.47788  1.0000
  O   O9        1.0  0.02826  0.76504  0.65621  1.0000
  O   O10       1.0  0.9820499999999998  0.7999299999999999  0.5534299999999999  1.0000
  O   O11       1.0  0.15897  0.80319  0.57839  1.0000
  O   O12       1.0  0.04780999999999998  0.69831  0.56339  1.0000
  O   O13       1.0  0.09534999999999996  0.73927  0.86875  1.0000
  O   O14       1.0  0.019339999999999993  0.79689  0.94963  1.0000
  O   O15       1.0  0.20059  0.82529  0.9316199999999999  1.0000
  O   O16       1.0  0.12881  0.72017  0.9781299999999998  1.0000
  O   O17       1.0  0.5283  0.26636  0.8436599999999999  1.0000
  O   O18       1.0  0.48654  0.30442  0.9463499999999999  1.0000
  O   O19       1.0  0.6612599999999997  0.30173  0.92056  1.0000
  O   O20       1.0  0.5439099999999999  0.19958000000000004  0.9368799999999998  1.0000
  O   O21       1.0  0.59063  0.23811999999999997  0.63108  1.0000
  O   O22       1.0  0.51895  0.29837  0.55039  1.0000
  O   O23       1.0  0.6999799999999999  0.32297  0.56863  1.0000
  O   O24       1.0  0.6239799999999998  0.21876  0.52176  1.0000
  O   O25       1.0  0.9704199999999998  0.23613  0.34347999999999995  1.0000
  O   O26       1.0  0.014990000000000009  0.19702000000000003  0.44435  1.0000
  O   O27       1.0  0.83896  0.19707999999999998  0.42121  1.0000
  O   O28       1.0  0.95265  0.30079  0.4375399999999999  1.0000
  O   O29       1.0  0.90894  0.26026  0.13115999999999997  1.0000
  O   O30       1.0  0.98073  0.20016  0.05031999999999999  1.0000
  O   O31       1.0  0.7996299999999998  0.17526  0.06863  1.0000
  O   O32       1.0  0.87536  0.27954  0.021849999999999998  1.0000
