data_image0
_chemical_formula_structural       Cu24H104C208O104
_chemical_formula_sum              "Cu24 H104 C208 O104"
_cell_length_a       18.97979
_cell_length_b       23.45766
_cell_length_c       29.989640000000005
_cell_angle_alpha    105.73667000000002
_cell_angle_beta     90.0
_cell_angle_gamma    90.0

_symmetry_space_group_name_H-M    'P 1'
_symmetry_Int_Tables_number       1

loop_
  _symmetry_equiv_pos_as_xyz
  'x,y,z'

loop_
  _atom_site_type_symbol
  _atom_site_label
  _atom_site_symmetry_multiplicity
  _atom_site_fract_x
  _atom_site_fract_y
  _atom_site_fract_z
  _atom_site_occupancy
  Cu  Cu1       1.0  0.7986199999999999  0.22611999999999996  0.52833  1.0000
  Cu  Cu2       1.0  0.7377699999999999  0.3129  0.516  1.0000
  Cu  Cu3       1.0  0.3047  0.29569  0.50207  1.0000
  Cu  Cu4       1.0  0.24413  0.20888  0.51371  1.0000
  Cu  Cu5       1.0  0.50239  0.4900799999999999  0.19873  1.0000
  Cu  Cu6       1.0  0.50094  0.4669199999999999  0.27324  1.0000
  Cu  Cu7       1.0  0.29862  0.27388  0.97167  1.0000
  Cu  Cu8       1.0  0.23776999999999995  0.1871  0.984  1.0000
  Cu  Cu9       1.0  0.8046999999999997  0.20430999999999996  0.99793  1.0000
  Cu  Cu10      1.0  0.74413  0.29112  0.98629  1.0000
  Cu  Cu11      1.0  0.00239  0.009919999999999988  0.30127  1.0000
  Cu  Cu12      1.0  0.0009399999999999999  0.03307999999999999  0.22676  1.0000
  Cu  Cu13      1.0  0.20138  0.7738699999999998  0.47167  1.0000
  Cu  Cu14      1.0  0.26223  0.6871000000000002  0.48399999999999993  1.0000
  Cu  Cu15      1.0  0.6953  0.70431  0.49793  1.0000
  Cu  Cu16      1.0  0.75586  0.79112  0.48629  1.0000
  Cu  Cu17      1.0  0.49760999999999994  0.50992  0.80127  1.0000
  Cu  Cu18      1.0  0.49905  0.53308  0.72676  1.0000
  Cu  Cu19      1.0  0.70138  0.72612  0.028330000000000004  1.0000
  Cu  Cu20      1.0  0.76223  0.8129  0.016  1.0000
  Cu  Cu21      1.0  0.1953  0.79569  0.00207  1.0000
  Cu  Cu22      1.0  0.25587  0.70888  0.01371  1.0000
  Cu  Cu23      1.0  0.99761  0.9900800000000001  0.69873  1.0000
  Cu  Cu24      1.0  0.99905  0.96692  0.77324  1.0000
  H   H1        1.0  0.12768  0.89263  0.1419  1.0000
  H   H2        1.0  0.13913  0.8587599999999999  0.2762  1.0000
  H   H3        1.0  0.23548  0.7379799999999999  0.15647  1.0000
  H   H4        1.0  0.29748  0.7212299999999999  0.21151  1.0000
  H   H5        1.0  0.21868  0.67852  0.20316  1.0000
  H   H6        1.0  0.22004999999999997  0.73415  0.32401  1.0000
  H   H7        1.0  0.34566  0.59408  0.35129  1.0000
  H   H8        1.0  0.34101  0.61835  0.21436999999999998  1.0000
  H   H9        1.0  0.65623  0.36783  0.12181  1.0000
  H   H10       1.0  0.80102  0.23799999999999996  0.14697  1.0000
  H   H11       1.0  0.6742699999999999  0.3451  0.25861  1.0000
  H   H12       1.0  0.69632  0.26729  0.28377  1.0000
  H   H13       1.0  0.7657399999999999  0.32011999999999996  0.29738999999999993  1.0000
  H   H14       1.0  0.84864  0.17697  0.25224  1.0000
  H   H15       1.0  0.8727499999999999  0.14404  0.38613  1.0000
  H   H16       1.0  0.7413  0.28703  0.37168  1.0000
  H   H17       1.0  0.0201  0.26635000000000003  0.52953  1.0000
  H   H18       1.0  0.14107  0.41103  0.50727  1.0000
  H   H19       1.0  0.9147199999999999  0.42263  0.51588  1.0000
  H   H20       1.0  0.06494  0.51492  0.53159  1.0000
  H   H21       1.0  0.06775  0.4812199999999999  0.47184  1.0000
  H   H22       1.0  0.64136  0.09563999999999998  0.51036  1.0000
  H   H23       1.0  0.5202899999999999  0.24943  0.50767  1.0000
  H   H24       1.0  0.41492  0.08493999999999997  0.49901999999999996  1.0000
  H   H25       1.0  0.56954  0.9949499999999999  0.47299  1.0000
  H   H26       1.0  0.56292  0.013100000000000002  0.53348  1.0000
  H   H27       1.0  0.62768  0.6073700000000001  0.3581  1.0000
  H   H28       1.0  0.63913  0.64124  0.2238  1.0000
  H   H29       1.0  0.73548  0.76202  0.34353  1.0000
  H   H30       1.0  0.79748  0.77877  0.28849  1.0000
  H   H31       1.0  0.71867  0.8214799999999998  0.29683999999999994  1.0000
  H   H32       1.0  0.7200499999999999  0.7658499999999999  0.17599  1.0000
  H   H33       1.0  0.84565  0.90592  0.14871  1.0000
  H   H34       1.0  0.84101  0.88165  0.28563  1.0000
  H   H35       1.0  0.15623  0.13217000000000004  0.3781900000000001  1.0000
  H   H36       1.0  0.30103  0.262  0.35303  1.0000
  H   H37       1.0  0.17428  0.1549  0.24139  1.0000
  H   H38       1.0  0.19632  0.23271  0.21623  1.0000
  H   H39       1.0  0.26574  0.17987999999999998  0.20261  1.0000
  H   H40       1.0  0.34864  0.32302999999999993  0.24777  1.0000
  H   H41       1.0  0.37274999999999997  0.35596  0.11387  1.0000
  H   H42       1.0  0.24129999999999996  0.21296999999999996  0.12832  1.0000
  H   H43       1.0  0.5200999999999999  0.23365000000000005  0.9704800000000001  1.0000
  H   H44       1.0  0.64107  0.08897000000000008  0.99273  1.0000
  H   H45       1.0  0.4147199999999999  0.07737  0.98412  1.0000
  H   H46       1.0  0.56494  0.9850799999999998  0.96841  1.0000
  H   H47       1.0  0.5677499999999999  0.01878  0.02816  1.0000
  H   H48       1.0  0.14135999999999999  0.40436  0.98964  1.0000
  H   H49       1.0  0.02029  0.25057  0.99233  1.0000
  H   H50       1.0  0.91492  0.41505  0.00098  1.0000
  H   H51       1.0  0.06954  0.50505  0.02701  1.0000
  H   H52       1.0  0.06292  0.4869  0.96652  1.0000
  H   H53       1.0  0.8723099999999999  0.10737000000000006  0.8581000000000001  1.0000
  H   H54       1.0  0.8608699999999999  0.14124000000000006  0.7238  1.0000
  H   H55       1.0  0.76451  0.26201999999999986  0.84353  1.0000
  H   H56       1.0  0.70251  0.27877  0.78849  1.0000
  H   H57       1.0  0.78132  0.3214800000000001  0.79684  1.0000
  H   H58       1.0  0.77995  0.2658499999999999  0.6759899999999999  1.0000
  H   H59       1.0  0.65434  0.40592  0.64871  1.0000
  H   H60       1.0  0.6589799999999999  0.38164999999999993  0.78563  1.0000
  H   H61       1.0  0.34377  0.63217  0.87819  1.0000
  H   H62       1.0  0.19897  0.762  0.85303  1.0000
  H   H63       1.0  0.32571999999999995  0.6548999999999999  0.74139  1.0000
  H   H64       1.0  0.30368  0.73271  0.71623  1.0000
  H   H65       1.0  0.23426  0.67988  0.70261  1.0000
  H   H66       1.0  0.15136  0.82303  0.74777  1.0000
  H   H67       1.0  0.12723999999999996  0.8559499999999999  0.61387  1.0000
  H   H68       1.0  0.2587  0.71297  0.62832  1.0000
  H   H69       1.0  0.9799  0.7336499999999999  0.47047  1.0000
  H   H70       1.0  0.8589199999999999  0.58896  0.49272999999999995  1.0000
  H   H71       1.0  0.08527999999999998  0.5773699999999998  0.48412  1.0000
  H   H72       1.0  0.9350599999999999  0.48507999999999996  0.46841  1.0000
  H   H73       1.0  0.9322499999999999  0.51878  0.52816  1.0000
  H   H74       1.0  0.35864  0.90436  0.4896400000000001  1.0000
  H   H75       1.0  0.47970999999999997  0.7505699999999998  0.49233  1.0000
  H   H76       1.0  0.58508  0.91505  0.50098  1.0000
  H   H77       1.0  0.43046  0.005049999999999998  0.52701  1.0000
  H   H78       1.0  0.43706999999999996  0.9869  0.46652  1.0000
  H   H79       1.0  0.37232  0.39263000000000003  0.6419  1.0000
  H   H80       1.0  0.36087  0.35875999999999997  0.7762  1.0000
  H   H81       1.0  0.26451  0.23798  0.65648  1.0000
  H   H82       1.0  0.20252  0.22122999999999998  0.71152  1.0000
  H   H83       1.0  0.28132  0.17851999999999998  0.70316  1.0000
  H   H84       1.0  0.27995  0.23415  0.82401  1.0000
  H   H85       1.0  0.15434  0.09408000000000001  0.85129  1.0000
  H   H86       1.0  0.15898999999999996  0.11835  0.71437  1.0000
  H   H87       1.0  0.84377  0.86783  0.62181  1.0000
  H   H88       1.0  0.69897  0.73799  0.64697  1.0000
  H   H89       1.0  0.82572  0.8451  0.7586100000000001  1.0000
  H   H90       1.0  0.80368  0.76729  0.78377  1.0000
  H   H91       1.0  0.73426  0.8201199999999998  0.79739  1.0000
  H   H92       1.0  0.65136  0.67697  0.75224  1.0000
  H   H93       1.0  0.6272399999999999  0.64404  0.88613  1.0000
  H   H94       1.0  0.75869  0.78703  0.87168  1.0000
  H   H95       1.0  0.4799  0.76635  0.02953  1.0000
  H   H96       1.0  0.35892  0.9110299999999999  0.00727  1.0000
  H   H97       1.0  0.5852799999999999  0.92263  0.01588  1.0000
  H   H98       1.0  0.43505999999999995  0.014919999999999998  0.03159  1.0000
  H   H99       1.0  0.4322500000000001  0.98122  0.97184  1.0000
  H   H100      1.0  0.8586399999999998  0.59564  0.01036  1.0000
  H   H101      1.0  0.9797099999999999  0.74943  0.00767  1.0000
  H   H102      1.0  0.08508  0.58494  0.99902  1.0000
  H   H103      1.0  0.9304599999999998  0.49495000000000006  0.9729900000000001  1.0000
  H   H104      1.0  0.9370699999999998  0.5131  0.03348  1.0000
  C   C1        1.0  0.20069999999999996  0.79362  0.09446  1.0000
  C   C2        1.0  0.18413  0.81362  0.14499  1.0000
  C   C3        1.0  0.14567  0.86534  0.16369  1.0000
  C   C4        1.0  0.12943  0.88117  0.21114000000000002  1.0000
  C   C5        1.0  0.08545  0.93491  0.23131  1.0000
  C   C6        1.0  0.152  0.84609  0.2395  1.0000
  C   C7        1.0  0.19088  0.7943399999999999  0.22036  1.0000
  C   C8        1.0  0.20662  0.778  0.17306  1.0000
  C   C9        1.0  0.25123  0.70946  0.22939000000000004  1.0000
  C   C10       1.0  0.27591  0.67931  0.26506  1.0000
  C   C11       1.0  0.25511  0.69658  0.31139  1.0000
  C   C12       1.0  0.28022  0.66563  0.34229  1.0000
  C   C13       1.0  0.26007  0.6859499999999998  0.39221000000000006  1.0000
  C   C14       1.0  0.32604  0.61745  0.3271  1.0000
  C   C15       1.0  0.34785  0.60075  0.28076000000000007  1.0000
  C   C16       1.0  0.32265  0.63171  0.25008  1.0000
  C   C17       1.0  0.40086  0.55244  0.26396  1.0000
  C   C18       1.0  0.60409  0.40582999999999997  0.20899  1.0000
  C   C19       1.0  0.6607199999999998  0.36073  0.192  1.0000
  C   C20       1.0  0.68066  0.34590999999999994  0.14544  1.0000
  C   C21       1.0  0.73128  0.30145  0.12939  1.0000
  C   C22       1.0  0.75035  0.28323  0.07908  1.0000
  C   C23       1.0  0.76206  0.27258  0.15971000000000002  1.0000
  C   C24       1.0  0.74225  0.28805  0.20654  1.0000
  C   C25       1.0  0.69146  0.33214  0.22278  1.0000
  C   C26       1.0  0.75379  0.27297999999999994  0.28147999999999995  1.0000
  C   C27       1.0  0.79038  0.23564  0.30831  1.0000
  C   C28       1.0  0.83583  0.18858  0.28893  1.0000
  C   C29       1.0  0.86556  0.15568  0.31714  1.0000
  C   C30       1.0  0.9148899999999999  0.10566  0.29688  1.0000
  C   C31       1.0  0.84982  0.1696  0.36449  1.0000
  C   C32       1.0  0.80496  0.21721  0.38396  1.0000
  C   C33       1.0  0.7757899999999998  0.24996  0.35583  1.0000
  C   C34       1.0  0.78874  0.23443999999999998  0.43462  1.0000
  C   C35       1.0  0.89016  0.31638  0.52716  1.0000
  C   C36       1.0  0.9607099999999998  0.34289  0.52386  1.0000
  C   C37       1.0  0.02249  0.31069  0.52495  1.0000
  C   C38       1.0  0.0874  0.33596  0.51885  1.0000
  C   C39       1.0  0.15491  0.30293  0.51678  1.0000
  C   C40       1.0  0.08999  0.3928  0.51234  1.0000
  C   C41       1.0  0.02861  0.42533  0.51136  1.0000
  C   C42       1.0  0.96409  0.39974999999999994  0.51712  1.0000
  C   C43       1.0  0.03502  0.48562999999999995  0.50291  1.0000
  C   C44       1.0  0.6540699999999999  0.21061  0.51449  1.0000
  C   C45       1.0  0.5902199999999999  0.11559  0.50806  1.0000
  C   C46       1.0  0.58753  0.17572999999999997  0.50947  1.0000
  C   C47       1.0  0.52271  0.20281999999999994  0.50658  1.0000
  C   C48       1.0  0.46102  0.16942  0.50302  1.0000
  C   C49       1.0  0.39159  0.19859000000000002  0.50206  1.0000
  C   C50       1.0  0.46415999999999996  0.10918999999999995  0.50168  1.0000
  C   C51       1.0  0.52875  0.08146999999999996  0.50385  1.0000
  C   C52       1.0  0.53494  0.01661000000000001  0.50216  1.0000
  C   C53       1.0  0.7007  0.70638  0.40554  1.0000
  C   C54       1.0  0.6841299999999999  0.6863699999999999  0.35501  1.0000
  C   C55       1.0  0.64567  0.63465  0.33631  1.0000
  C   C56       1.0  0.62943  0.61883  0.28886  1.0000
  C   C57       1.0  0.58545  0.56508  0.26869  1.0000
  C   C58       1.0  0.6519999999999999  0.65391  0.2605  1.0000
  C   C59       1.0  0.69087  0.70565  0.27965  1.0000
  C   C60       1.0  0.7066199999999998  0.7219999999999999  0.32694  1.0000
  C   C61       1.0  0.7512299999999998  0.79054  0.27061  1.0000
  C   C62       1.0  0.77591  0.82069  0.23494000000000004  1.0000
  C   C63       1.0  0.75511  0.80342  0.18861  1.0000
  C   C64       1.0  0.78022  0.83437  0.15771  1.0000
  C   C65       1.0  0.7600699999999999  0.81405  0.10779  1.0000
  C   C66       1.0  0.8260399999999999  0.88254  0.1729  1.0000
  C   C67       1.0  0.84785  0.8992499999999999  0.21924  1.0000
  C   C68       1.0  0.8226499999999998  0.86829  0.24992  1.0000
  C   C69       1.0  0.90085  0.9475599999999998  0.23604  1.0000
  C   C70       1.0  0.10409  0.09417  0.29101  1.0000
  C   C71       1.0  0.16072  0.13926999999999995  0.308  1.0000
  C   C72       1.0  0.18066  0.15409  0.35456  1.0000
  C   C73       1.0  0.23127999999999999  0.19853999999999997  0.37061  1.0000
  C   C74       1.0  0.25035  0.21677  0.42092  1.0000
  C   C75       1.0  0.26206  0.22742  0.34029  1.0000
  C   C76       1.0  0.24224999999999997  0.21195  0.29346  1.0000
  C   C77       1.0  0.19146  0.16786  0.2772200000000001  1.0000
  C   C78       1.0  0.25379  0.22702  0.21852  1.0000
  C   C79       1.0  0.29037999999999997  0.26436  0.19169  1.0000
  C   C80       1.0  0.3358299999999999  0.31142  0.21107  1.0000
  C   C81       1.0  0.36556  0.34432  0.18286  1.0000
  C   C82       1.0  0.41489  0.39434  0.20312  1.0000
  C   C83       1.0  0.34982  0.33039  0.13551  1.0000
  C   C84       1.0  0.30496  0.28279  0.11604  1.0000
  C   C85       1.0  0.27579  0.25003  0.14417  1.0000
  C   C86       1.0  0.28875  0.26556  0.06538  1.0000
  C   C87       1.0  0.3901599999999999  0.18362  0.97284  1.0000
  C   C88       1.0  0.46071  0.1571  0.97614  1.0000
  C   C89       1.0  0.52249  0.18931000000000006  0.9750500000000001  1.0000
  C   C90       1.0  0.5874  0.16403  0.98115  1.0000
  C   C91       1.0  0.65491  0.19707  0.98322  1.0000
  C   C92       1.0  0.58999  0.10719999999999993  0.9876599999999999  1.0000
  C   C93       1.0  0.5286099999999999  0.07467  0.98865  1.0000
  C   C94       1.0  0.46409  0.10025000000000002  0.98288  1.0000
  C   C95       1.0  0.5350199999999999  0.014369999999999952  0.99709  1.0000
  C   C96       1.0  0.15406999999999998  0.28939  0.98551  1.0000
  C   C97       1.0  0.09021999999999997  0.38441  0.99194  1.0000
  C   C98       1.0  0.08753  0.32427000000000006  0.99053  1.0000
  C   C99       1.0  0.02271  0.29718000000000006  0.99342  1.0000
  C   C100      1.0  0.96102  0.33058  0.99698  1.0000
  C   C101      1.0  0.8915899999999999  0.3014099999999999  0.99794  1.0000
  C   C102      1.0  0.96416  0.39081  0.99832  1.0000
  C   C103      1.0  0.02875  0.41853000000000007  0.9961500000000001  1.0000
  C   C104      1.0  0.03493999999999999  0.48339  0.99785  1.0000
  C   C105      1.0  0.7993  0.20638  0.90554  1.0000
  C   C106      1.0  0.81587  0.18638000000000002  0.85501  1.0000
  C   C107      1.0  0.85433  0.13465999999999995  0.83631  1.0000
  C   C108      1.0  0.8705699999999998  0.11883000000000003  0.78886  1.0000
  C   C109      1.0  0.9145499999999999  0.06509000000000001  0.76869  1.0000
  C   C110      1.0  0.8479999999999999  0.15391  0.7605  1.0000
  C   C111      1.0  0.80912  0.20566  0.77965  1.0000
  C   C112      1.0  0.79338  0.222  0.82694  1.0000
  C   C113      1.0  0.74877  0.29054  0.77061  1.0000
  C   C114      1.0  0.72409  0.32069  0.73494  1.0000
  C   C115      1.0  0.74489  0.30342  0.68861  1.0000
  C   C116      1.0  0.71978  0.33437000000000006  0.6577100000000001  1.0000
  C   C117      1.0  0.73993  0.31405  0.60779  1.0000
  C   C118      1.0  0.67396  0.38255  0.6729  1.0000
  C   C119      1.0  0.65215  0.39925  0.71924  1.0000
  C   C120      1.0  0.67735  0.36829  0.74992  1.0000
  C   C121      1.0  0.59914  0.44755999999999996  0.73604  1.0000
  C   C122      1.0  0.3959  0.59417  0.79101  1.0000
  C   C123      1.0  0.33928  0.63927  0.8080000000000002  1.0000
  C   C124      1.0  0.31934  0.65409  0.85456  1.0000
  C   C125      1.0  0.26872  0.69854  0.87061  1.0000
  C   C126      1.0  0.24965  0.7167699999999999  0.9209199999999998  1.0000
  C   C127      1.0  0.23794  0.72742  0.84029  1.0000
  C   C128      1.0  0.25775  0.71195  0.79346  1.0000
  C   C129      1.0  0.30854  0.66786  0.77722  1.0000
  C   C130      1.0  0.24619999999999997  0.72702  0.71852  1.0000
  C   C131      1.0  0.20961999999999997  0.7643599999999999  0.69169  1.0000
  C   C132      1.0  0.16417  0.8114199999999999  0.71107  1.0000
  C   C133      1.0  0.13444  0.8443199999999998  0.68286  1.0000
  C   C134      1.0  0.08510999999999999  0.89434  0.70312  1.0000
  C   C135      1.0  0.15018  0.83039  0.6355100000000001  1.0000
  C   C136      1.0  0.19504  0.78279  0.61604  1.0000
  C   C137      1.0  0.22421  0.75003  0.6441700000000001  1.0000
  C   C138      1.0  0.21125  0.76556  0.56539  1.0000
  C   C139      1.0  0.10984  0.6836199999999999  0.47284  1.0000
  C   C140      1.0  0.03929  0.6570999999999999  0.47614  1.0000
  C   C141      1.0  0.9775099999999999  0.68931  0.47505  1.0000
  C   C142      1.0  0.9125999999999999  0.66403  0.48114999999999997  1.0000
  C   C143      1.0  0.8450899999999999  0.6970699999999999  0.48322  1.0000
  C   C144      1.0  0.9100099999999999  0.6072  0.48766  1.0000
  C   C145      1.0  0.97139  0.57467  0.48864  1.0000
  C   C146      1.0  0.03591  0.6002500000000001  0.48288  1.0000
  C   C147      1.0  0.9649699999999999  0.5143599999999999  0.49709  1.0000
  C   C148      1.0  0.34592999999999996  0.78939  0.48551  1.0000
  C   C149      1.0  0.40978  0.88441  0.49193999999999993  1.0000
  C   C150      1.0  0.41247  0.8242699999999998  0.49053  1.0000
  C   C151      1.0  0.47729  0.79717  0.49341999999999997  1.0000
  C   C152      1.0  0.53897  0.8305799999999999  0.49698  1.0000
  C   C153      1.0  0.60841  0.80141  0.49794  1.0000
  C   C154      1.0  0.53584  0.8908099999999999  0.49832  1.0000
  C   C155      1.0  0.47124  0.91853  0.49615  1.0000
  C   C156      1.0  0.46506  0.9833899999999999  0.49784  1.0000
  C   C157      1.0  0.2993  0.29362  0.59446  1.0000
  C   C158      1.0  0.31587  0.31362  0.6449900000000001  1.0000
  C   C159      1.0  0.35433  0.36534000000000005  0.6636900000000001  1.0000
  C   C160      1.0  0.37057  0.38117  0.71114  1.0000
  C   C161      1.0  0.41455  0.43490999999999996  0.73131  1.0000
  C   C162      1.0  0.348  0.34609  0.73951  1.0000
  C   C163      1.0  0.30912  0.29434000000000005  0.7203600000000001  1.0000
  C   C164      1.0  0.29338  0.278  0.67306  1.0000
  C   C165      1.0  0.24877  0.20945999999999998  0.72939  1.0000
  C   C166      1.0  0.22409  0.17931  0.76506  1.0000
  C   C167      1.0  0.24489  0.19657999999999998  0.8113899999999998  1.0000
  C   C168      1.0  0.21978  0.16562999999999994  0.84229  1.0000
  C   C169      1.0  0.23993  0.18595  0.89221  1.0000
  C   C170      1.0  0.17395999999999998  0.11745  0.8271000000000001  1.0000
  C   C171      1.0  0.15215  0.10075  0.78076  1.0000
  C   C172      1.0  0.17735  0.13171  0.75008  1.0000
  C   C173      1.0  0.09913999999999999  0.05243999999999998  0.76396  1.0000
  C   C174      1.0  0.8959  0.90583  0.70899  1.0000
  C   C175      1.0  0.83928  0.86073  0.692  1.0000
  C   C176      1.0  0.81934  0.84591  0.6454399999999999  1.0000
  C   C177      1.0  0.76872  0.80145  0.6293899999999999  1.0000
  C   C178      1.0  0.74965  0.78323  0.57908  1.0000
  C   C179      1.0  0.73794  0.7725799999999999  0.65971  1.0000
  C   C180      1.0  0.75775  0.7880499999999999  0.7065399999999998  1.0000
  C   C181      1.0  0.80854  0.83214  0.72278  1.0000
  C   C182      1.0  0.7462  0.77298  0.78148  1.0000
  C   C183      1.0  0.7096199999999999  0.73564  0.80831  1.0000
  C   C184      1.0  0.66416  0.68858  0.78893  1.0000
  C   C185      1.0  0.6344399999999999  0.65568  0.81714  1.0000
  C   C186      1.0  0.5851099999999999  0.60566  0.79688  1.0000
  C   C187      1.0  0.65018  0.66961  0.8645  1.0000
  C   C188      1.0  0.69504  0.7172099999999999  0.88396  1.0000
  C   C189      1.0  0.72421  0.74997  0.85583  1.0000
  C   C190      1.0  0.71125  0.7344399999999999  0.93462  1.0000
  C   C191      1.0  0.60983  0.81638  0.02716  1.0000
  C   C192      1.0  0.53929  0.84289  0.023859999999999996  1.0000
  C   C193      1.0  0.47751  0.8106899999999999  0.02495  1.0000
  C   C194      1.0  0.4126  0.83596  0.01885  1.0000
  C   C195      1.0  0.34508999999999995  0.80293  0.01678  1.0000
  C   C196      1.0  0.4100099999999999  0.89279  0.01234  1.0000
  C   C197      1.0  0.47139  0.92533  0.01136  1.0000
  C   C198      1.0  0.53591  0.89975  0.01712  1.0000
  C   C199      1.0  0.46497  0.98563  0.0029099999999999994  1.0000
  C   C200      1.0  0.8459299999999998  0.7106099999999999  0.01449  1.0000
  C   C201      1.0  0.90977  0.61559  0.00806  1.0000
  C   C202      1.0  0.9124699999999999  0.67573  0.00947  1.0000
  C   C203      1.0  0.9772799999999999  0.70282  0.00658  1.0000
  C   C204      1.0  0.03897  0.66942  0.00302  1.0000
  C   C205      1.0  0.10841  0.69859  0.00206  1.0000
  C   C206      1.0  0.03584  0.60918  0.00168  1.0000
  C   C207      1.0  0.9712399999999999  0.58147  0.0038499999999999997  1.0000
  C   C208      1.0  0.96506  0.51661  0.00216  1.0000
  O   O1        1.0  0.23182999999999998  0.74339  0.08005  1.0000
  O   O2        1.0  0.18215  0.82751  0.06949  1.0000
  O   O3        1.0  0.06743  0.96611  0.2041  1.0000
  O   O4        1.0  0.06816  0.9451499999999999  0.27408  1.0000
  O   O5        1.0  0.21114  0.7619199999999999  0.25018  1.0000
  O   O6        1.0  0.27792  0.6525899999999999  0.41789  1.0000
  O   O7        1.0  0.22772  0.7354999999999999  0.4057  1.0000
  O   O8        1.0  0.4215  0.52364  0.29227000000000003  1.0000
  O   O9        1.0  0.42256999999999995  0.54455  0.22226  1.0000
  O   O10       1.0  0.58111  0.41206999999999994  0.25026  1.0000
  O   O11       1.0  0.5820999999999998  0.43417  0.18073  1.0000
  O   O12       1.0  0.72508  0.31434  0.05372999999999999  1.0000
  O   O13       1.0  0.7895799999999998  0.23737999999999998  0.06504  1.0000
  O   O14       1.0  0.77496  0.25718  0.23384  1.0000
  O   O15       1.0  0.9328  0.09717  0.25439  1.0000
  O   O16       1.0  0.9357099999999999  0.07513  0.32393  1.0000
  O   O17       1.0  0.7500799999999999  0.28065  0.44932  1.0000
  O   O18       1.0  0.81442  0.20288  0.45934  1.0000
  O   O19       1.0  0.836  0.3455  0.52019  1.0000
  O   O20       1.0  0.8892199999999999  0.26572999999999997  0.53576  1.0000
  O   O21       1.0  0.15356  0.25167  0.52415  1.0000
  O   O22       1.0  0.20975999999999997  0.32905  0.50689  1.0000
  O   O23       1.0  0.71053  0.18304  0.51984  1.0000
  O   O24       1.0  0.65009  0.26461  0.51327  1.0000
  O   O25       1.0  0.39312  0.25222  0.49967  1.0000
  O   O26       1.0  0.33596  0.16844999999999993  0.50439  1.0000
  O   O27       1.0  0.73183  0.75661  0.41995  1.0000
  O   O28       1.0  0.68214  0.67249  0.43051  1.0000
  O   O29       1.0  0.56743  0.53389  0.29591  1.0000
  O   O30       1.0  0.56816  0.55485  0.22592  1.0000
  O   O31       1.0  0.7111299999999999  0.7380699999999999  0.24982  1.0000
  O   O32       1.0  0.77792  0.84741  0.08211  1.0000
  O   O33       1.0  0.72772  0.7645  0.0943  1.0000
  O   O34       1.0  0.9214999999999999  0.97635  0.20773  1.0000
  O   O35       1.0  0.9225699999999999  0.95545  0.27774  1.0000
  O   O36       1.0  0.08111  0.08793  0.24974  1.0000
  O   O37       1.0  0.0821  0.06582999999999999  0.31927  1.0000
  O   O38       1.0  0.22507999999999997  0.18565999999999996  0.44627  1.0000
  O   O39       1.0  0.28958  0.26262  0.43496  1.0000
  O   O40       1.0  0.27496  0.24281999999999998  0.26616  1.0000
  O   O41       1.0  0.4328  0.40282999999999997  0.24561000000000002  1.0000
  O   O42       1.0  0.43572  0.42487  0.17607  1.0000
  O   O43       1.0  0.25008  0.21934999999999996  0.05069  1.0000
  O   O44       1.0  0.31442  0.29712  0.04066  1.0000
  O   O45       1.0  0.33599999999999997  0.1545  0.97981  1.0000
  O   O46       1.0  0.38923  0.23427000000000003  0.96424  1.0000
  O   O47       1.0  0.65356  0.24833  0.97585  1.0000
  O   O48       1.0  0.70976  0.17095  0.99311  1.0000
  O   O49       1.0  0.21052999999999994  0.31696  0.98016  1.0000
  O   O50       1.0  0.15009  0.23538999999999996  0.98673  1.0000
  O   O51       1.0  0.89312  0.24776999999999996  0.00033  1.0000
  O   O52       1.0  0.83596  0.3315499999999999  0.99561  1.0000
  O   O53       1.0  0.76816  0.25661  0.91995  1.0000
  O   O54       1.0  0.81785  0.17249000000000006  0.9305100000000001  1.0000
  O   O55       1.0  0.93257  0.03389000000000003  0.79591  1.0000
  O   O56       1.0  0.93184  0.05484999999999999  0.72592  1.0000
  O   O57       1.0  0.78886  0.23807  0.74982  1.0000
  O   O58       1.0  0.7220799999999999  0.34741  0.58211  1.0000
  O   O59       1.0  0.77227  0.2645  0.5943  1.0000
  O   O60       1.0  0.5784999999999999  0.47635  0.70773  1.0000
  O   O61       1.0  0.57742  0.45544999999999997  0.77774  1.0000
  O   O62       1.0  0.4188799999999999  0.58793  0.74974  1.0000
  O   O63       1.0  0.41789  0.56583  0.81927  1.0000
  O   O64       1.0  0.27492  0.68566  0.94627  1.0000
  O   O65       1.0  0.21042  0.7626199999999999  0.93496  1.0000
  O   O66       1.0  0.22503999999999996  0.7428200000000001  0.76616  1.0000
  O   O67       1.0  0.0672  0.90282  0.74561  1.0000
  O   O68       1.0  0.06427999999999999  0.92487  0.67607  1.0000
  O   O69       1.0  0.24992  0.71935  0.55069  1.0000
  O   O70       1.0  0.18557999999999997  0.79712  0.54066  1.0000
  O   O71       1.0  0.164  0.6545  0.47980999999999996  1.0000
  O   O72       1.0  0.11076999999999998  0.73427  0.46423999999999993  1.0000
  O   O73       1.0  0.8464399999999999  0.74833  0.47585  1.0000
  O   O74       1.0  0.79024  0.67095  0.49311000000000005  1.0000
  O   O75       1.0  0.28946  0.81696  0.48016  1.0000
  O   O76       1.0  0.34989999999999993  0.73539  0.48673  1.0000
  O   O77       1.0  0.60688  0.74777  0.50033  1.0000
  O   O78       1.0  0.66404  0.8315499999999999  0.49561  1.0000
  O   O79       1.0  0.26816999999999996  0.24339  0.58005  1.0000
  O   O80       1.0  0.31785  0.32751  0.56949  1.0000
  O   O81       1.0  0.43256999999999995  0.46611  0.7041  1.0000
  O   O82       1.0  0.43183999999999995  0.44514999999999993  0.77408  1.0000
  O   O83       1.0  0.28886  0.26193  0.75018  1.0000
  O   O84       1.0  0.22207999999999997  0.15259  0.91789  1.0000
  O   O85       1.0  0.27227  0.23549999999999996  0.9057  1.0000
  O   O86       1.0  0.07849999999999999  0.02365000000000001  0.79227  1.0000
  O   O87       1.0  0.07743  0.04455  0.72226  1.0000
  O   O88       1.0  0.91888  0.91207  0.7502599999999999  1.0000
  O   O89       1.0  0.91789  0.93417  0.6807299999999998  1.0000
  O   O90       1.0  0.77492  0.8143400000000001  0.55373  1.0000
  O   O91       1.0  0.71042  0.73738  0.56504  1.0000
  O   O92       1.0  0.72503  0.75718  0.73384  1.0000
  O   O93       1.0  0.5672  0.59717  0.75439  1.0000
  O   O94       1.0  0.56428  0.57513  0.82393  1.0000
  O   O95       1.0  0.74992  0.78065  0.94932  1.0000
  O   O96       1.0  0.68558  0.70288  0.9593399999999999  1.0000
  O   O97       1.0  0.664  0.8455  0.02019  1.0000
  O   O98       1.0  0.61077  0.76573  0.03576  1.0000
  O   O99       1.0  0.34644  0.7516699999999998  0.02415  1.0000
  O   O100      1.0  0.29024  0.82905  0.00689  1.0000
  O   O101      1.0  0.78946  0.6830299999999999  0.01984  1.0000
  O   O102      1.0  0.8498999999999999  0.76461  0.01327  1.0000
  O   O103      1.0  0.10687999999999999  0.75222  0.99967  1.0000
  O   O104      1.0  0.16403999999999996  0.66845  0.00439  1.0000
