data_image0
_chemical_formula_structural       Cu40H96C256O152
_chemical_formula_sum              "Cu40 H96 C256 O152"
_cell_length_a       18.64989
_cell_length_b       18.64989
_cell_length_c       43.03151
_cell_angle_alpha    90.0
_cell_angle_beta     90.0
_cell_angle_gamma    89.99910999999999

_symmetry_space_group_name_H-M    'P 1'
_symmetry_Int_Tables_number       1

loop_
  _symmetry_equiv_pos_as_xyz
  'x,y,z'

loop_
  _atom_site_type_symbol
  _atom_site_label
  _atom_site_symmetry_multiplicity
  _atom_site_fract_x
  _atom_site_fract_y
  _atom_site_fract_z
  _atom_site_occupancy
  Cu  Cu1       1.0  0.05355  0.05355  0.3979299999999999  1.0000
  Cu  Cu2       1.0  0.25593  0.25593  0.2784  1.0000
  Cu  Cu3       1.0  0.19467000000000007  0.19467  0.23546999999999998  1.0000
  Cu  Cu4       1.0  0.94645  0.94644  0.3979299999999999  1.0000
  Cu  Cu5       1.0  0.74407  0.74407  0.2784  1.0000
  Cu  Cu6       1.0  0.8053300000000001  0.80533  0.23546999999999998  1.0000
  Cu  Cu7       1.0  0.44661000000000006  0.55338  0.89768  1.0000
  Cu  Cu8       1.0  0.24423000000000003  0.75577  0.7782499999999999  1.0000
  Cu  Cu9       1.0  0.30555  0.69444  0.7354199999999999  1.0000
  Cu  Cu10      1.0  0.55338  0.44660999999999995  0.89768  1.0000
  Cu  Cu11      1.0  0.75577  0.24422  0.7782499999999999  1.0000
  Cu  Cu12      1.0  0.6944500000000001  0.30555  0.7354199999999999  1.0000
  Cu  Cu13      1.0  0.44661000000000006  0.55338  0.10232  1.0000
  Cu  Cu14      1.0  0.24422  0.75578  0.22175999999999998  1.0000
  Cu  Cu15      1.0  0.30555  0.69445  0.26459  1.0000
  Cu  Cu16      1.0  0.55338  0.44660999999999995  0.10232  1.0000
  Cu  Cu17      1.0  0.75578  0.24422  0.22175999999999998  1.0000
  Cu  Cu18      1.0  0.6944500000000001  0.30555  0.26459  1.0000
  Cu  Cu19      1.0  0.05355  0.05355  0.60208  1.0000
  Cu  Cu20      1.0  0.25593  0.25593  0.7215999999999999  1.0000
  Cu  Cu21      1.0  0.19467000000000007  0.19467  0.7645299999999999  1.0000
  Cu  Cu22      1.0  0.94645  0.94644  0.60208  1.0000
  Cu  Cu23      1.0  0.74407  0.74407  0.7215999999999999  1.0000
  Cu  Cu24      1.0  0.8053300000000001  0.80533  0.7645299999999999  1.0000
  Cu  Cu25      1.0  0.9031  0.09689999999999999  0.42364  1.0000
  Cu  Cu26      1.0  0.0969  0.9030999999999999  0.42364  1.0000
  Cu  Cu27      1.0  0.4035  0.4034999999999999  0.92406  1.0000
  Cu  Cu28      1.0  0.5965  0.5964999999999998  0.92406  1.0000
  Cu  Cu29      1.0  0.5965  0.5964999999999998  0.07594  1.0000
  Cu  Cu30      1.0  0.4035  0.4034999999999999  0.07594  1.0000
  Cu  Cu31      1.0  0.0969  0.9030999999999999  0.5763699999999999  1.0000
  Cu  Cu32      1.0  0.9031  0.09689999999999999  0.5763699999999999  1.0000
  Cu  Cu33      1.0  0.15126  0.15126  0.5  1.0000
  Cu  Cu34      1.0  0.24425  0.24424999999999997  0.5  1.0000
  Cu  Cu35      1.0  0.84874  0.8487299999999998  0.5  1.0000
  Cu  Cu36      1.0  0.75575  0.75575  0.5  1.0000
  Cu  Cu37      1.0  0.34737  0.6526299999999999  0.0  1.0000
  Cu  Cu38      1.0  0.25445  0.74555  0.0  1.0000
  Cu  Cu39      1.0  0.65263  0.3473599999999999  0.0  1.0000
  Cu  Cu40      1.0  0.74555  0.25445  0.0  1.0000
  H   H1        1.0  0.14895  0.40508  0.44475999999999993  1.0000
  H   H2        1.0  0.08564000000000002  0.47952  0.40508  1.0000
  H   H3        1.0  0.9918500000000001  0.42246  0.37122  1.0000
  H   H4        1.0  0.84914  0.30191  0.33494  1.0000
  H   H5        1.0  0.98004  0.25494  0.25488  1.0000
  H   H6        1.0  0.07649000000000003  0.26773  0.34591  1.0000
  H   H7        1.0  0.85105  0.59492  0.44475999999999993  1.0000
  H   H8        1.0  0.9143600000000001  0.52047  0.40508  1.0000
  H   H9        1.0  0.00815  0.5775399999999999  0.37122  1.0000
  H   H10       1.0  0.15086  0.69809  0.33494  1.0000
  H   H11       1.0  0.01996  0.7450499999999998  0.25488  1.0000
  H   H12       1.0  0.9235100000000002  0.73227  0.34591  1.0000
  H   H13       1.0  0.09477  0.6491  0.9448499999999999  1.0000
  H   H14       1.0  0.02003  0.58586  0.90514  1.0000
  H   H15       1.0  0.07749  0.49232999999999993  0.87123  1.0000
  H   H16       1.0  0.19737000000000002  0.34903  0.83509  1.0000
  H   H17       1.0  0.24554000000000004  0.47874  0.75484  1.0000
  H   H18       1.0  0.23252000000000003  0.57641  0.8456299999999999  1.0000
  H   H19       1.0  0.90523  0.3509  0.9448499999999999  1.0000
  H   H20       1.0  0.97997  0.41414  0.90514  1.0000
  H   H21       1.0  0.92251  0.50767  0.87123  1.0000
  H   H22       1.0  0.80263  0.65097  0.83509  1.0000
  H   H23       1.0  0.75446  0.52126  0.75484  1.0000
  H   H24       1.0  0.7674800000000002  0.42359  0.8456299999999999  1.0000
  H   H25       1.0  0.3509  0.90523  0.05514999999999999  1.0000
  H   H26       1.0  0.41414  0.9799699999999999  0.09485999999999997  1.0000
  H   H27       1.0  0.50767  0.9225099999999998  0.12878  1.0000
  H   H28       1.0  0.6509700000000002  0.8026299999999997  0.16491  1.0000
  H   H29       1.0  0.52126  0.75445  0.24517  1.0000
  H   H30       1.0  0.42359  0.76748  0.15437  1.0000
  H   H31       1.0  0.6491000000000001  0.09476999999999997  0.05514999999999999  1.0000
  H   H32       1.0  0.5858600000000002  0.020029999999999996  0.09485999999999997  1.0000
  H   H33       1.0  0.49233  0.07749  0.12878  1.0000
  H   H34       1.0  0.34903  0.19737  0.16491  1.0000
  H   H35       1.0  0.47874  0.24553999999999998  0.24517  1.0000
  H   H36       1.0  0.57641  0.23251999999999998  0.15437  1.0000
  H   H37       1.0  0.40508  0.14895  0.55524  1.0000
  H   H38       1.0  0.47952  0.08564  0.59492  1.0000
  H   H39       1.0  0.42245  0.99184  0.62878  1.0000
  H   H40       1.0  0.30191000000000007  0.84914  0.66506  1.0000
  H   H41       1.0  0.25495  0.9800399999999999  0.74513  1.0000
  H   H42       1.0  0.26772000000000007  0.07649  0.6541  1.0000
  H   H43       1.0  0.59492  0.85105  0.55524  1.0000
  H   H44       1.0  0.52048  0.91436  0.59492  1.0000
  H   H45       1.0  0.57754  0.00815  0.62878  1.0000
  H   H46       1.0  0.69809  0.15086  0.66506  1.0000
  H   H47       1.0  0.7450500000000001  0.01996  0.74513  1.0000
  H   H48       1.0  0.73228  0.9235099999999998  0.6541  1.0000
  H   H49       1.0  0.85105  0.59492  0.55524  1.0000
  H   H50       1.0  0.9143600000000001  0.52048  0.59492  1.0000
  H   H51       1.0  0.00816  0.5775399999999999  0.62878  1.0000
  H   H52       1.0  0.15086  0.69809  0.66506  1.0000
  H   H53       1.0  0.01996  0.7450499999999998  0.74513  1.0000
  H   H54       1.0  0.9235100000000002  0.73228  0.6541  1.0000
  H   H55       1.0  0.14895  0.40508  0.55524  1.0000
  H   H56       1.0  0.08564000000000002  0.47952  0.59492  1.0000
  H   H57       1.0  0.9918400000000002  0.4224499999999999  0.62878  1.0000
  H   H58       1.0  0.84914  0.30191  0.66506  1.0000
  H   H59       1.0  0.98004  0.25495  0.74513  1.0000
  H   H60       1.0  0.07649000000000003  0.26772  0.6541  1.0000
  H   H61       1.0  0.90523  0.3509  0.05514999999999999  1.0000
  H   H62       1.0  0.97997  0.41414  0.09485999999999997  1.0000
  H   H63       1.0  0.92251  0.50767  0.12878  1.0000
  H   H64       1.0  0.80263  0.65097  0.16491  1.0000
  H   H65       1.0  0.75446  0.52126  0.24517  1.0000
  H   H66       1.0  0.7674800000000002  0.42359  0.15437  1.0000
  H   H67       1.0  0.09477  0.6491  0.05514999999999999  1.0000
  H   H68       1.0  0.02003  0.58586  0.09485999999999997  1.0000
  H   H69       1.0  0.07749  0.49232999999999993  0.12878  1.0000
  H   H70       1.0  0.19737000000000002  0.34903  0.16491  1.0000
  H   H71       1.0  0.24554000000000004  0.47874  0.24517  1.0000
  H   H72       1.0  0.23252000000000003  0.57641  0.15437  1.0000
  H   H73       1.0  0.6491000000000001  0.09476999999999997  0.9448499999999999  1.0000
  H   H74       1.0  0.5858600000000002  0.020029999999999996  0.90514  1.0000
  H   H75       1.0  0.49233  0.07749  0.87123  1.0000
  H   H76       1.0  0.34903  0.19737  0.83509  1.0000
  H   H77       1.0  0.47874  0.24553999999999998  0.75484  1.0000
  H   H78       1.0  0.57641  0.23251999999999998  0.8456299999999999  1.0000
  H   H79       1.0  0.3509  0.90523  0.9448499999999999  1.0000
  H   H80       1.0  0.41414  0.9799699999999999  0.90514  1.0000
  H   H81       1.0  0.50767  0.9225099999999998  0.87123  1.0000
  H   H82       1.0  0.6509700000000002  0.8026299999999997  0.83509  1.0000
  H   H83       1.0  0.52126  0.75445  0.75484  1.0000
  H   H84       1.0  0.42359  0.76748  0.8456299999999999  1.0000
  H   H85       1.0  0.59492  0.85105  0.44475999999999993  1.0000
  H   H86       1.0  0.52048  0.9143499999999999  0.40508  1.0000
  H   H87       1.0  0.57754  0.00815  0.37122  1.0000
  H   H88       1.0  0.69809  0.15086  0.33494  1.0000
  H   H89       1.0  0.7450500000000001  0.01996  0.25488  1.0000
  H   H90       1.0  0.73227  0.9235099999999998  0.34591  1.0000
  H   H91       1.0  0.40508  0.14895  0.44475999999999993  1.0000
  H   H92       1.0  0.47952  0.08564  0.40508  1.0000
  H   H93       1.0  0.42246  0.9918499999999999  0.37122  1.0000
  H   H94       1.0  0.30191000000000007  0.84914  0.33494  1.0000
  H   H95       1.0  0.25495  0.9800399999999999  0.25488  1.0000
  H   H96       1.0  0.26773  0.07649  0.34591  1.0000
  C   C1        1.0  0.0016  0.32015  0.39363  1.0000
  C   C2        1.0  0.03469  0.27820999999999996  0.41645  1.0000
  C   C3        1.0  0.08881  0.30971999999999994  0.43476999999999993  1.0000
  C   C4        1.0  0.10683  0.38211  0.43043999999999993  1.0000
  C   C5        1.0  0.07176  0.42330999999999996  0.40807  1.0000
  C   C6        1.0  0.019140000000000004  0.3922599999999999  0.38935  1.0000
  C   C7        1.0  0.96144  0.28414999999999996  0.34368999999999994  1.0000
  C   C8        1.0  0.90117  0.29032  0.32478  1.0000
  C   C9        1.0  0.9081600000000001  0.28029  0.29268  1.0000
  C   C10       1.0  0.97491  0.26428  0.27968  1.0000
  C   C11       1.0  0.0354  0.26139999999999997  0.29889  1.0000
  C   C12       1.0  0.02937  0.27153  0.33109999999999995  1.0000
  C   C13       1.0  0.015580000000000002  0.19959999999999994  0.41689  1.0000
  C   C14       1.0  0.12917  0.26722  0.45840999999999993  1.0000
  C   C15       1.0  0.10662  0.24685  0.28436  1.0000
  C   C16       1.0  0.84289  0.28501  0.27285  1.0000
  C   C17       1.0  0.9984000000000001  0.6798499999999997  0.39363  1.0000
  C   C18       1.0  0.9653100000000001  0.72179  0.41645  1.0000
  C   C19       1.0  0.91119  0.6902799999999999  0.43476999999999993  1.0000
  C   C20       1.0  0.8931700000000001  0.61789  0.43043999999999993  1.0000
  C   C21       1.0  0.92824  0.57669  0.40807  1.0000
  C   C22       1.0  0.98086  0.60773  0.38935  1.0000
  C   C23       1.0  0.03856  0.7158399999999998  0.34368999999999994  1.0000
  C   C24       1.0  0.09883  0.70968  0.32478  1.0000
  C   C25       1.0  0.09184  0.7197099999999997  0.29268  1.0000
  C   C26       1.0  0.02509  0.73572  0.27968  1.0000
  C   C27       1.0  0.9646  0.7385999999999998  0.29889  1.0000
  C   C28       1.0  0.97063  0.72847  0.33109999999999995  1.0000
  C   C29       1.0  0.9844200000000001  0.8003899999999998  0.41689  1.0000
  C   C30       1.0  0.8708300000000001  0.7327799999999998  0.45840999999999993  1.0000
  C   C31       1.0  0.89338  0.75315  0.28436  1.0000
  C   C32       1.0  0.15711  0.71499  0.27285  1.0000
  C   C33       1.0  0.17963  0.50186  0.8936999999999998  1.0000
  C   C34       1.0  0.22178  0.53487  0.9165299999999998  1.0000
  C   C35       1.0  0.18996  0.58918  0.93475  1.0000
  C   C36       1.0  0.11755000000000002  0.60703  0.9304499999999998  1.0000
  C   C37       1.0  0.07627000000000002  0.57201  0.9081099999999999  1.0000
  C   C38       1.0  0.10754  0.51956  0.8894099999999999  1.0000
  C   C39       1.0  0.21546  0.46131  0.8437  1.0000
  C   C40       1.0  0.2092  0.40092  0.82486  1.0000
  C   C41       1.0  0.21940999999999997  0.4075399999999999  0.79276  1.0000
  C   C42       1.0  0.23605000000000004  0.47400999999999993  0.7796499999999997  1.0000
  C   C43       1.0  0.23934  0.53465  0.7987499999999998  1.0000
  C   C44       1.0  0.22874000000000003  0.52903  0.8309799999999998  1.0000
  C   C45       1.0  0.30057000000000006  0.51573  0.9169499999999999  1.0000
  C   C46       1.0  0.23178  0.6301299999999997  0.95841  1.0000
  C   C47       1.0  0.25445  0.60566  0.78408  1.0000
  C   C48       1.0  0.21433  0.34209  0.77309  1.0000
  C   C49       1.0  0.8203700000000003  0.49812999999999996  0.8936999999999998  1.0000
  C   C50       1.0  0.7782200000000001  0.46512999999999993  0.9165299999999998  1.0000
  C   C51       1.0  0.81004  0.41081  0.93475  1.0000
  C   C52       1.0  0.8824500000000001  0.39295999999999986  0.9304499999999998  1.0000
  C   C53       1.0  0.92373  0.4279799999999999  0.9081099999999999  1.0000
  C   C54       1.0  0.89246  0.48044  0.8894099999999999  1.0000
  C   C55       1.0  0.78454  0.53869  0.8437  1.0000
  C   C56       1.0  0.7908  0.59908  0.82486  1.0000
  C   C57       1.0  0.78059  0.5924499999999999  0.79276  1.0000
  C   C58       1.0  0.76395  0.52599  0.7796499999999997  1.0000
  C   C59       1.0  0.76066  0.46534  0.7987499999999998  1.0000
  C   C60       1.0  0.77126  0.47097  0.8309799999999998  1.0000
  C   C61       1.0  0.69943  0.48427  0.9169499999999999  1.0000
  C   C62       1.0  0.7682200000000001  0.36987  0.95841  1.0000
  C   C63       1.0  0.74555  0.39432999999999996  0.78408  1.0000
  C   C64       1.0  0.78567  0.6579099999999998  0.77309  1.0000
  C   C65       1.0  0.4981400000000001  0.82037  0.10629999999999998  1.0000
  C   C66       1.0  0.46513000000000004  0.7782199999999999  0.08347  1.0000
  C   C67       1.0  0.41081  0.8100299999999998  0.06525  1.0000
  C   C68       1.0  0.39297  0.88245  0.06956  1.0000
  C   C69       1.0  0.42799  0.9237299999999999  0.0919  1.0000
  C   C70       1.0  0.48044  0.89246  0.1106  1.0000
  C   C71       1.0  0.53869  0.78454  0.1563  1.0000
  C   C72       1.0  0.59908  0.7908  0.17515  1.0000
  C   C73       1.0  0.59246  0.78059  0.20724  1.0000
  C   C74       1.0  0.52599  0.7639499999999998  0.22034999999999996  1.0000
  C   C75       1.0  0.46534  0.76066  0.20125999999999997  1.0000
  C   C76       1.0  0.47097  0.77126  0.16901999999999998  1.0000
  C   C77       1.0  0.48427000000000003  0.69943  0.08306  1.0000
  C   C78       1.0  0.36987  0.76822  0.041589999999999995  1.0000
  C   C79       1.0  0.39433  0.74555  0.21592999999999998  1.0000
  C   C80       1.0  0.65791  0.7856599999999999  0.22690999999999995  1.0000
  C   C81       1.0  0.50186  0.17963  0.10629999999999998  1.0000
  C   C82       1.0  0.5348700000000001  0.22177999999999998  0.08347  1.0000
  C   C83       1.0  0.58918  0.18996  0.06525  1.0000
  C   C84       1.0  0.60703  0.11754999999999999  0.06956  1.0000
  C   C85       1.0  0.57201  0.07626999999999999  0.0919  1.0000
  C   C86       1.0  0.5195600000000001  0.10754  0.1106  1.0000
  C   C87       1.0  0.46131000000000005  0.21544999999999997  0.1563  1.0000
  C   C88       1.0  0.40092000000000005  0.20919999999999997  0.17515  1.0000
  C   C89       1.0  0.40754  0.21940999999999994  0.20724  1.0000
  C   C90       1.0  0.47401000000000004  0.23605  0.22034999999999996  1.0000
  C   C91       1.0  0.53466  0.23933999999999994  0.20125999999999997  1.0000
  C   C92       1.0  0.5290300000000001  0.22874  0.16901999999999998  1.0000
  C   C93       1.0  0.51573  0.3005699999999999  0.08306  1.0000
  C   C94       1.0  0.63013  0.23178  0.041589999999999995  1.0000
  C   C95       1.0  0.60567  0.25445  0.21592999999999998  1.0000
  C   C96       1.0  0.34209  0.21432999999999996  0.22690999999999995  1.0000
  C   C97       1.0  0.32014  0.0016  0.60638  1.0000
  C   C98       1.0  0.27821  0.034689999999999985  0.58355  1.0000
  C   C99       1.0  0.30972  0.08881  0.56523  1.0000
  C   C100      1.0  0.38211  0.10681999999999997  0.56956  1.0000
  C   C101      1.0  0.42331  0.07176  0.59194  1.0000
  C   C102      1.0  0.39226000000000005  0.01914  0.6106599999999999  1.0000
  C   C103      1.0  0.28415  0.96144  0.65631  1.0000
  C   C104      1.0  0.29032  0.90117  0.67522  1.0000
  C   C105      1.0  0.28029  0.9081599999999999  0.70733  1.0000
  C   C106      1.0  0.26428  0.9749099999999999  0.72032  1.0000
  C   C107      1.0  0.2614000000000001  0.0354  0.70112  1.0000
  C   C108      1.0  0.27153  0.029359999999999997  0.6689  1.0000
  C   C109      1.0  0.1996  0.01558  0.58311  1.0000
  C   C110      1.0  0.26722  0.12916  0.54159  1.0000
  C   C111      1.0  0.24685  0.10662  0.71564  1.0000
  C   C112      1.0  0.28502  0.84289  0.7271499999999999  1.0000
  C   C113      1.0  0.67986  0.9983999999999998  0.60638  1.0000
  C   C114      1.0  0.72179  0.9653099999999999  0.58355  1.0000
  C   C115      1.0  0.69028  0.91119  0.56523  1.0000
  C   C116      1.0  0.61789  0.89317  0.56956  1.0000
  C   C117      1.0  0.57669  0.92824  0.59194  1.0000
  C   C118      1.0  0.60774  0.98086  0.6106599999999999  1.0000
  C   C119      1.0  0.71585  0.03856  0.65631  1.0000
  C   C120      1.0  0.70968  0.09883  0.67522  1.0000
  C   C121      1.0  0.71971  0.09183999999999999  0.70733  1.0000
  C   C122      1.0  0.7357200000000002  0.02509  0.72032  1.0000
  C   C123      1.0  0.7386  0.9646  0.70112  1.0000
  C   C124      1.0  0.72847  0.97063  0.6689  1.0000
  C   C125      1.0  0.8004000000000001  0.98442  0.58311  1.0000
  C   C126      1.0  0.73278  0.8708299999999999  0.54159  1.0000
  C   C127      1.0  0.7531500000000002  0.89338  0.71564  1.0000
  C   C128      1.0  0.71498  0.15711  0.7271499999999999  1.0000
  C   C129      1.0  0.9984000000000001  0.6798499999999997  0.60638  1.0000
  C   C130      1.0  0.9653100000000001  0.72179  0.58355  1.0000
  C   C131      1.0  0.91119  0.6902799999999999  0.56523  1.0000
  C   C132      1.0  0.89318  0.61789  0.56956  1.0000
  C   C133      1.0  0.92824  0.57669  0.59194  1.0000
  C   C134      1.0  0.98086  0.60774  0.6106599999999999  1.0000
  C   C135      1.0  0.03856  0.7158499999999998  0.65631  1.0000
  C   C136      1.0  0.09883  0.70968  0.67522  1.0000
  C   C137      1.0  0.09184  0.7197099999999997  0.70733  1.0000
  C   C138      1.0  0.02509  0.73572  0.72032  1.0000
  C   C139      1.0  0.9646  0.7385999999999998  0.70112  1.0000
  C   C140      1.0  0.97063  0.72847  0.6689  1.0000
  C   C141      1.0  0.9844200000000001  0.8003899999999998  0.58311  1.0000
  C   C142      1.0  0.8708300000000001  0.7327799999999998  0.54159  1.0000
  C   C143      1.0  0.89338  0.75315  0.71564  1.0000
  C   C144      1.0  0.15711  0.71498  0.7271499999999999  1.0000
  C   C145      1.0  0.0016  0.32014  0.60638  1.0000
  C   C146      1.0  0.03469  0.27820999999999996  0.58355  1.0000
  C   C147      1.0  0.08881  0.30971999999999994  0.56523  1.0000
  C   C148      1.0  0.10682  0.38211  0.56956  1.0000
  C   C149      1.0  0.07176  0.42330999999999996  0.59194  1.0000
  C   C150      1.0  0.019140000000000004  0.3922599999999999  0.6106599999999999  1.0000
  C   C151      1.0  0.96144  0.28414999999999996  0.65631  1.0000
  C   C152      1.0  0.90117  0.29032  0.67522  1.0000
  C   C153      1.0  0.9081600000000001  0.28029  0.70733  1.0000
  C   C154      1.0  0.97491  0.26428  0.72032  1.0000
  C   C155      1.0  0.0354  0.26139999999999997  0.70112  1.0000
  C   C156      1.0  0.02937  0.27153  0.6689  1.0000
  C   C157      1.0  0.015580000000000002  0.19959999999999994  0.58311  1.0000
  C   C158      1.0  0.12916  0.26722  0.54159  1.0000
  C   C159      1.0  0.10662  0.24685  0.71564  1.0000
  C   C160      1.0  0.84289  0.28502  0.7271499999999999  1.0000
  C   C161      1.0  0.8203700000000003  0.49812999999999996  0.10629999999999998  1.0000
  C   C162      1.0  0.7782200000000001  0.46512999999999993  0.08347  1.0000
  C   C163      1.0  0.81004  0.41081  0.06525  1.0000
  C   C164      1.0  0.8824500000000001  0.39295999999999986  0.06956  1.0000
  C   C165      1.0  0.92373  0.4279799999999999  0.0919  1.0000
  C   C166      1.0  0.89246  0.48044  0.1106  1.0000
  C   C167      1.0  0.78454  0.53868  0.1563  1.0000
  C   C168      1.0  0.7908  0.59908  0.17515  1.0000
  C   C169      1.0  0.78059  0.5924499999999999  0.20724  1.0000
  C   C170      1.0  0.76395  0.52599  0.22034999999999996  1.0000
  C   C171      1.0  0.76066  0.46534  0.20125999999999997  1.0000
  C   C172      1.0  0.77126  0.47097  0.16901999999999998  1.0000
  C   C173      1.0  0.69943  0.48427  0.08306  1.0000
  C   C174      1.0  0.7682200000000001  0.36987  0.041589999999999995  1.0000
  C   C175      1.0  0.74555  0.39432999999999996  0.21592999999999998  1.0000
  C   C176      1.0  0.78567  0.6579099999999998  0.22690999999999995  1.0000
  C   C177      1.0  0.17963  0.50186  0.10629999999999998  1.0000
  C   C178      1.0  0.22178  0.53487  0.08347  1.0000
  C   C179      1.0  0.18996  0.58918  0.06525  1.0000
  C   C180      1.0  0.11755000000000002  0.60703  0.06956  1.0000
  C   C181      1.0  0.07627000000000002  0.57201  0.0919  1.0000
  C   C182      1.0  0.10754  0.51956  0.1106  1.0000
  C   C183      1.0  0.21546  0.46131  0.1563  1.0000
  C   C184      1.0  0.2092  0.40092  0.17515  1.0000
  C   C185      1.0  0.21940999999999997  0.4075399999999999  0.20724  1.0000
  C   C186      1.0  0.23605000000000004  0.47400999999999993  0.22034999999999996  1.0000
  C   C187      1.0  0.23934  0.53466  0.20125999999999997  1.0000
  C   C188      1.0  0.22874000000000003  0.52903  0.16901999999999998  1.0000
  C   C189      1.0  0.30057000000000006  0.51573  0.08306  1.0000
  C   C190      1.0  0.23178  0.6301299999999997  0.041589999999999995  1.0000
  C   C191      1.0  0.25445  0.60566  0.21592999999999998  1.0000
  C   C192      1.0  0.21433  0.34209  0.22690999999999995  1.0000
  C   C193      1.0  0.50186  0.17963  0.8936999999999998  1.0000
  C   C194      1.0  0.5348700000000001  0.22177999999999998  0.9165299999999998  1.0000
  C   C195      1.0  0.58918  0.18996  0.93475  1.0000
  C   C196      1.0  0.60703  0.11754999999999999  0.9304499999999998  1.0000
  C   C197      1.0  0.57201  0.07626999999999999  0.9081099999999999  1.0000
  C   C198      1.0  0.5195600000000001  0.10754  0.8894099999999999  1.0000
  C   C199      1.0  0.46131000000000005  0.21545999999999998  0.8437  1.0000
  C   C200      1.0  0.40092000000000005  0.20919999999999997  0.82486  1.0000
  C   C201      1.0  0.40754  0.21940999999999994  0.79276  1.0000
  C   C202      1.0  0.47401000000000004  0.23605  0.7796499999999997  1.0000
  C   C203      1.0  0.53466  0.23933999999999994  0.7987499999999998  1.0000
  C   C204      1.0  0.5290300000000001  0.22874  0.8309799999999998  1.0000
  C   C205      1.0  0.51573  0.3005699999999999  0.9169499999999999  1.0000
  C   C206      1.0  0.63013  0.23178  0.95841  1.0000
  C   C207      1.0  0.60566  0.25445  0.78408  1.0000
  C   C208      1.0  0.34209  0.21432999999999996  0.77309  1.0000
  C   C209      1.0  0.4981400000000001  0.82037  0.8936999999999998  1.0000
  C   C210      1.0  0.46513000000000004  0.7782199999999999  0.9165299999999998  1.0000
  C   C211      1.0  0.41081  0.8100299999999998  0.93475  1.0000
  C   C212      1.0  0.39297  0.88245  0.9304499999999998  1.0000
  C   C213      1.0  0.42799  0.9237299999999999  0.9081099999999999  1.0000
  C   C214      1.0  0.48044  0.89246  0.8894099999999999  1.0000
  C   C215      1.0  0.53869  0.78454  0.8437  1.0000
  C   C216      1.0  0.59908  0.7908  0.82486  1.0000
  C   C217      1.0  0.59246  0.78059  0.79276  1.0000
  C   C218      1.0  0.52599  0.7639499999999998  0.7796499999999997  1.0000
  C   C219      1.0  0.46534  0.76066  0.7987499999999998  1.0000
  C   C220      1.0  0.47097  0.77126  0.8309799999999998  1.0000
  C   C221      1.0  0.48427000000000003  0.69943  0.9169499999999999  1.0000
  C   C222      1.0  0.36987  0.76822  0.95841  1.0000
  C   C223      1.0  0.39433  0.74555  0.78408  1.0000
  C   C224      1.0  0.65791  0.7856599999999999  0.77309  1.0000
  C   C225      1.0  0.67985  0.9983999999999998  0.39363  1.0000
  C   C226      1.0  0.72179  0.9653099999999999  0.41645  1.0000
  C   C227      1.0  0.69028  0.91119  0.43476999999999993  1.0000
  C   C228      1.0  0.61789  0.89317  0.43043999999999993  1.0000
  C   C229      1.0  0.57669  0.9282299999999999  0.40807  1.0000
  C   C230      1.0  0.60774  0.98086  0.38935  1.0000
  C   C231      1.0  0.71584  0.03856  0.34368999999999994  1.0000
  C   C232      1.0  0.70968  0.09883  0.32478  1.0000
  C   C233      1.0  0.71971  0.09183  0.29268  1.0000
  C   C234      1.0  0.7357200000000002  0.02509  0.27968  1.0000
  C   C235      1.0  0.7386  0.9646  0.29889  1.0000
  C   C236      1.0  0.72847  0.97063  0.33109999999999995  1.0000
  C   C237      1.0  0.8004000000000001  0.98442  0.41689  1.0000
  C   C238      1.0  0.73278  0.8708299999999999  0.45840999999999993  1.0000
  C   C239      1.0  0.7531500000000002  0.89338  0.28436  1.0000
  C   C240      1.0  0.71499  0.1571  0.27285  1.0000
  C   C241      1.0  0.32015  0.0016  0.39363  1.0000
  C   C242      1.0  0.27821  0.034689999999999985  0.41645  1.0000
  C   C243      1.0  0.30972  0.08881  0.43476999999999993  1.0000
  C   C244      1.0  0.38211  0.10683  0.43043999999999993  1.0000
  C   C245      1.0  0.42331  0.07176  0.40807  1.0000
  C   C246      1.0  0.39226000000000005  0.01914  0.38935  1.0000
  C   C247      1.0  0.28416  0.96144  0.34368999999999994  1.0000
  C   C248      1.0  0.29032  0.90117  0.32478  1.0000
  C   C249      1.0  0.28029  0.9081599999999999  0.29268  1.0000
  C   C250      1.0  0.26428  0.9749099999999999  0.27968  1.0000
  C   C251      1.0  0.2614000000000001  0.0354  0.29889  1.0000
  C   C252      1.0  0.27153  0.02937  0.33109999999999995  1.0000
  C   C253      1.0  0.1996  0.01558  0.41689  1.0000
  C   C254      1.0  0.26722  0.12917  0.45840999999999993  1.0000
  C   C255      1.0  0.24685  0.10662  0.28436  1.0000
  C   C256      1.0  0.28501  0.84289  0.27285  1.0000
  O   O1        1.0  0.05776  0.15991  0.40175  1.0000
  O   O2        1.0  0.95736  0.18179  0.43086  1.0000
  O   O3        1.0  0.10181000000000001  0.20774999999999993  0.46737  1.0000
  O   O4        1.0  0.18844  0.29435  0.4678299999999999  1.0000
  O   O5        1.0  0.16242  0.26874  0.29886  1.0000
  O   O6        1.0  0.10551  0.2141  0.25822  1.0000
  O   O7        1.0  0.84631  0.25844  0.24545999999999996  1.0000
  O   O8        1.0  0.78798  0.3142499999999999  0.2855  1.0000
  O   O9        1.0  0.9489900000000001  0.2877799999999999  0.37552  1.0000
  O   O10       1.0  0.94224  0.84008  0.40175  1.0000
  O   O11       1.0  0.04264  0.81821  0.43086  1.0000
  O   O12       1.0  0.89819  0.79225  0.46737  1.0000
  O   O13       1.0  0.8115600000000001  0.70565  0.4678299999999999  1.0000
  O   O14       1.0  0.8375800000000001  0.73125  0.29886  1.0000
  O   O15       1.0  0.8944900000000001  0.7858899999999998  0.25822  1.0000
  O   O16       1.0  0.15369  0.74156  0.24545999999999996  1.0000
  O   O17       1.0  0.21202  0.68574  0.2855  1.0000
  O   O18       1.0  0.05101  0.7122199999999999  0.37552  1.0000
  O   O19       1.0  0.34039  0.5573  0.9015599999999998  1.0000
  O   O20       1.0  0.31891  0.458  0.93114  1.0000
  O   O21       1.0  0.29128  0.60322  0.9674199999999998  1.0000
  O   O22       1.0  0.20408000000000007  0.68913  0.9678899999999999  1.0000
  O   O23       1.0  0.23272  0.66165  0.79849  1.0000
  O   O24       1.0  0.28739  0.60419  0.75797  1.0000
  O   O25       1.0  0.24023  0.34538  0.74557  1.0000
  O   O26       1.0  0.18544  0.28722  0.7858699999999998  1.0000
  O   O27       1.0  0.211  0.44873999999999997  0.8755299999999999  1.0000
  O   O28       1.0  0.65961  0.4426999999999999  0.9015599999999998  1.0000
  O   O29       1.0  0.68109  0.542  0.93114  1.0000
  O   O30       1.0  0.7087100000000001  0.3967699999999999  0.9674199999999998  1.0000
  O   O31       1.0  0.79592  0.31087  0.9678899999999999  1.0000
  O   O32       1.0  0.76728  0.33834  0.79849  1.0000
  O   O33       1.0  0.71261  0.3958  0.75797  1.0000
  O   O34       1.0  0.75977  0.65461  0.74557  1.0000
  O   O35       1.0  0.81456  0.71278  0.7858699999999998  1.0000
  O   O36       1.0  0.789  0.55126  0.8755299999999999  1.0000
  O   O37       1.0  0.4427  0.65961  0.09844  1.0000
  O   O38       1.0  0.542  0.68109  0.06886  1.0000
  O   O39       1.0  0.39677  0.70871  0.03258  1.0000
  O   O40       1.0  0.31087000000000004  0.7959099999999999  0.03212  1.0000
  O   O41       1.0  0.33835000000000004  0.76728  0.20151999999999995  1.0000
  O   O42       1.0  0.3958000000000001  0.7126099999999999  0.24203999999999998  1.0000
  O   O43       1.0  0.65462  0.7597699999999997  0.25443  1.0000
  O   O44       1.0  0.71278  0.81456  0.21412999999999993  1.0000
  O   O45       1.0  0.55126  0.789  0.12446999999999998  1.0000
  O   O46       1.0  0.5573  0.34038  0.09844  1.0000
  O   O47       1.0  0.458  0.31891  0.06886  1.0000
  O   O48       1.0  0.6032200000000001  0.29128  0.03258  1.0000
  O   O49       1.0  0.68913  0.20408  0.03212  1.0000
  O   O50       1.0  0.66165  0.23272  0.20151999999999995  1.0000
  O   O51       1.0  0.6042000000000001  0.2873799999999999  0.24203999999999998  1.0000
  O   O52       1.0  0.34538  0.24023  0.25443  1.0000
  O   O53       1.0  0.28722  0.18544  0.21412999999999993  1.0000
  O   O54       1.0  0.4487400000000001  0.211  0.12446999999999998  1.0000
  O   O55       1.0  0.15991  0.05775999999999999  0.59825  1.0000
  O   O56       1.0  0.18179000000000003  0.9573599999999998  0.56914  1.0000
  O   O57       1.0  0.20775000000000005  0.10180999999999997  0.53263  1.0000
  O   O58       1.0  0.29435  0.18844  0.53217  1.0000
  O   O59       1.0  0.26874000000000003  0.16242  0.70115  1.0000
  O   O60       1.0  0.2141  0.10550999999999998  0.74179  1.0000
  O   O61       1.0  0.25844000000000006  0.8463099999999998  0.75454  1.0000
  O   O62       1.0  0.31428  0.78798  0.71451  1.0000
  O   O63       1.0  0.28778  0.9489899999999999  0.62448  1.0000
  O   O64       1.0  0.84009  0.9422399999999999  0.59825  1.0000
  O   O65       1.0  0.81821  0.04263999999999999  0.56914  1.0000
  O   O66       1.0  0.79225  0.8981899999999999  0.53263  1.0000
  O   O67       1.0  0.7056500000000002  0.81156  0.53217  1.0000
  O   O68       1.0  0.73126  0.8375799999999999  0.70115  1.0000
  O   O69       1.0  0.7859000000000003  0.89449  0.74179  1.0000
  O   O70       1.0  0.7415600000000001  0.15369  0.75454  1.0000
  O   O71       1.0  0.6857200000000001  0.21201999999999996  0.71451  1.0000
  O   O72       1.0  0.71222  0.051  0.62448  1.0000
  O   O73       1.0  0.94224  0.84009  0.59825  1.0000
  O   O74       1.0  0.04264  0.81821  0.56914  1.0000
  O   O75       1.0  0.89819  0.79225  0.53263  1.0000
  O   O76       1.0  0.8115600000000001  0.70565  0.53217  1.0000
  O   O77       1.0  0.8375800000000001  0.73125  0.70115  1.0000
  O   O78       1.0  0.8944900000000001  0.7858899999999998  0.74179  1.0000
  O   O79       1.0  0.15369  0.74156  0.75454  1.0000
  O   O80       1.0  0.21202  0.68572  0.71451  1.0000
  O   O81       1.0  0.05100000000000001  0.7122199999999999  0.62448  1.0000
  O   O82       1.0  0.05776  0.15991  0.59825  1.0000
  O   O83       1.0  0.95736  0.18179  0.56914  1.0000
  O   O84       1.0  0.10181000000000001  0.20774999999999993  0.53263  1.0000
  O   O85       1.0  0.18844  0.29435  0.53217  1.0000
  O   O86       1.0  0.16242  0.26874  0.70115  1.0000
  O   O87       1.0  0.10551  0.2141  0.74179  1.0000
  O   O88       1.0  0.84631  0.25844  0.75454  1.0000
  O   O89       1.0  0.78798  0.31428  0.71451  1.0000
  O   O90       1.0  0.9489900000000001  0.28776999999999997  0.62448  1.0000
  O   O91       1.0  0.65961  0.4426999999999999  0.09844  1.0000
  O   O92       1.0  0.68109  0.542  0.06886  1.0000
  O   O93       1.0  0.7087100000000001  0.3967699999999999  0.03258  1.0000
  O   O94       1.0  0.79591  0.31087  0.03212  1.0000
  O   O95       1.0  0.76728  0.33834  0.20151999999999995  1.0000
  O   O96       1.0  0.71261  0.3958  0.24203999999999998  1.0000
  O   O97       1.0  0.75977  0.65461  0.25443  1.0000
  O   O98       1.0  0.81456  0.71278  0.21412999999999993  1.0000
  O   O99       1.0  0.789  0.55125  0.12446999999999998  1.0000
  O   O100      1.0  0.34039  0.5573  0.09844  1.0000
  O   O101      1.0  0.31891  0.458  0.06886  1.0000
  O   O102      1.0  0.29128  0.60322  0.03258  1.0000
  O   O103      1.0  0.20408000000000007  0.68913  0.03212  1.0000
  O   O104      1.0  0.23272  0.66165  0.20151999999999995  1.0000
  O   O105      1.0  0.28739  0.6042  0.24203999999999998  1.0000
  O   O106      1.0  0.24023  0.34538  0.25443  1.0000
  O   O107      1.0  0.18544  0.28722  0.21412999999999993  1.0000
  O   O108      1.0  0.211  0.44873999999999997  0.12446999999999998  1.0000
  O   O109      1.0  0.5573  0.34038  0.9015599999999998  1.0000
  O   O110      1.0  0.458  0.31891  0.93114  1.0000
  O   O111      1.0  0.6032200000000001  0.29128  0.9674199999999998  1.0000
  O   O112      1.0  0.68913  0.20408  0.9678899999999999  1.0000
  O   O113      1.0  0.66165  0.23272  0.79849  1.0000
  O   O114      1.0  0.60419  0.28738999999999987  0.75797  1.0000
  O   O115      1.0  0.34538  0.24023  0.74557  1.0000
  O   O116      1.0  0.28722  0.18544  0.7858699999999998  1.0000
  O   O117      1.0  0.4487400000000001  0.211  0.8755299999999999  1.0000
  O   O118      1.0  0.4427  0.65961  0.9015599999999998  1.0000
  O   O119      1.0  0.542  0.68109  0.93114  1.0000
  O   O120      1.0  0.39677  0.70871  0.9674199999999998  1.0000
  O   O121      1.0  0.31087000000000004  0.7959099999999999  0.9678899999999999  1.0000
  O   O122      1.0  0.33835000000000004  0.76728  0.79849  1.0000
  O   O123      1.0  0.3958000000000001  0.7126099999999999  0.75797  1.0000
  O   O124      1.0  0.65462  0.7597699999999997  0.74557  1.0000
  O   O125      1.0  0.71278  0.81456  0.7858699999999998  1.0000
  O   O126      1.0  0.55126  0.789  0.8755299999999999  1.0000
  O   O127      1.0  0.84009  0.9422299999999998  0.40175  1.0000
  O   O128      1.0  0.81821  0.04263999999999999  0.43086  1.0000
  O   O129      1.0  0.79225  0.8981899999999999  0.46737  1.0000
  O   O130      1.0  0.7056500000000002  0.81156  0.4678299999999999  1.0000
  O   O131      1.0  0.73125  0.8375799999999999  0.29886  1.0000
  O   O132      1.0  0.7859000000000003  0.89449  0.25822  1.0000
  O   O133      1.0  0.7415600000000001  0.15368  0.24545999999999996  1.0000
  O   O134      1.0  0.6857500000000001  0.21201999999999996  0.2855  1.0000
  O   O135      1.0  0.71222  0.051  0.37552  1.0000
  O   O136      1.0  0.15991  0.05775999999999999  0.40175  1.0000
  O   O137      1.0  0.18179000000000003  0.9573599999999998  0.43086  1.0000
  O   O138      1.0  0.20775000000000005  0.10180999999999997  0.46737  1.0000
  O   O139      1.0  0.29435  0.18844  0.4678299999999999  1.0000
  O   O140      1.0  0.26875  0.16242  0.29886  1.0000
  O   O141      1.0  0.2141  0.10550999999999998  0.25822  1.0000
  O   O142      1.0  0.25844000000000006  0.8463099999999998  0.24545999999999996  1.0000
  O   O143      1.0  0.31425000000000003  0.78798  0.2855  1.0000
  O   O144      1.0  0.28778  0.9489899999999999  0.37552  1.0000
  O   O145      1.0  0.9518100000000002  0.04818999999999998  0.39217  1.0000
  O   O146      1.0  0.04819  0.9518099999999999  0.39217  1.0000
  O   O147      1.0  0.45129  0.45129  0.8921199999999998  1.0000
  O   O148      1.0  0.54871  0.54871  0.8921199999999998  1.0000
  O   O149      1.0  0.54871  0.54871  0.10788  1.0000
  O   O150      1.0  0.45129  0.45129  0.10788  1.0000
  O   O151      1.0  0.04819  0.9518099999999999  0.60784  1.0000
  O   O152      1.0  0.9518100000000002  0.04818999999999998  0.60784  1.0000
