data_image0
_chemical_formula_structural       Cd12H192C280N32O48
_chemical_formula_sum              "Cd12 H192 C280 N32 O48"
_cell_length_a       11.94506
_cell_length_b       19.55598
_cell_length_c       32.276230000000005
_cell_angle_alpha    89.89041
_cell_angle_beta     89.97881
_cell_angle_gamma    89.93506999999998

_space_group_name_H-M_alt    "P 1"
_space_group_IT_number       1

loop_
  _space_group_symop_operation_xyz
  'x, y, z'

loop_
  _atom_site_type_symbol
  _atom_site_label
  _atom_site_symmetry_multiplicity
  _atom_site_fract_x
  _atom_site_fract_y
  _atom_site_fract_z
  _atom_site_occupancy
  Cd  Cd1       1.0  0.97071  0.34324  0.39893  1.0000
  Cd  Cd2       1.0  0.03703  0.80529  0.59953  1.0000
  Cd  Cd3       1.0  0.25848  0.04574000000000001  0.26053999999999994  1.0000
  Cd  Cd4       1.0  0.52741  0.65749  0.8988099999999998  1.0000
  Cd  Cd5       1.0  0.45922  0.19443  0.09910999999999998  1.0000
  Cd  Cd6       1.0  0.24077  0.9548300000000001  0.7607199999999997  1.0000
  Cd  Cd7       1.0  0.02696  0.8409800000000001  0.10149  1.0000
  Cd  Cd8       1.0  0.9622  0.30482  0.9006699999999997  1.0000
  Cd  Cd9       1.0  0.74067  0.54574  0.23934999999999995  1.0000
  Cd  Cd10      1.0  0.47386000000000006  0.15787  0.6005  1.0000
  Cd  Cd11      1.0  0.53714  0.6958500000000001  0.4002099999999999  1.0000
  Cd  Cd12      1.0  0.76036  0.45455  0.7394899999999998  1.0000
  H   H1        1.0  0.0662  0.57518  0.03223  1.0000
  H   H2        1.0  0.76396  0.98051  0.20554  1.0000
  H   H3        1.0  0.81569  0.4503499999999999  0.88969  1.0000
  H   H4        1.0  0.87133  0.74753  0.16569  1.0000
  H   H5        1.0  0.77059  0.64521  0.9663899999999997  1.0000
  H   H6        1.0  0.99397  0.05768  0.14979999999999993  1.0000
  H   H7        1.0  0.40044  0.80533  0.28124  1.0000
  H   H8        1.0  0.9066000000000001  0.9571  0.15181  1.0000
  H   H9        1.0  0.36303  0.9661  0.3448  1.0000
  H   H10       1.0  0.07441  0.68645  0.06883  1.0000
  H   H11       1.0  0.48331999999999997  0.08873  0.20905  1.0000
  H   H12       1.0  0.60924  0.20983  0.4135299999999999  1.0000
  H   H13       1.0  0.44657  0.14788  0.3809799999999999  1.0000
  H   H14       1.0  0.57097  0.19829  0.26037  1.0000
  H   H15       1.0  0.7362399999999999  0.2593  0.29296  1.0000
  H   H16       1.0  0.69265  0.9842000000000001  0.2678  1.0000
  H   H17       1.0  0.72539  0.76112  0.21886999999999995  1.0000
  H   H18       1.0  0.76652  0.78497  0.96965  1.0000
  H   H19       1.0  0.68872  0.75561  0.01297  1.0000
  H   H20       1.0  0.8152799999999999  0.0946  0.11471  1.0000
  H   H21       1.0  0.61451  0.04062  0.15632999999999994  1.0000
  H   H22       1.0  0.7854  0.70754  0.42744  1.0000
  H   H23       1.0  0.96009  0.7621  0.40325  1.0000
  H   H24       1.0  0.82472  0.75504  0.2789  1.0000
  H   H25       1.0  0.65183  0.70537  0.30855  1.0000
  H   H26       1.0  0.71996  0.20542000000000002  0.22353999999999993  1.0000
  H   H27       1.0  0.52948  0.00363  0.31345  1.0000
  H   H28       1.0  0.9990699999999999  0.47648000000000007  0.02465  1.0000
  H   H29       1.0  0.05629  0.9347599999999999  0.25114  1.0000
  H   H30       1.0  0.81418  0.56454  0.9221699999999998  1.0000
  H   H31       1.0  0.89953  0.17063  0.25829  1.0000
  H   H32       1.0  0.90734  0.85378  0.27214  1.0000
  H   H33       1.0  0.88697  0.58318  0.56735  1.0000
  H   H34       1.0  0.85612  0.47952  0.52221  1.0000
  H   H35       1.0  0.02551  0.58  0.4222299999999999  1.0000
  H   H36       1.0  0.056560000000000006  0.68355  0.4673599999999999  1.0000
  H   H37       1.0  0.9927399999999998  0.36553  0.9873799999999998  1.0000
  H   H38       1.0  0.55566  0.8145  0.13448999999999994  1.0000
  H   H39       1.0  0.64843  0.01516  0.09044  1.0000
  H   H40       1.0  0.78323  0.9620800000000002  0.04167999999999999  1.0000
  H   H41       1.0  0.68803  0.76233  0.08547  1.0000
  H   H42       1.0  0.29075  0.87073  0.38233  1.0000
  H   H43       1.0  0.34639  0.81361  0.3450899999999999  1.0000
  H   H44       1.0  0.86843  0.8650000000000001  0.01228  1.0000
  H   H45       1.0  0.12549  0.77465  0.3682999999999999  1.0000
  H   H46       1.0  0.5605  0.78617  0.23559999999999995  1.0000
  H   H47       1.0  0.39361  0.86684  0.14654  1.0000
  H   H48       1.0  0.27189  0.9215  0.19895999999999994  1.0000
  H   H49       1.0  0.43394000000000005  0.42462  0.5323  1.0000
  H   H50       1.0  0.7353600000000001  0.01961  0.70528  1.0000
  H   H51       1.0  0.6844700000000001  0.55018  0.38962999999999987  1.0000
  H   H52       1.0  0.62675  0.2525  0.66515  1.0000
  H   H53       1.0  0.73073  0.35575  0.46676  1.0000
  H   H54       1.0  0.50025  0.9426899999999999  0.6493799999999997  1.0000
  H   H55       1.0  0.09737  0.19532  0.78122  1.0000
  H   H56       1.0  0.59344  0.04289  0.65129  1.0000
  H   H57       1.0  0.13557  0.03405  0.84458  1.0000
  H   H58       1.0  0.42488  0.31251  0.56818  1.0000
  H   H59       1.0  0.01564  0.9106000000000001  0.70901  1.0000
  H   H60       1.0  0.8892400000000001  0.79052  0.91261  1.0000
  H   H61       1.0  0.05290000000000001  0.85143  0.8797499999999998  1.0000
  H   H62       1.0  0.9289900000000001  0.79987  0.75939  1.0000
  H   H63       1.0  0.7629099999999999  0.73998  0.7921899999999997  1.0000
  H   H64       1.0  0.80673  0.01571  0.7673699999999998  1.0000
  H   H65       1.0  0.77227  0.23912000000000003  0.7185  1.0000
  H   H66       1.0  0.7342  0.21598999999999996  0.4692399999999999  1.0000
  H   H67       1.0  0.81166  0.24432999999999996  0.5127399999999999  1.0000
  H   H68       1.0  0.67861  0.90677  0.61355  1.0000
  H   H69       1.0  0.88456  0.9590100000000001  0.6563399999999998  1.0000
  H   H70       1.0  0.71272  0.29324  0.9275199999999998  1.0000
  H   H71       1.0  0.53864  0.23814  0.90351  1.0000
  H   H72       1.0  0.67575  0.24376  0.77927  1.0000
  H   H73       1.0  0.84806  0.29374  0.8088299999999998  1.0000
  H   H74       1.0  0.77906  0.79676  0.7222999999999998  1.0000
  H   H75       1.0  0.9698  0.9963599999999999  0.8130699999999997  1.0000
  H   H76       1.0  0.50068  0.52382  0.52462  1.0000
  H   H77       1.0  0.44258  0.06568  0.75129  1.0000
  H   H78       1.0  0.68686  0.4361  0.4225099999999999  1.0000
  H   H79       1.0  0.59903  0.83009  0.75758  1.0000
  H   H80       1.0  0.59196  0.14607  0.77242  1.0000
  H   H81       1.0  0.61074  0.41498  0.06543  1.0000
  H   H82       1.0  0.64391  0.5184  0.020279999999999992  1.0000
  H   H83       1.0  0.47416  0.41966  0.92022  1.0000
  H   H84       1.0  0.43998  0.31641  0.9654  1.0000
  H   H85       1.0  0.50617  0.63471  0.4869699999999999  1.0000
  H   H86       1.0  0.9436399999999999  0.18528  0.63407  1.0000
  H   H87       1.0  0.85108  0.98456  0.59044  1.0000
  H   H88       1.0  0.71669  0.0376  0.5415  1.0000
  H   H89       1.0  0.81152  0.23739  0.58487  1.0000
  H   H90       1.0  0.20715  0.12886  0.8823399999999998  1.0000
  H   H91       1.0  0.1528  0.18675  0.8451  1.0000
  H   H92       1.0  0.63301  0.13468  0.51138  1.0000
  H   H93       1.0  0.37396  0.22464  0.8686899999999997  1.0000
  H   H94       1.0  0.93751  0.21442  0.73537  1.0000
  H   H95       1.0  0.10485  0.1331  0.64657  1.0000
  H   H96       1.0  0.22626999999999997  0.07838  0.69919  1.0000
  H   H97       1.0  0.93366  0.0758  0.46683999999999987  1.0000
  H   H98       1.0  0.23474  0.48147000000000006  0.29492  1.0000
  H   H99       1.0  0.18379  0.9511299999999999  0.61017  1.0000
  H   H100      1.0  0.12511  0.24872  0.33476  1.0000
  H   H101      1.0  0.22862  0.14566  0.53297  1.0000
  H   H102      1.0  0.0016800000000000005  0.55851  0.35054  1.0000
  H   H103      1.0  0.59741  0.30564  0.21922  1.0000
  H   H104      1.0  0.09171000000000001  0.45838000000000007  0.34855  1.0000
  H   H105      1.0  0.63454  0.46634  0.15527999999999995  1.0000
  H   H106      1.0  0.92475  0.18754  0.4305199999999999  1.0000
  H   H107      1.0  0.51628  0.58967  0.29091  1.0000
  H   H108      1.0  0.38965  0.70993  0.08640999999999997  1.0000
  H   H109      1.0  0.55408  0.64852  0.11898999999999997  1.0000
  H   H110      1.0  0.42996  0.69815  0.23963  1.0000
  H   H111      1.0  0.26371  0.75942  0.20696  1.0000
  H   H112      1.0  0.30578  0.48510000000000003  0.23282  1.0000
  H   H113      1.0  0.27181  0.26195  0.28173  1.0000
  H   H114      1.0  0.23139999999999997  0.28532  0.52992  1.0000
  H   H115      1.0  0.30977  0.25651  0.4867  1.0000
  H   H116      1.0  0.17953999999999998  0.5956000000000001  0.38611  1.0000
  H   H117      1.0  0.38514  0.54151  0.34365  1.0000
  H   H118      1.0  0.20968  0.20565  0.07256  1.0000
  H   H119      1.0  0.03595  0.26115  0.09694  1.0000
  H   H120      1.0  0.17455000000000004  0.25513  0.22092999999999993  1.0000
  H   H121      1.0  0.34655  0.20481000000000002  0.19097  1.0000
  H   H122      1.0  0.27829  0.70438  0.2769  1.0000
  H   H123      1.0  0.46855  0.50438  0.187  1.0000
  H   H124      1.0  0.0006699999999999997  0.97703  0.47507  1.0000
  H   H125      1.0  0.94207  0.43463  0.24853999999999998  1.0000
  H   H126      1.0  0.18530000000000002  0.06524  0.57727  1.0000
  H   H127      1.0  0.0989  0.67012  0.24173  1.0000
  H   H128      1.0  0.09090000000000001  0.35341  0.22758999999999993  1.0000
  H   H129      1.0  0.11365  0.08458  0.93535  1.0000
  H   H130      1.0  0.14411  0.9807100000000001  0.98053  1.0000
  H   H131      1.0  0.9702  0.07986  0.07977  1.0000
  H   H132      1.0  0.9390999999999999  0.1832  0.034399999999999986  1.0000
  H   H133      1.0  0.006169999999999999  0.86627  0.5129  1.0000
  H   H134      1.0  0.44364  0.31525  0.3654  1.0000
  H   H135      1.0  0.35125999999999996  0.51583  0.4094299999999999  1.0000
  H   H136      1.0  0.21562  0.46281000000000005  0.45793  1.0000
  H   H137      1.0  0.31026  0.26309  0.41412  1.0000
  H   H138      1.0  0.70647  0.3710300000000001  0.11782999999999998  1.0000
  H   H139      1.0  0.65105  0.31375  0.15515999999999996  1.0000
  H   H140      1.0  0.13013  0.36598  0.48724  1.0000
  H   H141      1.0  0.87184  0.27432  0.13200999999999993  1.0000
  H   H142      1.0  0.43763  0.28658  0.26503  1.0000
  H   H143      1.0  0.60589  0.36721  0.35344  1.0000
  H   H144      1.0  0.72762  0.4220900000000001  0.3009799999999999  1.0000
  H   H145      1.0  0.56538  0.92388  0.9673899999999998  1.0000
  H   H146      1.0  0.26539  0.51893  0.7947399999999998  1.0000
  H   H147      1.0  0.31378  0.04888  0.10985  1.0000
  H   H148      1.0  0.37362999999999996  0.75167  0.8345099999999998  1.0000
  H   H149      1.0  0.26904  0.85426  0.032969999999999985  1.0000
  H   H150      1.0  0.49905  0.4415200000000001  0.85027  1.0000
  H   H151      1.0  0.90255  0.69536  0.71914  1.0000
  H   H152      1.0  0.40767999999999993  0.54201  0.84855  1.0000
  H   H153      1.0  0.8641400000000001  0.53463  0.6557499999999998  1.0000
  H   H154      1.0  0.57477  0.81223  0.9312699999999998  1.0000
  H   H155      1.0  0.98489  0.41046  0.7911499999999998  1.0000
  H   H156      1.0  0.11043  0.29176  0.58556  1.0000
  H   H157      1.0  0.9476400000000001  0.35343  0.61848  1.0000
  H   H158      1.0  0.07159  0.30036  0.73873  1.0000
  H   H159      1.0  0.23626  0.23931  0.7059299999999997  1.0000
  H   H160      1.0  0.19352000000000003  0.51539  0.73265  1.0000
  H   H161      1.0  0.22775  0.73849  0.78128  1.0000
  H   H162      1.0  0.26735  0.71433  0.03053  1.0000
  H   H163      1.0  0.18901  0.74266  0.98711  1.0000
  H   H164      1.0  0.32036  0.4058  0.8859199999999998  1.0000
  H   H165      1.0  0.11608  0.4583900000000001  0.84387  1.0000
  H   H166      1.0  0.28802  0.79461  0.57264  1.0000
  H   H167      1.0  0.46164  0.73885  0.59692  1.0000
  H   H168      1.0  0.32377  0.7448100000000001  0.72101  1.0000
  H   H169      1.0  0.15188  0.79528  0.69123  1.0000
  H   H170      1.0  0.22266  0.29428  0.77773  1.0000
  H   H171      1.0  0.03027  0.49654000000000004  0.68705  1.0000
  H   H172      1.0  0.49854  0.022760000000000002  0.9750799999999998  1.0000
  H   H173      1.0  0.55671  0.56562  0.74916  1.0000
  H   H174      1.0  0.31261  0.93474  0.07729999999999998  1.0000
  H   H175      1.0  0.40255  0.32774  0.7424199999999997  1.0000
  H   H176      1.0  0.40719999999999995  0.64613  0.72779  1.0000
  H   H177      1.0  0.38485  0.9163  0.43422  1.0000
  H   H178      1.0  0.35348999999999997  0.01973  0.47931  1.0000
  H   H179      1.0  0.52767  0.92061  0.5786  1.0000
  H   H180      1.0  0.56043  0.8175700000000002  0.5334499999999998  1.0000
  H   H181      1.0  0.49161  0.13369  0.01239  1.0000
  H   H182      1.0  0.05815000000000001  0.68453  0.8654899999999998  1.0000
  H   H183      1.0  0.15017  0.48367000000000004  0.90968  1.0000
  H   H184      1.0  0.28465  0.53652  0.95852  1.0000
  H   H185      1.0  0.19049  0.73643  0.9145  1.0000
  H   H186      1.0  0.7922700000000001  0.63008  0.61825  1.0000
  H   H187      1.0  0.84688  0.68727  0.65557  1.0000
  H   H188      1.0  0.3692  0.63362  0.9881699999999998  1.0000
  H   H189      1.0  0.62619  0.72576  0.6320799999999998  1.0000
  H   H190      1.0  0.06308  0.71416  0.76457  1.0000
  H   H191      1.0  0.8958099999999999  0.63278  0.85347  1.0000
  H   H192      1.0  0.7740800000000001  0.5783  0.8011  1.0000
  C   C1        1.0  0.93385  0.45972  0.4451499999999999  1.0000
  C   C2        1.0  0.90951  0.53205  0.9763  1.0000
  C   C3        1.0  0.00226  0.61361  0.02621  1.0000
  C   C4        1.0  0.78515  0.9277800000000002  0.19824  1.0000
  C   C5        1.0  0.8554899999999999  0.45828  0.91967  1.0000
  C   C6        1.0  0.95589  0.11113000000000002  0.20629999999999996  1.0000
  C   C7        1.0  0.84487  0.79851  0.1751  1.0000
  C   C8        1.0  0.06013  0.08623  0.22724  1.0000
  C   C9        1.0  0.40527  0.13297  0.29895  1.0000
  C   C10       1.0  0.17063  0.90119  0.29928  1.0000
  C   C11       1.0  0.92765  0.7264400000000001  0.03780999999999999  1.0000
  C   C12       1.0  0.84096  0.65079  0.98756  1.0000
  C   C13       1.0  0.93348  0.09032  0.16553999999999994  1.0000
  C   C14       1.0  0.46344  0.84517  0.27829  1.0000
  C   C15       1.0  0.86519  0.9153400000000002  0.16790999999999995  1.0000
  C   C16       1.0  0.34645  0.92245  0.32435  1.0000
  C   C17       1.0  0.72954  0.87285  0.21741  1.0000
  C   C18       1.0  0.00813  0.67473  0.04685  1.0000
  C   C19       1.0  0.63814  0.88405  0.24741999999999995  1.0000
  C   C20       1.0  0.7563499999999999  0.15135  0.16715999999999995  1.0000
  C   C21       1.0  0.46704  0.03973  0.19427  1.0000
  C   C22       1.0  0.68235  0.23716000000000004  0.35494  1.0000
  C   C23       1.0  0.60046  0.20657000000000003  0.38006  1.0000
  C   C24       1.0  0.51002  0.17294  0.36216  1.0000
  C   C25       1.0  0.49985  0.17054  0.3188999999999999  1.0000
  C   C26       1.0  0.58117  0.20158  0.29382  1.0000
  C   C27       1.0  0.6719600000000001  0.23479  0.3116799999999999  1.0000
  C   C28       1.0  0.62827  0.94507  0.27021  1.0000
  C   C29       1.0  0.9168999999999999  0.59906  0.9964099999999999  1.0000
  C   C30       1.0  0.7628299999999999  0.80665  0.20523  1.0000
  C   C31       1.0  0.7725199999999999  0.77046  0.0023599999999999993  1.0000
  C   C32       1.0  0.83484  0.11063000000000002  0.14612999999999995  1.0000
  C   C33       1.0  0.53937  0.012750000000000001  0.16481  1.0000
  C   C34       1.0  0.7972399999999998  0.71954  0.3947299999999999  1.0000
  C   C35       1.0  0.89547  0.7495200000000001  0.38077  1.0000
  C   C36       1.0  0.90682  0.76711  0.3386099999999999  1.0000
  C   C37       1.0  0.8188  0.74753  0.31217  1.0000
  C   C38       1.0  0.72227  0.71853  0.32843  1.0000
  C   C39       1.0  0.78035  0.1733  0.20758  1.0000
  C   C40       1.0  0.53666  0.9559900000000001  0.29623  1.0000
  C   C41       1.0  0.99623  0.6988  0.54717  1.0000
  C   C42       1.0  0.9587  0.47379  0.99451  1.0000
  C   C43       1.0  0.06785  0.8991600000000001  0.27681  1.0000
  C   C44       1.0  0.85481  0.52233  0.9381599999999998  1.0000
  C   C45       1.0  0.8798199999999999  0.15392  0.22695999999999994  1.0000
  C   C46       1.0  0.00071  0.80845  0.32334  1.0000
  C   C47       1.0  0.45205999999999996  0.9067200000000001  0.3  1.0000
  C   C48       1.0  0.98654  0.85389  0.28879  1.0000
  C   C49       1.0  0.97304  0.63895  0.51979  1.0000
  C   C50       1.0  0.91559  0.5819  0.5353799999999997  1.0000
  C   C51       1.0  0.8988500000000001  0.52473  0.5105999999999998  1.0000
  C   C52       1.0  0.94018  0.52397  0.4699099999999999  1.0000
  C   C53       1.0  0.99506  0.58168  0.4539199999999999  1.0000
  C   C54       1.0  0.01164  0.63891  0.47872  1.0000
  C   C55       1.0  0.64741  0.16888  0.14655  1.0000
  C   C56       1.0  0.9556599999999998  0.4115  0.9741  1.0000
  C   C57       1.0  0.60351  0.8471200000000001  0.11371  1.0000
  C   C58       1.0  0.59244  0.9186200000000001  0.11607  1.0000
  C   C59       1.0  0.6573  0.95969  0.08953  1.0000
  C   C60       1.0  0.7323  0.9297599999999999  0.06173  1.0000
  C   C61       1.0  0.7438  0.8585800000000001  0.0598  1.0000
  C   C62       1.0  0.6784  0.81771  0.08602  1.0000
  C   C63       1.0  0.29773  0.86071  0.34908  1.0000
  C   C64       1.0  0.82697  0.8251900000000001  0.03091  1.0000
  C   C65       1.0  0.10374  0.80906  0.34306  1.0000
  C   C66       1.0  0.5551  0.83389  0.25265  1.0000
  C   C67       1.0  0.51613  0.9491300000000001  0.14677  1.0000
  C   C68       1.0  0.4178200000000001  0.9158500000000002  0.15956999999999993  1.0000
  C   C69       1.0  0.34915  0.9461500000000002  0.18902  1.0000
  C   C70       1.0  0.7806  0.27223  0.37401  1.0000
  C   C71       1.0  0.56618  0.53938  0.94317  1.0000
  C   C72       1.0  0.59106  0.46847  0.4765  1.0000
  C   C73       1.0  0.49792  0.38630000000000003  0.52617  1.0000
  C   C74       1.0  0.71407  0.07233  0.6978999999999997  1.0000
  C   C75       1.0  0.64466  0.54226  0.4196299999999999  1.0000
  C   C76       1.0  0.54085  0.88926  0.70578  1.0000
  C   C77       1.0  0.65378  0.20156  0.67454  1.0000
  C   C78       1.0  0.43725  0.9138500000000002  0.72717  1.0000
  C   C79       1.0  0.09493  0.8651399999999999  0.79806  1.0000
  C   C80       1.0  0.32817  0.09916  0.79936  1.0000
  C   C81       1.0  0.5721  0.27316  0.53727  1.0000
  C   C82       1.0  0.65993  0.3498  0.48772  1.0000
  C   C83       1.0  0.56164  0.91033  0.66489  1.0000
  C   C84       1.0  0.03462  0.15539  0.77817  1.0000
  C   C85       1.0  0.6345  0.08469  0.66739  1.0000
  C   C86       1.0  0.152  0.07795  0.8241999999999998  1.0000
  C   C87       1.0  0.76915  0.12735  0.7170599999999998  1.0000
  C   C88       1.0  0.49161999999999995  0.32473  0.54646  1.0000
  C   C89       1.0  0.86046  0.11624  0.74713  1.0000
  C   C90       1.0  0.7393299999999999  0.8501199999999999  0.6659  1.0000
  C   C91       1.0  0.03179  0.95984  0.6943799999999998  1.0000
  C   C92       1.0  0.81633  0.76254  0.8541  1.0000
  C   C93       1.0  0.8981699999999999  0.79317  0.87914  1.0000
  C   C94       1.0  0.98916  0.8262399999999999  0.8612  1.0000
  C   C95       1.0  0.99985  0.82811  0.8179999999999997  1.0000
  C   C96       1.0  0.91867  0.79713  0.7928799999999998  1.0000
  C   C97       1.0  0.8272599999999999  0.7644700000000001  0.81082  1.0000
  C   C98       1.0  0.87069  0.05507  0.76988  1.0000
  C   C99       1.0  0.58375  0.40135000000000004  0.49660999999999994  1.0000
  C   C100      1.0  0.73542  0.19352  0.70482  1.0000
  C   C101      1.0  0.7279299999999999  0.22979000000000002  0.50201  1.0000
  C   C102      1.0  0.65989  0.89054  0.6450699999999998  1.0000
  C   C103      1.0  0.9596199999999999  0.9868700000000001  0.66484  1.0000
  C   C104      1.0  0.70156  0.28062  0.8949  1.0000
  C   C105      1.0  0.60355  0.25037  0.88102  1.0000
  C   C106      1.0  0.59269  0.23231  0.83894  1.0000
  C   C107      1.0  0.6811500000000001  0.25157  0.8125199999999998  1.0000
  C   C108      1.0  0.77746  0.28078  0.82873  1.0000
  C   C109      1.0  0.7172799999999999  0.8282  0.7065099999999997  1.0000
  C   C110      1.0  0.96217  0.04421  0.7959799999999998  1.0000
  C   C111      1.0  0.49727  0.29996  0.045119999999999987  1.0000
  C   C112      1.0  0.54125  0.52662  0.4944999999999999  1.0000
  C   C113      1.0  0.43115  0.10108  0.7769899999999997  1.0000
  C   C114      1.0  0.64593  0.47829  0.4383599999999999  1.0000
  C   C115      1.0  0.61802  0.84691  0.72621  1.0000
  C   C116      1.0  0.49872  0.19109  0.8237  1.0000
  C   C117      1.0  0.04631  0.09372  0.79988  1.0000
  C   C118      1.0  0.51274  0.14599000000000004  0.7890799999999998  1.0000
  C   C119      1.0  0.52376  0.35979  0.017869999999999994  1.0000
  C   C120      1.0  0.58267  0.41626  0.03341  1.0000
  C   C121      1.0  0.60075  0.47348  0.00861  1.0000
  C   C122      1.0  0.55973  0.47493  0.9678999999999998  1.0000
  C   C123      1.0  0.50435  0.41761  0.95189  1.0000
  C   C124      1.0  0.48619  0.36046  0.97671  1.0000
  C   C125      1.0  0.8473  0.83294  0.64468  1.0000
  C   C126      1.0  0.54379  0.58884  0.47385  1.0000
  C   C127      1.0  0.8957699999999998  0.15263  0.61339  1.0000
  C   C128      1.0  0.9067  0.08113  0.61596  1.0000
  C   C129      1.0  0.84212  0.04003  0.58946  1.0000
  C   C130      1.0  0.76739  0.06996  0.56151  1.0000
  C   C131      1.0  0.75595  0.14115  0.55938  1.0000
  C   C132      1.0  0.8211100000000001  0.18201  0.58558  1.0000
  C   C133      1.0  0.20081  0.13935  0.84909  1.0000
  C   C134      1.0  0.67325  0.17454  0.53023  1.0000
  C   C135      1.0  0.39556  0.19046  0.84339  1.0000
  C   C136      1.0  0.9431099999999999  0.16661  0.75244  1.0000
  C   C137      1.0  0.98273  0.050620000000000005  0.6467899999999998  1.0000
  C   C138      1.0  0.08076  0.084  0.6596499999999997  1.0000
  C   C139      1.0  0.1492  0.053669999999999995  0.68921  1.0000
  C   C140      1.0  0.71775  0.72819  0.8735899999999999  1.0000
  C   C141      1.0  0.06301  0.95922  0.05687  1.0000
  C   C142      1.0  0.09007000000000001  0.03262999999999999  0.52323  1.0000
  C   C143      1.0  0.99723  0.11426  0.47305  1.0000
  C   C144      1.0  0.21317  0.42878000000000005  0.3022199999999999  1.0000
  C   C145      1.0  0.14391  0.9590300000000002  0.5801799999999998  1.0000
  C   C146      1.0  0.04153  0.61099  0.29387  1.0000
  C   C147      1.0  0.15226  0.29961  0.32538  1.0000
  C   C148      1.0  0.9379199999999999  0.58604  0.27281  1.0000
  C   C149      1.0  0.5954  0.63351  0.20093  1.0000
  C   C150      1.0  0.82729  0.40111  0.20065  1.0000
  C   C151      1.0  0.07098  0.22737  0.4616899999999999  1.0000
  C   C152      1.0  0.15821  0.15132  0.5118  1.0000
  C   C153      1.0  0.06282  0.59064  0.3348199999999999  1.0000
  C   C154      1.0  0.53444  0.34556  0.22216999999999995  1.0000
  C   C155      1.0  0.13296  0.41651  0.33252  1.0000
  C   C156      1.0  0.65121  0.4226500000000001  0.17580999999999994  1.0000
  C   C157      1.0  0.26842  0.37368  0.28313  1.0000
  C   C158      1.0  0.9909800000000001  0.17562  0.45251  1.0000
  C   C159      1.0  0.36001  0.38469  0.25315  1.0000
  C   C160      1.0  0.23961  0.6511100000000001  0.33321  1.0000
  C   C161      1.0  0.53255  0.54058  0.3056999999999999  1.0000
  C   C162      1.0  0.31794  0.7373000000000002  0.14512999999999995  1.0000
  C   C163      1.0  0.39943  0.7067800000000001  0.11987  1.0000
  C   C164      1.0  0.49029  0.67335  0.13774  1.0000
  C   C165      1.0  0.50062  0.67099  0.18101  1.0000
  C   C166      1.0  0.4193  0.7017  0.2062  1.0000
  C   C167      1.0  0.32836  0.73496  0.18839  1.0000
  C   C168      1.0  0.37  0.44581  0.23034  1.0000
  C   C169      1.0  0.08252  0.0996  0.50292  1.0000
  C   C170      1.0  0.23453  0.30755  0.2953099999999999  1.0000
  C   C171      1.0  0.22579  0.27118  0.4971900000000001  1.0000
  C   C172      1.0  0.16083  0.61099  0.35446  1.0000
  C   C173      1.0  0.46031  0.51358  0.3351999999999999  1.0000
  C   C174      1.0  0.19881  0.21814  0.10521  1.0000
  C   C175      1.0  0.10105  0.24858  0.11929  1.0000
  C   C176      1.0  0.09076  0.26658  0.1614  1.0000
  C   C177      1.0  0.17947  0.24718  0.18768  1.0000
  C   C178      1.0  0.27554  0.21778999999999998  0.17126  1.0000
  C   C179      1.0  0.21693  0.67265  0.29262  1.0000
  C   C180      1.0  0.46144  0.45663  0.20422  1.0000
  C   C181      1.0  0.99985  0.19977  0.95501  1.0000
  C   C182      1.0  0.04091  0.9743600000000001  0.50524  1.0000
  C   C183      1.0  0.9303200000000001  0.39898  0.22299  1.0000
  C   C184      1.0  0.14469  0.023  0.56144  1.0000
  C   C185      1.0  0.11791  0.65342  0.27311  1.0000
  C   C186      1.0  0.9970400000000001  0.30811  0.17666  1.0000
  C   C187      1.0  0.54579  0.40713  0.20035  1.0000
  C   C188      1.0  0.01152  0.35361  0.21104  1.0000
  C   C189      1.0  0.02461  0.13975  0.9824199999999997  1.0000
  C   C190      1.0  0.08378999999999999  0.08311  0.96714  1.0000
  C   C191      1.0  0.10023  0.025660000000000002  0.99191  1.0000
  C   C192      1.0  0.0572  0.02399  0.03235  1.0000
  C   C193      1.0  0.00154  0.08149  0.048199999999999986  1.0000
  C   C194      1.0  0.98513  0.13887  0.02334  1.0000
  C   C195      1.0  0.34785  0.66892  0.35377  1.0000
  C   C196      1.0  0.04361  0.91219  0.52595  1.0000
  C   C197      1.0  0.39558  0.34781  0.38611  1.0000
  C   C198      1.0  0.407  0.41929000000000005  0.3838399999999999  1.0000
  C   C199      1.0  0.34208  0.4603900000000001  0.41028  1.0000
  C   C200      1.0  0.26657  0.43050000000000005  0.43792  1.0000
  C   C201      1.0  0.25465  0.35934  0.43976  1.0000
  C   C202      1.0  0.32015  0.31844  0.41362  1.0000
  C   C203      1.0  0.69967  0.36084  0.1511  1.0000
  C   C204      1.0  0.17131999999999997  0.32608  0.46866  1.0000
  C   C205      1.0  0.8937899999999999  0.30883  0.15707999999999994  1.0000
  C   C206      1.0  0.44294  0.33436  0.24791999999999997  1.0000
  C   C207      1.0  0.48352999999999996  0.44980000000000003  0.35322  1.0000
  C   C208      1.0  0.58176  0.41636000000000006  0.3404199999999999  1.0000
  C   C209      1.0  0.65035  0.44671999999999995  0.31095  1.0000
  C   C210      1.0  0.21942000000000003  0.77228  0.12623  1.0000
  C   C211      1.0  0.43401  0.04049  0.55625  1.0000
  C   C212      1.0  0.40823000000000004  0.96725  0.02324  1.0000
  C   C213      1.0  0.50153  0.8855099999999999  0.97348  1.0000
  C   C214      1.0  0.28659  0.5716300000000001  0.8020399999999998  1.0000
  C   C215      1.0  0.35384  0.04095000000000001  0.07990999999999997  1.0000
  C   C216      1.0  0.45957  0.38766  0.79409  1.0000
  C   C217      1.0  0.34669  0.70078  0.82518  1.0000
  C   C218      1.0  0.56336  0.41220999999999997  0.7728499999999998  1.0000
  C   C219      1.0  0.90703  0.36744  0.70082  1.0000
  C   C220      1.0  0.67148  0.59936  0.70119  1.0000
  C   C221      1.0  0.42802  0.77241  0.9622499999999998  1.0000
  C   C222      1.0  0.33981  0.8485400000000001  0.011959999999999997  1.0000
  C   C223      1.0  0.43797  0.4090500000000001  0.8348099999999998  1.0000
  C   C224      1.0  0.96541  0.65535  0.7220599999999998  1.0000
  C   C225      1.0  0.36636  0.58386  0.83245  1.0000
  C   C226      1.0  0.84767  0.5783  0.67621  1.0000
  C   C227      1.0  0.23127  0.62674  0.78287  1.0000
  C   C228      1.0  0.50806  0.8242  0.95306  1.0000
  C   C229      1.0  0.1398  0.61584  0.75291  1.0000
  C   C230      1.0  0.2605  0.34903  0.8336099999999997  1.0000
  C   C231      1.0  0.9687399999999999  0.45954  0.80588  1.0000
  C   C232      1.0  0.18272  0.26249000000000006  0.64387  1.0000
  C   C233      1.0  0.10117999999999999  0.29415  0.61904  1.0000
  C   C234      1.0  0.010989999999999998  0.32793  0.63717  1.0000
  C   C235      1.0  0.0009400000000000001  0.32964  0.6804599999999997  1.0000
  C   C236      1.0  0.08195  0.29766  0.7052699999999997  1.0000
  C   C237      1.0  0.17234999999999998  0.26421  0.68719  1.0000
  C   C238      1.0  0.12946  0.5548  0.73021  1.0000
  C   C239      1.0  0.41572  0.9002300000000001  0.00312  1.0000
  C   C240      1.0  0.26487  0.69287  0.79499  1.0000
  C   C241      1.0  0.27306  0.72838  0.9977399999999998  1.0000
  C   C242      1.0  0.33935999999999994  0.38954  0.85447  1.0000
  C   C243      1.0  0.04111  0.48641000000000006  0.8352999999999998  1.0000
  C   C244      1.0  0.29879  0.78185  0.60528  1.0000
  C   C245      1.0  0.39660999999999996  0.7513200000000001  0.61931  1.0000
  C   C246      1.0  0.40711  0.73321  0.66143  1.0000
  C   C247      1.0  0.31862  0.7527000000000001  0.68774  1.0000
  C   C248      1.0  0.22248  0.78215  0.67137  1.0000
  C   C249      1.0  0.28371  0.32642  0.79326  1.0000
  C   C250      1.0  0.037780000000000015  0.5442  0.70422  1.0000
  C   C251      1.0  0.50031  0.80165  0.45374  1.0000
  C   C252      1.0  0.45774  0.025460000000000003  0.005149999999999998  1.0000
  C   C253      1.0  0.5683  0.60118  0.7234699999999997  1.0000
  C   C254      1.0  0.35329  0.9769600000000002  0.061359999999999984  1.0000
  C   C255      1.0  0.38312999999999997  0.345  0.77366  1.0000
  C   C256      1.0  0.5009  0.69171  0.67678  1.0000
  C   C257      1.0  0.9535  0.59379  0.70043  1.0000
  C   C258      1.0  0.48667  0.64621  0.71129  1.0000
  C   C259      1.0  0.47458  0.86115  0.48127  1.0000
  C   C260      1.0  0.4146599999999999  0.9176499999999999  0.4660299999999999  1.0000
  C   C261      1.0  0.39742  0.97484  0.49085  1.0000
  C   C262      1.0  0.44009  0.97621  0.53136  1.0000
  C   C263      1.0  0.49624  0.9187600000000001  0.54709  1.0000
  C   C264      1.0  0.51377  0.86166  0.52224  1.0000
  C   C265      1.0  0.15234  0.33143  0.85454  1.0000
  C   C266      1.0  0.45448  0.08772  0.02561  1.0000
  C   C267      1.0  0.10579  0.65184  0.88632  1.0000
  C   C268      1.0  0.09446  0.58037  0.88401  1.0000
  C   C269      1.0  0.1591  0.53914  0.91057  1.0000
  C   C270      1.0  0.23395  0.56895  0.93843  1.0000
  C   C271      1.0  0.24553  0.64011  0.94036  1.0000
  C   C272      1.0  0.18057999999999996  0.68109  0.91402  1.0000
  C   C273      1.0  0.79873  0.6400500000000001  0.65152  1.0000
  C   C274      1.0  0.32818  0.67347  0.9694199999999997  1.0000
  C   C275      1.0  0.60425  0.69127  0.65725  1.0000
  C   C276      1.0  0.057179999999999995  0.66636  0.74764  1.0000
  C   C277      1.0  0.01806  0.55012  0.8533  1.0000
  C   C278      1.0  0.9199100000000001  0.58366  0.84049  1.0000
  C   C279      1.0  0.8512099999999999  0.55345  0.81106  1.0000
  C   C280      1.0  0.28133  0.22792999999999997  0.62435  1.0000
  N   N1        1.0  0.70975  0.70612  0.36938  1.0000
  N   N2        1.0  0.89491  0.85177  0.156  1.0000
  N   N3        1.0  0.91573  0.78773  0.05406  1.0000
  N   N4        1.0  0.25613  0.94281  0.29491  1.0000
  N   N5        1.0  0.84944  0.71182  0.00695  1.0000
  N   N6        1.0  0.18493  0.85284  0.33076  1.0000
  N   N7        1.0  0.37323000000000006  0.0069900000000000006  0.20648999999999995  1.0000
  N   N8        1.0  0.90652  0.40348  0.93676  1.0000
  N   N9        1.0  0.78943  0.29379  0.8696199999999997  1.0000
  N   N10       1.0  0.60473  0.14821  0.65532  1.0000
  N   N11       1.0  0.58344  0.21140000000000003  0.55308  1.0000
  N   N12       1.0  0.24232  0.05795000000000001  0.79469  1.0000
  N   N13       1.0  0.65116  0.28842  0.5068  1.0000
  N   N14       1.0  0.31407  0.14704  0.831  1.0000
  N   N15       1.0  0.12526  0.9927  0.70671  1.0000
  N   N16       1.0  0.59292  0.5969300000000001  0.43647999999999987  1.0000
  N   N17       1.0  0.2869  0.20479  0.13034  1.0000
  N   N18       1.0  0.10274999999999998  0.35305  0.34444999999999987  1.0000
  N   N19       1.0  0.08236  0.28891  0.44564  1.0000
  N   N20       1.0  0.74186  0.44283  0.20509  1.0000
  N   N21       1.0  0.14943  0.21247  0.49244  1.0000
  N   N22       1.0  0.81269  0.35278  0.1693  1.0000
  N   N23       1.0  0.62622  0.50769  0.29347  1.0000
  N   N24       1.0  0.09264000000000001  0.9042500000000001  0.56334  1.0000
  N   N25       1.0  0.21076  0.79516  0.63045  1.0000
  N   N26       1.0  0.39601  0.64734  0.8443999999999998  1.0000
  N   N27       1.0  0.41729000000000005  0.71075  0.94641  1.0000
  N   N28       1.0  0.75744  0.55803  0.70575  1.0000
  N   N29       1.0  0.34900999999999993  0.78732  0.9928099999999999  1.0000
  N   N30       1.0  0.6856199999999999  0.64763  0.66967  1.0000
  N   N31       1.0  0.8750899999999999  0.4925  0.79364  1.0000
  N   N32       1.0  0.40496999999999994  0.09574  0.06288999999999997  1.0000
  O   O1        1.0  0.6341  0.14807  0.10908  1.0000
  O   O2        1.0  0.57283  0.20164  0.16652  1.0000
  O   O3        1.0  0.9717500000000001  0.46103000000000005  0.40783  1.0000
  O   O4        1.0  0.09717999999999999  0.11835  0.25874  1.0000
  O   O5        1.0  0.34913  0.09079  0.32089  1.0000
  O   O6        1.0  0.38766  0.14323  0.2603999999999999  1.0000
  O   O7        1.0  0.10825  0.03316  0.21238999999999994  1.0000
  O   O8        1.0  0.8970200000000002  0.4055500000000001  0.4622  1.0000
  O   O9        1.0  0.9719  0.6938100000000001  0.58568  1.0000
  O   O10       1.0  0.04097  0.75196  0.53132  1.0000
  O   O11       1.0  0.79454  0.26923  0.4130299999999999  1.0000
  O   O12       1.0  0.8476299999999999  0.30431  0.34982999999999986  1.0000
  O   O13       1.0  0.85797  0.85197  0.60684  1.0000
  O   O14       1.0  0.9242999999999999  0.80185  0.6646799999999998  1.0000
  O   O15       1.0  0.52583  0.5390400000000001  0.9062199999999998  1.0000
  O   O16       1.0  0.4004  0.8818  0.75882  1.0000
  O   O17       1.0  0.14798  0.9096700000000001  0.81936  1.0000
  O   O18       1.0  0.11575  0.85213  0.7601699999999998  1.0000
  O   O19       1.0  0.38921  0.96709  0.71238  1.0000
  O   O20       1.0  0.60548  0.59291  0.9601199999999998  1.0000
  O   O21       1.0  0.52582  0.30318  0.08338  1.0000
  O   O22       1.0  0.44662  0.24877000000000002  0.02957  1.0000
  O   O23       1.0  0.70268  0.73393  0.91244  1.0000
  O   O24       1.0  0.65184  0.69408  0.84999  1.0000
  O   O25       1.0  0.36025  0.64975  0.3915799999999999  1.0000
  O   O26       1.0  0.42306999999999995  0.70043  0.33335  1.0000
  O   O27       1.0  0.02261  0.95949  0.0938  1.0000
  O   O28       1.0  0.90017  0.61907  0.24164999999999995  1.0000
  O   O29       1.0  0.65174  0.59168  0.17892999999999995  1.0000
  O   O30       1.0  0.61268  0.64309  0.23955  1.0000
  O   O31       1.0  0.89132  0.53209  0.28727  1.0000
  O   O32       1.0  0.10239  0.90563  0.0399  1.0000
  O   O33       1.0  0.02812  0.19558  0.91674  1.0000
  O   O34       1.0  0.9507700000000001  0.25187  0.9703199999999997  1.0000
  O   O35       1.0  0.20329  0.76764  0.08739  1.0000
  O   O36       1.0  0.15424  0.80577  0.15038  1.0000
  O   O37       1.0  0.13732  0.35386  0.8914999999999997  1.0000
  O   O38       1.0  0.07938  0.29648  0.83517  1.0000
  O   O39       1.0  0.47499  0.03996  0.59315  1.0000
  O   O40       1.0  0.6004  0.38004  0.7413899999999998  1.0000
  O   O41       1.0  0.85197  0.41073  0.67924  1.0000
  O   O42       1.0  0.88883  0.35641  0.73928  1.0000
  O   O43       1.0  0.61094  0.46555  0.78756  1.0000
  O   O44       1.0  0.3941700000000001  0.09425  0.53961  1.0000
  O   O45       1.0  0.46856000000000003  0.80482  0.41585  1.0000
  O   O46       1.0  0.55355  0.75068  0.46864  1.0000
  O   O47       1.0  0.29677  0.23262000000000002  0.58549  1.0000
  O   O48       1.0  0.34797  0.1949  0.64832  1.0000
