data_image0
_chemical_formula_structural       Zn8H192C300O38
_chemical_formula_sum              "Zn8 H192 C300 O38"
_cell_length_a       19.1243
_cell_length_b       23.0302
_cell_length_c       23.51729
_cell_angle_alpha    88.61169
_cell_angle_beta     68.1302
_cell_angle_gamma    68.61366999999998

_symmetry_space_group_name_H-M    'P 1'
_symmetry_Int_Tables_number       1

loop_
  _symmetry_equiv_pos_as_xyz
  'x,y,z'

loop_
  _atom_site_type_symbol
  _atom_site_label
  _atom_site_symmetry_multiplicity
  _atom_site_fract_x
  _atom_site_fract_y
  _atom_site_fract_z
  _atom_site_occupancy
  Zn  Zn1       1.0  0.5415  0.2808  0.23045  1.0000
  Zn  Zn2       1.0  0.47573999999999994  0.22653  0.35178  1.0000
  Zn  Zn3       1.0  0.34667  0.32039  0.30766  1.0000
  Zn  Zn4       1.0  0.45116  0.37576  0.35472  1.0000
  Zn  Zn5       1.0  0.45849  0.7192  0.76955  1.0000
  Zn  Zn6       1.0  0.5242600000000001  0.77347  0.64822  1.0000
  Zn  Zn7       1.0  0.6533199999999999  0.6796100000000002  0.69234  1.0000
  Zn  Zn8       1.0  0.54883  0.62423  0.64528  1.0000
  H   H1        1.0  0.58204  0.26638  0.74639  1.0000
  H   H2        1.0  0.47397999999999996  0.24602  0.96177  1.0000
  H   H3        1.0  0.62086  0.20277999999999993  0.9644699999999999  1.0000
  H   H4        1.0  0.7708699999999998  0.16448000000000002  0.90476  1.0000
  H   H5        1.0  0.82645  0.16515  0.7908599999999999  1.0000
  H   H6        1.0  0.7321599999999999  0.21011000000000002  0.73718  1.0000
  H   H7        1.0  0.39969999999999994  0.36718  0.99216  1.0000
  H   H8        1.0  0.36733999999999994  0.4738800000000001  0.95718  1.0000
  H   H9        1.0  0.4228699999999999  0.48464000000000007  0.84582  1.0000
  H   H10       1.0  0.51085  0.38926000000000005  0.7678400000000001  1.0000
  H   H11       1.0  0.4429199999999999  0.12942  0.69953  1.0000
  H   H12       1.0  0.3265199999999999  0.11237999999999997  0.9149799999999999  1.0000
  H   H13       1.0  0.39626000000000006  0.9892599999999999  0.8953899999999999  1.0000
  H   H14       1.0  0.49046999999999996  0.8933699999999999  0.8197100000000002  1.0000
  H   H15       1.0  0.55185  0.9021600000000001  0.70802  1.0000
  H   H16       1.0  0.51987  0.007560000000000002  0.67118  1.0000
  H   H17       1.0  0.1792  0.17928000000000002  0.92285  1.0000
  H   H18       1.0  0.08952  0.2374  0.86928  1.0000
  H   H19       1.0  0.14884000000000006  0.24029999999999999  0.7557399999999999  1.0000
  H   H20       1.0  0.29895999999999995  0.18937000000000004  0.69661  1.0000
  H   H21       1.0  0.4323499999999999  0.30788  0.7304  1.0000
  H   H22       1.0  0.38081  0.2578  0.72988  1.0000
  H   H23       1.0  0.34859999999999997  0.36585  0.66646  1.0000
  H   H24       1.0  0.36151  0.38291  0.55825  1.0000
  H   H25       1.0  0.5584300000000001  0.20234  0.49152  1.0000
  H   H26       1.0  0.5483  0.18642  0.59925  1.0000
  H   H27       1.0  0.48330999999999996  0.09163  0.94473  1.0000
  H   H28       1.0  0.38355  0.09463000000000003  0.9912500000000001  1.0000
  H   H29       1.0  0.30557  0.16342  0.0953  1.0000
  H   H30       1.0  0.30903  0.2231  0.18106  1.0000
  H   H31       1.0  0.56188  0.1864  0.0752  1.0000
  H   H32       1.0  0.55837  0.12759  0.98929  1.0000
  H   H33       1.0  0.06289999999999996  0.72313  0.29795  1.0000
  H   H34       1.0  0.9182099999999999  0.9325300000000001  0.26799  1.0000
  H   H35       1.0  0.7767699999999998  0.9275500000000001  0.33564  1.0000
  H   H36       1.0  0.70147  0.8658299999999999  0.4021  1.0000
  H   H37       1.0  0.77691  0.75742  0.41683  1.0000
  H   H38       1.0  0.9290500000000002  0.70927  0.36572  1.0000
  H   H39       1.0  0.9900199999999998  0.97984  0.31703  1.0000
  H   H40       1.0  0.09256999999999992  0.96046  0.36429  1.0000
  H   H41       1.0  0.16859  0.8524800000000001  0.37857999999999997  1.0000
  H   H42       1.0  0.14160999999999999  0.7620400000000002  0.34892  1.0000
  H   H43       1.0  0.1825  0.65568  0.060219999999999996  1.0000
  H   H44       1.0  0.04876999999999998  0.86795  0.03139  1.0000
  H   H45       1.0  0.9581599999999998  0.83681  0.98745  1.0000
  H   H46       1.0  0.9149599999999994  0.75216  0.96547  1.0000
  H   H47       1.0  0.9795099999999998  0.64374  0.9853  1.0000
  H   H48       1.0  0.08996000000000003  0.61701  0.02464  1.0000
  H   H49       1.0  0.1844  0.87311  0.95463  1.0000
  H   H50       1.0  0.33455  0.81758  0.89774  1.0000
  H   H51       1.0  0.4050199999999999  0.70873  0.9142000000000001  1.0000
  H   H52       1.0  0.32539000000000007  0.65227  0.98526  1.0000
  H   H53       1.0  0.19689  0.71541  0.22258000000000003  1.0000
  H   H54       1.0  0.2647599999999999  0.66821  0.15156  1.0000
  H   H55       1.0  0.16017000000000006  0.574  0.21380000000000002  1.0000
  H   H56       1.0  0.20622  0.48080000000000006  0.26637  1.0000
  H   H57       1.0  0.36226  0.55399  0.3059  1.0000
  H   H58       1.0  0.31837  0.64658  0.2517  1.0000
  H   H59       1.0  0.8823300000000001  0.88037  0.15638  1.0000
  H   H60       1.0  0.91409  0.91441  0.08778  1.0000
  H   H61       1.0  0.7480799999999999  0.9377400000000001  0.22231  1.0000
  H   H62       1.0  0.63167  0.04031  0.27121  1.0000
  H   H63       1.0  0.78058  0.13978  0.17034  1.0000
  H   H64       1.0  0.89852  0.03693  0.12229  1.0000
  H   H65       1.0  0.19819999999999988  0.98164  0.48348  1.0000
  H   H66       1.0  0.9621399999999999  0.14195  0.43391  1.0000
  H   H67       1.0  0.95  0.13548  0.32702  1.0000
  H   H68       1.0  0.88821  0.10088  0.2643  1.0000
  H   H69       1.0  0.8027500000000003  0.03921  0.30766  1.0000
  H   H70       1.0  0.21984999999999996  0.99119  0.58593  1.0000
  H   H71       1.0  0.8501699999999998  0.24191000000000001  0.51058  1.0000
  H   H72       1.0  0.71459  0.28886  0.5986  1.0000
  H   H73       1.0  0.63452  0.22254  0.64403  1.0000
  H   H74       1.0  0.31203999999999993  0.8894  0.39864  1.0000
  H   H75       1.0  0.014070000000000003  0.14957  0.53376  1.0000
  H   H76       1.0  0.09074000000000002  0.08715  0.54832  1.0000
  H   H77       1.0  0.23932999999999996  0.06921  0.48786  1.0000
  H   H78       1.0  0.3398599999999998  0.11880000000000002  0.43545  1.0000
  H   H79       1.0  0.14579000000000003  0.28387  0.42796  1.0000
  H   H80       1.0  0.04487000000000001  0.23503  0.48177  1.0000
  H   H81       1.0  0.93486  0.44544  0.14518  1.0000
  H   H82       1.0  0.8401599999999999  0.49417000000000005  0.9624799999999999  1.0000
  H   H83       1.0  0.8741  0.53424  0.23753  1.0000
  H   H84       1.0  0.88445  0.62696  0.2819  1.0000
  H   H85       1.0  0.0019600000000000663  0.65753  0.22622  1.0000
  H   H86       1.0  0.8912299999999997  0.4027800000000001  0.8735699999999998  1.0000
  H   H87       1.0  0.030890000000000004  0.33122  0.14374  1.0000
  H   H88       1.0  0.17377  0.25169  0.10779  1.0000
  H   H89       1.0  0.29016000000000003  0.28143  0.047439999999999996  1.0000
  H   H90       1.0  0.7348399999999998  0.60748  0.9738999999999999  1.0000
  H   H91       1.0  0.76313  0.55182  0.09995  1.0000
  H   H92       1.0  0.8246100000000001  0.52946  0.14394  1.0000
  H   H93       1.0  0.79604  0.40215  0.07902  1.0000
  H   H94       1.0  0.70061  0.35094  0.13596  1.0000
  H   H95       1.0  0.59953  0.48804  0.29512  1.0000
  H   H96       1.0  0.6906099999999998  0.54264  0.23651999999999998  1.0000
  H   H97       1.0  0.41794999999999993  0.73361  0.25361  1.0000
  H   H98       1.0  0.5260200000000002  0.75398  0.03823  1.0000
  H   H99       1.0  0.3791399999999999  0.7972100000000001  0.03553  1.0000
  H   H100      1.0  0.22912  0.83552  0.09524  1.0000
  H   H101      1.0  0.17354  0.83485  0.20915  1.0000
  H   H102      1.0  0.26782999999999996  0.7898900000000001  0.26282  1.0000
  H   H103      1.0  0.6002899999999999  0.63281  0.00784  1.0000
  H   H104      1.0  0.63265  0.52611  0.04281  1.0000
  H   H105      1.0  0.5771199999999999  0.51535  0.15417  1.0000
  H   H106      1.0  0.48914999999999986  0.61073  0.23216  1.0000
  H   H107      1.0  0.5570700000000001  0.8705699999999998  0.30048  1.0000
  H   H108      1.0  0.67348  0.88762  0.08502  1.0000
  H   H109      1.0  0.60373  0.01073  0.10461  1.0000
  H   H110      1.0  0.50951  0.10663  0.18029  1.0000
  H   H111      1.0  0.44814  0.09784  0.29198  1.0000
  H   H112      1.0  0.48012  0.99244  0.32882  1.0000
  H   H113      1.0  0.8207899999999998  0.82072  0.07715  1.0000
  H   H114      1.0  0.91047  0.7626000000000001  0.13072  1.0000
  H   H115      1.0  0.8511499999999999  0.7597000000000002  0.24426  1.0000
  H   H116      1.0  0.7010300000000002  0.81063  0.30339  1.0000
  H   H117      1.0  0.5676499999999999  0.69211  0.2696  1.0000
  H   H118      1.0  0.61918  0.74219  0.27012  1.0000
  H   H119      1.0  0.6514100000000002  0.63415  0.33354  1.0000
  H   H120      1.0  0.63851  0.61709  0.4417499999999999  1.0000
  H   H121      1.0  0.44157  0.79766  0.50848  1.0000
  H   H122      1.0  0.4517  0.81356  0.40075000000000005  1.0000
  H   H123      1.0  0.51669  0.90835  0.05527  1.0000
  H   H124      1.0  0.6164400000000001  0.90536  0.00876  1.0000
  H   H125      1.0  0.6944199999999999  0.83657  0.9046999999999998  1.0000
  H   H126      1.0  0.6909599999999999  0.77689  0.8189400000000001  1.0000
  H   H127      1.0  0.4381099999999996  0.81359  0.9248  1.0000
  H   H128      1.0  0.44162  0.8724000000000001  0.01072  1.0000
  H   H129      1.0  0.9370999999999999  0.27686  0.70205  1.0000
  H   H130      1.0  0.08178000000000002  0.06747000000000003  0.73201  1.0000
  H   H131      1.0  0.22322  0.07244  0.66436  1.0000
  H   H132      1.0  0.29851999999999995  0.13416  0.59791  1.0000
  H   H133      1.0  0.22308  0.24257  0.58317  1.0000
  H   H134      1.0  0.07094999999999997  0.29072  0.63428  1.0000
  H   H135      1.0  0.009969999999999972  0.020150000000000005  0.68297  1.0000
  H   H136      1.0  0.9074200000000001  0.03953  0.63571  1.0000
  H   H137      1.0  0.8313999999999999  0.14752  0.62142  1.0000
  H   H138      1.0  0.85839  0.23796  0.65108  1.0000
  H   H139      1.0  0.8174900000000002  0.34431999999999996  0.93978  1.0000
  H   H140      1.0  0.95122  0.13205  0.96861  1.0000
  H   H141      1.0  0.04181999999999999  0.16319  0.012549999999999999  1.0000
  H   H142      1.0  0.08503  0.24783  0.03453  1.0000
  H   H143      1.0  0.020479999999999998  0.35625  0.014700000000000001  1.0000
  H   H144      1.0  0.9100299999999999  0.38299000000000005  0.97537  1.0000
  H   H145      1.0  0.8155899999999999  0.12689  0.04537  1.0000
  H   H146      1.0  0.66544  0.18242  0.10227  1.0000
  H   H147      1.0  0.59497  0.29127  0.0858  1.0000
  H   H148      1.0  0.6746  0.34773  0.01474  1.0000
  H   H149      1.0  0.8031  0.28458  0.77742  1.0000
  H   H150      1.0  0.73523  0.33179  0.84844  1.0000
  H   H151      1.0  0.83982  0.42599999999999993  0.7862000000000001  1.0000
  H   H152      1.0  0.7937699999999999  0.5192  0.73364  1.0000
  H   H153      1.0  0.6377299999999999  0.44601  0.69411  1.0000
  H   H154      1.0  0.6816199999999999  0.35341  0.7483  1.0000
  H   H155      1.0  0.11765999999999993  0.11963000000000003  0.8436300000000001  1.0000
  H   H156      1.0  0.08589  0.08558  0.91223  1.0000
  H   H157      1.0  0.25189999999999996  0.06225  0.77769  1.0000
  H   H158      1.0  0.36833  0.9596900000000002  0.7288  1.0000
  H   H159      1.0  0.21940999999999994  0.8602100000000001  0.82966  1.0000
  H   H160      1.0  0.1014699999999999  0.9630700000000001  0.8777100000000001  1.0000
  H   H161      1.0  0.8017900000000001  0.018350000000000005  0.51652  1.0000
  H   H162      1.0  0.037849999999999974  0.85805  0.56609  1.0000
  H   H163      1.0  0.04998999999999998  0.86452  0.67298  1.0000
  H   H164      1.0  0.11177999999999988  0.89911  0.7357  1.0000
  H   H165      1.0  0.19723999999999994  0.9607900000000001  0.69234  1.0000
  H   H166      1.0  0.7801399999999998  0.00879999999999999  0.41407  1.0000
  H   H167      1.0  0.14982999999999994  0.75808  0.4894200000000001  1.0000
  H   H168      1.0  0.28540000000000004  0.71113  0.4014  1.0000
  H   H169      1.0  0.36548000000000014  0.7774600000000002  0.35598  1.0000
  H   H170      1.0  0.68795  0.11060000000000002  0.60136  1.0000
  H   H171      1.0  0.98592  0.85043  0.46624000000000004  1.0000
  H   H172      1.0  0.9092499999999999  0.91284  0.45168  1.0000
  H   H173      1.0  0.76067  0.9307900000000001  0.51214  1.0000
  H   H174      1.0  0.66013  0.8811899999999999  0.56455  1.0000
  H   H175      1.0  0.8542  0.71613  0.57204  1.0000
  H   H176      1.0  0.95512  0.76496  0.51823  1.0000
  H   H177      1.0  0.06513000000000006  0.55456  0.85482  1.0000
  H   H178      1.0  0.15983  0.50582  0.03752  1.0000
  H   H179      1.0  0.12588999999999986  0.4657600000000001  0.7624700000000001  1.0000
  H   H180      1.0  0.11555000000000008  0.37303  0.7181  1.0000
  H   H181      1.0  0.9980399999999999  0.34247  0.77378  1.0000
  H   H182      1.0  0.10876000000000001  0.59721  0.12644  1.0000
  H   H183      1.0  0.9691  0.66877  0.85626  1.0000
  H   H184      1.0  0.8262300000000001  0.74831  0.8922099999999998  1.0000
  H   H185      1.0  0.7098399999999999  0.71857  0.95257  1.0000
  H   H186      1.0  0.26514999999999994  0.3925100000000001  0.0261  1.0000
  H   H187      1.0  0.23685999999999993  0.44817  0.90005  1.0000
  H   H188      1.0  0.17538000000000004  0.47053000000000006  0.8560599999999999  1.0000
  H   H189      1.0  0.20395  0.59785  0.92098  1.0000
  H   H190      1.0  0.29938  0.64906  0.86404  1.0000
  H   H191      1.0  0.4004599999999999  0.51196  0.70488  1.0000
  H   H192      1.0  0.30937999999999993  0.45735000000000003  0.7634800000000002  1.0000
  C   C1        1.0  0.48605  0.19664000000000004  0.7683400000000001  1.0000
  C   C2        1.0  0.50534  0.22278999999999996  0.8106299999999999  1.0000
  C   C3        1.0  0.4748500000000001  0.21544999999999997  0.8735699999999998  1.0000
  C   C4        1.0  0.42488  0.18095000000000003  0.8943100000000002  1.0000
  C   C5        1.0  0.5573800000000002  0.2621299999999999  0.7957199999999999  1.0000
  C   C6        1.0  0.4990800000000001  0.25074  0.91261  1.0000
  C   C7        1.0  0.6238499999999999  0.23056  0.82048  1.0000
  C   C8        1.0  0.5923899999999999  0.22612  0.8841  1.0000
  C   C9        1.0  0.64497  0.20323  0.91473  1.0000
  C   C10       1.0  0.72961  0.18180999999999997  0.8809399999999998  1.0000
  C   C11       1.0  0.7608100000000001  0.18303  0.8171499999999999  1.0000
  C   C12       1.0  0.70771  0.20828999999999998  0.7867099999999999  1.0000
  C   C13       1.0  0.5033900000000002  0.32525999999999994  0.8363599999999999  1.0000
  C   C14       1.0  0.47155000000000014  0.31904  0.8995600000000001  1.0000
  C   C15       1.0  0.4229  0.37219  0.94323  1.0000
  C   C16       1.0  0.4052700000000001  0.43199000000000004  0.92347  1.0000
  C   C17       1.0  0.43665  0.43818  0.86073  1.0000
  C   C18       1.0  0.4860499999999999  0.38452  0.8167600000000002  1.0000
  C   C19       1.0  0.44135  0.15856000000000003  0.78831  1.0000
  C   C20       1.0  0.40953000000000006  0.15201  0.85118  1.0000
  C   C21       1.0  0.41592999999999997  0.12527000000000002  0.74869  1.0000
  C   C22       1.0  0.35335  0.11577  0.86565  1.0000
  C   C23       1.0  0.4402600000000001  0.05725  0.7625999999999998  1.0000
  C   C24       1.0  0.40567  0.05208999999999998  0.82581  1.0000
  C   C25       1.0  0.42316999999999994  0.99329  0.84649  1.0000
  C   C26       1.0  0.47622000000000003  0.9393099999999998  0.8037  1.0000
  C   C27       1.0  0.5110200000000001  0.9443300000000001  0.74093  1.0000
  C   C28       1.0  0.49277999999999994  0.0035499999999999954  0.72007  1.0000
  C   C29       1.0  0.3228599999999999  0.15519  0.77638  1.0000
  C   C30       1.0  0.2891099999999999  0.1512  0.83993  1.0000
  C   C31       1.0  0.20548000000000002  0.18078  0.8733899999999999  1.0000
  C   C32       1.0  0.15490000000000007  0.21366000000000002  0.84299  1.0000
  C   C33       1.0  0.18822  0.21591  0.77948  1.0000
  C   C34       1.0  0.27283999999999997  0.18686  0.74591  1.0000
  C   C35       1.0  0.43777  0.2655  0.70542  1.0000
  C   C36       1.0  0.44797999999999993  0.27482  0.63972  1.0000
  C   C37       1.0  0.3952300000000001  0.33029  0.62796  1.0000
  C   C38       1.0  0.40206  0.34011  0.56771  1.0000
  C   C39       1.0  0.46124  0.29383  0.51814  1.0000
  C   C40       1.0  0.51304  0.23807  0.53004  1.0000
  C   C41       1.0  0.5069899999999999  0.22896  0.59022  1.0000
  C   C42       1.0  0.46925  0.3017  0.45317  1.0000
  C   C43       1.0  0.4238899999999999  0.12082  0.98028  1.0000
  C   C44       1.0  0.43138  0.14275  0.03646  1.0000
  C   C45       1.0  0.36181  0.16803  0.09131  1.0000
  C   C46       1.0  0.36322000000000004  0.20151  0.13908  1.0000
  C   C47       1.0  0.4350299999999999  0.20947  0.1326  1.0000
  C   C48       1.0  0.5061799999999997  0.18089  0.07933  1.0000
  C   C49       1.0  0.50419  0.14769  0.03167  1.0000
  C   C50       1.0  0.43548  0.24878  0.18181  1.0000
  C   C51       1.0  0.10049000000000002  0.73373  0.17229  1.0000
  C   C52       1.0  0.04771000000000004  0.7796  0.22336999999999999  1.0000
  C   C53       1.0  0.00477999999999994  0.84086  0.21501  1.0000
  C   C54       1.0  0.014440000000000189  0.8571199999999998  0.15569  1.0000
  C   C55       1.0  0.02995999999999997  0.7711  0.2913  1.0000
  C   C56       1.0  0.95075  0.88484  0.27533  1.0000
  C   C57       1.0  0.9374699999999998  0.7919900000000001  0.32352  1.0000
  C   C58       1.0  0.89469  0.85355  0.31513  1.0000
  C   C59       1.0  0.8098199999999999  0.88021  0.34286  1.0000
  C   C60       1.0  0.7677099999999998  0.84521  0.37974  1.0000
  C   C61       1.0  0.8101599999999999  0.7839900000000001  0.38789  1.0000
  C   C62       1.0  0.89564  0.7569  0.35941  1.0000
  C   C63       1.0  0.05122  0.82053  0.31574  1.0000
  C   C64       1.0  0.008689999999999901  0.8819400000000001  0.30684  1.0000
  C   C65       1.0  0.022969999999999945  0.9325300000000001  0.32412  1.0000
  C   C66       1.0  0.08086999999999994  0.9213900000000002  0.35033  1.0000
  C   C67       1.0  0.1233  0.86051  0.35896  1.0000
  C   C68       1.0  0.10838000000000003  0.80953  0.34206  1.0000
  C   C69       1.0  0.10667999999999997  0.74915  0.11325000000000002  1.0000
  C   C70       1.0  0.06545999999999996  0.81088  0.10490999999999999  1.0000
  C   C71       1.0  0.15203000000000003  0.7040699999999999  0.053259999999999995  1.0000
  C   C72       1.0  0.07899999999999999  0.81919  0.03751  1.0000
  C   C73       1.0  0.08658000000000002  0.71155  0.027749999999999997  1.0000
  C   C74       1.0  0.048269999999999945  0.7736700000000001  0.01803  1.0000
  C   C75       1.0  0.9872200000000002  0.7887  0.99514  1.0000
  C   C76       1.0  0.9630200000000002  0.7413  0.98292  1.0000
  C   C77       1.0  0.9995400000000003  0.67998  0.99392  1.0000
  C   C78       1.0  0.06184000000000001  0.66485  0.01623  1.0000
  C   C79       1.0  0.21051  0.73103  0.00911  1.0000
  C   C80       1.0  0.17094  0.79337  0.0008  1.0000
  C   C81       1.0  0.21512999999999985  0.8249800000000002  0.96134  1.0000
  C   C82       1.0  0.29977999999999994  0.7938299999999999  0.92987  1.0000
  C   C83       1.0  0.33932  0.73216  0.93869  1.0000
  C   C84       1.0  0.2946399999999999  0.70039  0.9785700000000002  1.0000
  C   C85       1.0  0.21314999999999995  0.67124  0.19475  1.0000
  C   C86       1.0  0.23675000000000007  0.61604  0.22874  1.0000
  C   C87       1.0  0.20461999999999997  0.56954  0.23363  1.0000
  C   C88       1.0  0.22969  0.51769  0.26347  1.0000
  C   C89       1.0  0.28666  0.51172  0.28956  1.0000
  C   C90       1.0  0.31798  0.55891  0.28567  1.0000
  C   C91       1.0  0.2933199999999999  0.61045  0.25536  1.0000
  C   C92       1.0  0.31639  0.45387000000000005  0.31764  1.0000
  C   C93       1.0  0.89876  0.9198699999999999  0.1379  1.0000
  C   C94       1.0  0.8299300000000001  0.98124  0.16861  1.0000
  C   C95       1.0  0.75531  0.98196  0.21132  1.0000
  C   C96       1.0  0.6904  0.03898000000000001  0.23894000000000004  1.0000
  C   C97       1.0  0.69969  0.09569  0.22375000000000003  1.0000
  C   C98       1.0  0.77478  0.09522  0.18151  1.0000
  C   C99       1.0  0.8396599999999999  0.03812  0.15449  1.0000
  C   C100      1.0  0.6291200000000001  0.15619  0.25114  1.0000
  C   C101      1.0  0.04545999999999996  0.03818999999999999  0.47892  1.0000
  C   C102      1.0  0.07732999999999997  0.98169  0.50104  1.0000
  C   C103      1.0  0.9682899999999998  0.055739999999999984  0.47692999999999997  1.0000
  C   C104      1.0  0.16190999999999983  0.95326  0.50291  1.0000
  C   C105      1.0  0.92472  0.11425  0.45273  1.0000
  C   C106      1.0  0.14909999999999995  0.94361  0.56997  1.0000
  C   C107      1.0  0.89864  0.09223  0.40574  1.0000
  C   C108      1.0  0.9129399999999999  0.10788000000000002  0.34597  1.0000
  C   C109      1.0  0.8782099999999999  0.08836  0.31078  1.0000
  C   C110      1.0  0.8301700000000001  0.05327  0.33519  1.0000
  C   C111      1.0  0.18311  0.96336  0.60497  1.0000
  C   C112      1.0  0.20193999999999995  0.8864200000000001  0.46856999999999993  1.0000
  C   C113      1.0  0.8441100000000002  0.15053  0.50657  1.0000
  C   C114      1.0  0.8144799999999999  0.21348  0.53024  1.0000
  C   C115      1.0  0.73841  0.23963000000000004  0.57991  1.0000
  C   C116      1.0  0.6933899999999997  0.20268  0.60545  1.0000
  C   C117      1.0  0.2768699999999999  0.86071  0.41884  1.0000
  C   C118      1.0  0.07798  0.11645000000000001  0.51294  1.0000
  C   C119      1.0  0.13594999999999993  0.14902  0.48782  1.0000
  C   C120      1.0  0.21903  0.11643  0.47521  1.0000
  C   C121      1.0  0.27514000000000005  0.14358  0.4459699999999999  1.0000
  C   C122      1.0  0.24851  0.20386  0.42838  1.0000
  C   C123      1.0  0.16524  0.23725000000000002  0.44194000000000006  1.0000
  C   C124      1.0  0.10945  0.20985  0.47176  1.0000
  C   C125      1.0  0.30877  0.23142  0.39348999999999995  1.0000
  C   C126      1.0  0.93103  0.4854  0.03295  1.0000
  C   C127      1.0  0.9872000000000001  0.4819300000000001  0.05893000000000001  1.0000
  C   C128      1.0  0.98584  0.45988  0.12111  1.0000
  C   C129      1.0  0.9453299999999999  0.50232  0.9733900000000001  1.0000
  C   C130      1.0  0.8916199999999997  0.50782  0.93747  1.0000
  C   C131      1.0  0.9488099999999999  0.46769  0.87498  1.0000
  C   C132      1.0  0.9848999999999999  0.51479  0.15671  1.0000
  C   C133      1.0  0.9251  0.5482  0.21321999999999997  1.0000
  C   C134      1.0  0.93127  0.60002  0.23817  1.0000
  C   C135      1.0  0.99719  0.61734  0.20692000000000002  1.0000
  C   C136      1.0  0.9422700000000003  0.41676  0.84976  1.0000
  C   C137      1.0  0.8651699999999999  0.57642  0.9258900000000001  1.0000
  C   C138      1.0  0.06864000000000003  0.40625999999999995  0.10625  1.0000
  C   C139      1.0  0.08218999999999999  0.34466  0.11901999999999999  1.0000
  C   C140      1.0  0.16262  0.30002  0.09828  1.0000
  C   C141      1.0  0.22832999999999998  0.31687  0.06483  1.0000
  C   C142      1.0  0.7855399999999998  0.62083  0.94717  1.0000
  C   C143      1.0  0.8000500000000001  0.5112  0.11611  1.0000
  C   C144      1.0  0.7480699999999999  0.47678000000000004  0.15317  1.0000
  C   C145      1.0  0.7517000000000004  0.42189  0.12567  1.0000
  C   C146      1.0  0.69913  0.39274000000000003  0.15772  1.0000
  C   C147      1.0  0.64314  0.41709  0.21861  1.0000
  C   C148      1.0  0.6418799999999999  0.47031  0.24746999999999997  1.0000
  C   C149      1.0  0.69343  0.50028  0.21458999999999998  1.0000
  C   C150      1.0  0.58522  0.3862  0.25002  1.0000
  C   C151      1.0  0.5139499999999999  0.8033500000000001  0.23165999999999998  1.0000
  C   C152      1.0  0.4946499999999999  0.7772  0.18938000000000002  1.0000
  C   C153      1.0  0.52515  0.7845400000000001  0.12643  1.0000
  C   C154      1.0  0.5751199999999999  0.8190400000000001  0.10569  1.0000
  C   C155      1.0  0.44261  0.73786  0.20428  1.0000
  C   C156      1.0  0.5009199999999999  0.7492599999999999  0.08739  1.0000
  C   C157      1.0  0.37614999999999993  0.7694300000000001  0.17952  1.0000
  C   C158      1.0  0.4076000000000001  0.77387  0.11590000000000002  1.0000
  C   C159      1.0  0.35502999999999996  0.79676  0.08528  1.0000
  C   C160      1.0  0.27038  0.8181799999999999  0.11906  1.0000
  C   C161      1.0  0.23919  0.81696  0.18286  1.0000
  C   C162      1.0  0.29229  0.79171  0.2133  1.0000
  C   C163      1.0  0.49660999999999983  0.67473  0.16364  1.0000
  C   C164      1.0  0.52845  0.68096  0.10045  1.0000
  C   C165      1.0  0.5770900000000001  0.62781  0.05677  1.0000
  C   C166      1.0  0.5947200000000001  0.56801  0.07653  1.0000
  C   C167      1.0  0.56334  0.56181  0.13927  1.0000
  C   C168      1.0  0.51395  0.61547  0.18324  1.0000
  C   C169      1.0  0.55864  0.84143  0.21169  1.0000
  C   C170      1.0  0.5904700000000002  0.8479900000000001  0.14882  1.0000
  C   C171      1.0  0.5840599999999998  0.8747300000000001  0.25131  1.0000
  C   C172      1.0  0.6466399999999998  0.88423  0.13435  1.0000
  C   C173      1.0  0.55974  0.94275  0.23739999999999997  1.0000
  C   C174      1.0  0.5943199999999998  0.9479000000000001  0.17419  1.0000
  C   C175      1.0  0.57683  0.006709999999999999  0.15351  1.0000
  C   C176      1.0  0.52377  0.06069  0.1963  1.0000
  C   C177      1.0  0.48896999999999996  0.055670000000000004  0.25907  1.0000
  C   C178      1.0  0.5072100000000002  0.99645  0.27993  1.0000
  C   C179      1.0  0.6771300000000001  0.8447999999999999  0.22362  1.0000
  C   C180      1.0  0.71089  0.8487899999999999  0.16007  1.0000
  C   C181      1.0  0.7945099999999999  0.8192200000000001  0.12661  1.0000
  C   C182      1.0  0.84509  0.78634  0.15702  1.0000
  C   C183      1.0  0.8117699999999999  0.78409  0.22052  1.0000
  C   C184      1.0  0.7271499999999999  0.8131300000000001  0.25409  1.0000
  C   C185      1.0  0.5622199999999997  0.73449  0.29458  1.0000
  C   C186      1.0  0.5520199999999997  0.72518  0.36028  1.0000
  C   C187      1.0  0.6047800000000001  0.66971  0.3720399999999999  1.0000
  C   C188      1.0  0.59794  0.65989  0.43229  1.0000
  C   C189      1.0  0.53876  0.70617  0.48186  1.0000
  C   C190      1.0  0.4869500000000001  0.7619299999999999  0.46996  1.0000
  C   C191      1.0  0.49300999999999995  0.7710399999999998  0.40978  1.0000
  C   C192      1.0  0.5307499999999999  0.6983  0.54683  1.0000
  C   C193      1.0  0.57611  0.87917  0.01972  1.0000
  C   C194      1.0  0.5686199999999999  0.85725  0.96354  1.0000
  C   C195      1.0  0.6381800000000001  0.83196  0.9086899999999999  1.0000
  C   C196      1.0  0.6367699999999998  0.79848  0.8609200000000001  1.0000
  C   C197      1.0  0.56496  0.79053  0.8673999999999998  1.0000
  C   C198      1.0  0.49382  0.8191  0.92068  1.0000
  C   C199      1.0  0.49580999999999986  0.8523000000000001  0.96833  1.0000
  C   C200      1.0  0.5645099999999998  0.7512200000000001  0.81819  1.0000
  C   C201      1.0  0.8995  0.26626  0.8277100000000001  1.0000
  C   C202      1.0  0.9522799999999999  0.22040000000000004  0.77664  1.0000
  C   C203      1.0  0.99521  0.15913999999999998  0.7849899999999999  1.0000
  C   C204      1.0  0.9855399999999997  0.14288  0.84431  1.0000
  C   C205      1.0  0.97003  0.2289  0.7087  1.0000
  C   C206      1.0  0.04924000000000003  0.11515999999999998  0.72468  1.0000
  C   C207      1.0  0.06251999999999998  0.208  0.67649  1.0000
  C   C208      1.0  0.10529999999999999  0.14645  0.68488  1.0000
  C   C209      1.0  0.19016999999999998  0.11978  0.65715  1.0000
  C   C210      1.0  0.2322799999999998  0.15478  0.62026  1.0000
  C   C211      1.0  0.18983  0.216  0.61211  1.0000
  C   C212      1.0  0.10435999999999995  0.2431  0.64059  1.0000
  C   C213      1.0  0.94877  0.17947  0.68426  1.0000
  C   C214      1.0  0.9913  0.11806  0.69317  1.0000
  C   C215      1.0  0.9770199999999999  0.06747  0.67588  1.0000
  C   C216      1.0  0.9191299999999999  0.0786  0.64967  1.0000
  C   C217      1.0  0.8767000000000001  0.13948  0.64104  1.0000
  C   C218      1.0  0.8916199999999999  0.19046  0.65794  1.0000
  C   C219      1.0  0.8933100000000002  0.25084  0.88675  1.0000
  C   C220      1.0  0.9345299999999999  0.18911  0.8951  1.0000
  C   C221      1.0  0.8479700000000002  0.29593  0.94674  1.0000
  C   C222      1.0  0.92098  0.18081  0.96249  1.0000
  C   C223      1.0  0.9134099999999999  0.28845  0.9722599999999999  1.0000
  C   C224      1.0  0.95172  0.22632  0.98197  1.0000
  C   C225      1.0  0.012770000000000004  0.2113  0.00486  1.0000
  C   C226      1.0  0.03697000000000001  0.2587  0.01708  1.0000
  C   C227      1.0  0.0004600000000000008  0.32001  0.0060799999999999995  1.0000
  C   C228      1.0  0.93815  0.33514000000000005  0.98377  1.0000
  C   C229      1.0  0.7894700000000002  0.26897  0.9908899999999999  1.0000
  C   C230      1.0  0.8290400000000002  0.20663000000000004  0.9992  1.0000
  C   C231      1.0  0.78486  0.17502  0.03866  1.0000
  C   C232      1.0  0.70021  0.20617  0.07013  1.0000
  C   C233      1.0  0.66067  0.26784  0.061309999999999996  1.0000
  C   C234      1.0  0.70535  0.2996  0.02144  1.0000
  C   C235      1.0  0.7868499999999999  0.32876  0.80525  1.0000
  C   C236      1.0  0.76324  0.38396  0.77126  1.0000
  C   C237      1.0  0.79537  0.43046  0.7663800000000001  1.0000
  C   C238      1.0  0.7702999999999999  0.48231  0.73654  1.0000
  C   C239      1.0  0.71333  0.48828  0.71044  1.0000
  C   C240      1.0  0.6820099999999999  0.44109000000000004  0.71433  1.0000
  C   C241      1.0  0.7066699999999998  0.38955  0.7446400000000001  1.0000
  C   C242      1.0  0.68361  0.54612  0.68236  1.0000
  C   C243      1.0  0.10122999999999993  0.08013000000000002  0.8621100000000002  1.0000
  C   C244      1.0  0.17006000000000002  0.018759999999999992  0.83139  1.0000
  C   C245      1.0  0.24467000000000008  0.01803999999999997  0.7886799999999999  1.0000
  C   C246      1.0  0.30958999999999987  0.96101  0.76106  1.0000
  C   C247      1.0  0.30029999999999996  0.9043000000000001  0.7762499999999999  1.0000
  C   C248      1.0  0.22520999999999983  0.90478  0.8184900000000002  1.0000
  C   C249      1.0  0.16033999999999993  0.96187  0.8455099999999999  1.0000
  C   C250      1.0  0.37086999999999987  0.8438  0.7488700000000001  1.0000
  C   C251      1.0  0.9545299999999999  0.9618  0.52108  1.0000
  C   C252      1.0  0.9226699999999999  0.018310000000000003  0.49896  1.0000
  C   C253      1.0  0.03169999999999997  0.9442500000000001  0.52306  1.0000
  C   C254      1.0  0.8380900000000002  0.04672999999999999  0.4970899999999999  1.0000
  C   C255      1.0  0.07527  0.8857400000000001  0.54727  1.0000
  C   C256      1.0  0.85089  0.05638  0.43002999999999997  1.0000
  C   C257      1.0  0.10136000000000009  0.90777  0.59426  1.0000
  C   C258      1.0  0.08704999999999995  0.89211  0.65403  1.0000
  C   C259      1.0  0.12177999999999997  0.91164  0.68922  1.0000
  C   C260      1.0  0.16982  0.9467200000000001  0.66481  1.0000
  C   C261      1.0  0.81689  0.03664  0.39503  1.0000
  C   C262      1.0  0.7980500000000001  0.11358  0.53143  1.0000
  C   C263      1.0  0.15588  0.8494700000000001  0.49343  1.0000
  C   C264      1.0  0.1855100000000001  0.7865199999999999  0.46975999999999996  1.0000
  C   C265      1.0  0.26158000000000003  0.76036  0.42009  1.0000
  C   C266      1.0  0.30660000000000004  0.79731  0.39455  1.0000
  C   C267      1.0  0.7231200000000003  0.13929  0.58116  1.0000
  C   C268      1.0  0.9220099999999999  0.88355  0.48706  1.0000
  C   C269      1.0  0.86404  0.85098  0.51218  1.0000
  C   C270      1.0  0.78097  0.88356  0.52478  1.0000
  C   C271      1.0  0.7248500000000001  0.8564200000000001  0.55403  1.0000
  C   C272      1.0  0.7514899999999999  0.79614  0.57161  1.0000
  C   C273      1.0  0.83476  0.76274  0.55806  1.0000
  C   C274      1.0  0.8905399999999998  0.7901400000000001  0.52824  1.0000
  C   C275      1.0  0.6912200000000001  0.76858  0.60651  1.0000
  C   C276      1.0  0.06896000000000004  0.5145999999999998  0.96705  1.0000
  C   C277      1.0  0.012789999999999918  0.51806  0.9410700000000001  1.0000
  C   C278      1.0  0.014149999999999949  0.54012  0.87889  1.0000
  C   C279      1.0  0.05465999999999998  0.49768  0.02661  1.0000
  C   C280      1.0  0.10836999999999995  0.49217000000000005  0.06253  1.0000
  C   C281      1.0  0.05118000000000002  0.53231  0.12502  1.0000
  C   C282      1.0  0.015090000000000015  0.48521  0.84329  1.0000
  C   C283      1.0  0.07489000000000005  0.4518  0.78678  1.0000
  C   C284      1.0  0.06872000000000006  0.39998  0.76183  1.0000
  C   C285      1.0  0.0027999999999999484  0.38266  0.79308  1.0000
  C   C286      1.0  0.05772999999999992  0.58324  0.15024  1.0000
  C   C287      1.0  0.13483  0.42358  0.07411  1.0000
  C   C288      1.0  0.9313499999999999  0.59374  0.8937499999999999  1.0000
  C   C289      1.0  0.9178  0.65534  0.88098  1.0000
  C   C290      1.0  0.8373799999999999  0.69998  0.9017199999999999  1.0000
  C   C291      1.0  0.7716699999999999  0.68313  0.9351699999999998  1.0000
  C   C292      1.0  0.21444999999999997  0.37917  0.05283  1.0000
  C   C293      1.0  0.19994999999999996  0.4888  0.8838899999999998  1.0000
  C   C294      1.0  0.2519200000000001  0.5232099999999998  0.84683  1.0000
  C   C295      1.0  0.24828999999999998  0.5781  0.87433  1.0000
  C   C296      1.0  0.30087  0.60726  0.84228  1.0000
  C   C297      1.0  0.35685  0.5829  0.78139  1.0000
  C   C298      1.0  0.35812  0.52969  0.75253  1.0000
  C   C299      1.0  0.3065699999999999  0.49972  0.78541  1.0000
  C   C300      1.0  0.4147700000000001  0.61379  0.7499799999999999  1.0000
  O   O1        1.0  0.45216  0.30292  0.31192  1.0000
  O   O2        1.0  0.5057999999999999  0.21184  0.70798  1.0000
  O   O3        1.0  0.50783  0.25129  0.41468999999999995  1.0000
  O   O4        1.0  0.438  0.35735  0.44023999999999996  1.0000
  O   O5        1.0  0.38667000000000007  0.17875  0.95692  1.0000
  O   O6        1.0  0.36854000000000003  0.27402  0.22876000000000002  1.0000
  O   O7        1.0  0.50328  0.25423  0.1721  1.0000
  O   O8        1.0  0.14507999999999996  0.67347  0.18012  1.0000
  O   O9        1.0  0.28947000000000006  0.41108000000000006  0.31394  1.0000
  O   O10       1.0  0.36645999999999995  0.45084  0.34269  1.0000
  O   O11       1.0  0.9703299999999999  0.91761  0.14833  1.0000
  O   O12       1.0  0.63588  0.20585000000000003  0.22832000000000002  1.0000
  O   O13       1.0  0.56585  0.15414  0.2951  1.0000
  O   O14       1.0  0.08937999999999996  0.0765  0.45997  1.0000
  O   O15       1.0  0.38317  0.20043  0.38637999999999995  1.0000
  O   O16       1.0  0.28208  0.28311  0.3726  1.0000
  O   O17       1.0  0.86527  0.46833  0.06303  1.0000
  O   O18       1.0  0.54845  0.39691  0.30888  1.0000
  O   O19       1.0  0.57646  0.35106  0.21381  1.0000
  O   O20       1.0  0.54783  0.69708  0.68808  1.0000
  O   O21       1.0  0.4941999999999999  0.78815  0.29202  1.0000
  O   O22       1.0  0.49215999999999993  0.7487100000000001  0.58532  1.0000
  O   O23       1.0  0.562  0.64265  0.55976  1.0000
  O   O24       1.0  0.61333  0.82124  0.04308  1.0000
  O   O25       1.0  0.63145  0.72598  0.77124  1.0000
  O   O26       1.0  0.49672  0.74576  0.8279  1.0000
  O   O27       1.0  0.8549099999999997  0.3265299999999999  0.81988  1.0000
  O   O28       1.0  0.71052  0.58892  0.68606  1.0000
  O   O29       1.0  0.63354  0.54916  0.65731  1.0000
  O   O30       1.0  0.029649999999999902  0.08239000000000002  0.8516800000000001  1.0000
  O   O31       1.0  0.36411  0.79415  0.7717  1.0000
  O   O32       1.0  0.43413999999999997  0.8458499999999999  0.70491  1.0000
  O   O33       1.0  0.91061  0.9235  0.54003  1.0000
  O   O34       1.0  0.6168200000000001  0.79957  0.61362  1.0000
  O   O35       1.0  0.7179099999999999  0.71688  0.6274  1.0000
  O   O36       1.0  0.13472000000000003  0.53167  0.93697  1.0000
  O   O37       1.0  0.45156  0.60308  0.69112  1.0000
  O   O38       1.0  0.42353000000000013  0.6489399999999999  0.78619  1.0000
