data_image0
_chemical_formula_structural       Zn24H132C144N108O24
_chemical_formula_sum              "Zn24 H132 C144 N108 O24"
_cell_length_a       18.11863
_cell_length_b       27.26373
_cell_length_c       27.26367
_cell_angle_alpha    119.96098
_cell_angle_beta     90.0
_cell_angle_gamma    90.0

_symmetry_space_group_name_H-M    'P 1'
_symmetry_Int_Tables_number       1

loop_
  _symmetry_equiv_pos_as_xyz
  'x,y,z'

loop_
  _atom_site_type_symbol
  _atom_site_label
  _atom_site_symmetry_multiplicity
  _atom_site_fract_x
  _atom_site_fract_y
  _atom_site_fract_z
  _atom_site_occupancy
  Zn  Zn1       1.0  0.5795  0.44502  0.11194999999999997  1.0000
  Zn  Zn2       1.0  0.57946  0.66688  0.55486  1.0000
  Zn  Zn3       1.0  0.57949  0.8879299999999999  0.33306  1.0000
  Zn  Zn4       1.0  0.07922999999999998  0.55495  0.8880399999999999  1.0000
  Zn  Zn5       1.0  0.07919999999999999  0.33312  0.4451699999999999  1.0000
  Zn  Zn6       1.0  0.07922  0.11209000000000006  0.66693  1.0000
  Zn  Zn7       1.0  0.42053999999999997  0.55486  0.66689  1.0000
  Zn  Zn8       1.0  0.42051  0.33306  0.88794  1.0000
  Zn  Zn9       1.0  0.4205  0.11194999999999997  0.44501999999999997  1.0000
  Zn  Zn10      1.0  0.9208000000000001  0.44517  0.33311999999999997  1.0000
  Zn  Zn11      1.0  0.9207699999999999  0.66693  0.11208999999999997  1.0000
  Zn  Zn12      1.0  0.92076  0.88803  0.5549499999999999  1.0000
  Zn  Zn13      1.0  0.4205  0.5549799999999999  0.8880599999999998  1.0000
  Zn  Zn14      1.0  0.42053999999999997  0.33312  0.44513999999999987  1.0000
  Zn  Zn15      1.0  0.42051  0.11207000000000002  0.66694  1.0000
  Zn  Zn16      1.0  0.92076  0.44505  0.11197  1.0000
  Zn  Zn17      1.0  0.9208000000000001  0.66688  0.55483  1.0000
  Zn  Zn18      1.0  0.9207699999999999  0.8879100000000001  0.33307  1.0000
  Zn  Zn19      1.0  0.57946  0.44514  0.33311999999999997  1.0000
  Zn  Zn20      1.0  0.57949  0.66694  0.11206999999999998  1.0000
  Zn  Zn21      1.0  0.5795  0.88805  0.5549799999999999  1.0000
  Zn  Zn22      1.0  0.07919999999999999  0.55483  0.66688  1.0000
  Zn  Zn23      1.0  0.07922  0.33307  0.88791  1.0000
  Zn  Zn24      1.0  0.07922999999999998  0.11196999999999997  0.44504999999999995  1.0000
  H   H1        1.0  0.44166  0.3974  0.14772999999999997  1.0000
  H   H2        1.0  0.67277  0.34536  0.01166  1.0000
  H   H3        1.0  0.43021999999999994  0.50592  0.11351999999999997  1.0000
  H   H4        1.0  0.5321  0.30842  0.05314999999999999  1.0000
  H   H5        1.0  0.44160000000000005  0.75059  0.60287  1.0000
  H   H6        1.0  0.67288  0.66643  0.65487  1.0000
  H   H7        1.0  0.43003  0.60744  0.49406  1.0000
  H   H8        1.0  0.53221  0.7447600000000001  0.69144  1.0000
  H   H9        1.0  0.44151  0.85218  0.24946999999999994  1.0000
  H   H10       1.0  0.67287  0.98844  0.33365999999999996  1.0000
  H   H11       1.0  0.43024999999999997  0.88677  0.39257  1.0000
  H   H12       1.0  0.5323  0.94665  0.25538  1.0000
  H   H13       1.0  0.94163  0.6026  0.85226  1.0000
  H   H14       1.0  0.17271  0.6544999999999999  0.9882  1.0000
  H   H15       1.0  0.9300899999999999  0.49407999999999996  0.8864999999999998  1.0000
  H   H16       1.0  0.03199  0.69159  0.9468299999999998  1.0000
  H   H17       1.0  0.9415700000000001  0.24939999999999996  0.39712999999999987  1.0000
  H   H18       1.0  0.17285  0.33357  0.34526  1.0000
  H   H19       1.0  0.9298999999999998  0.39257  0.50594  1.0000
  H   H20       1.0  0.0321  0.2552  0.30856  1.0000
  H   H21       1.0  0.9414899999999999  0.14783000000000002  0.75054  1.0000
  H   H22       1.0  0.17285  0.011690000000000037  0.66634  1.0000
  H   H23       1.0  0.93013  0.11320999999999999  0.60742  1.0000
  H   H24       1.0  0.0322  0.053379999999999955  0.74466  1.0000
  H   H25       1.0  0.5583999999999999  0.60287  0.7505999999999999  1.0000
  H   H26       1.0  0.32712  0.65487  0.66643  1.0000
  H   H27       1.0  0.56997  0.49405999999999994  0.6074499999999999  1.0000
  H   H28       1.0  0.46779  0.6914399999999999  0.7447699999999999  1.0000
  H   H29       1.0  0.55849  0.24947  0.85218  1.0000
  H   H30       1.0  0.3271299999999999  0.33365999999999996  0.9884399999999998  1.0000
  H   H31       1.0  0.56974  0.39257  0.88678  1.0000
  H   H32       1.0  0.4677  0.25539000000000006  0.94666  1.0000
  H   H33       1.0  0.55833  0.14772999999999994  0.3974099999999999  1.0000
  H   H34       1.0  0.32723  0.011659999999999955  0.34536999999999995  1.0000
  H   H35       1.0  0.56978  0.11351999999999997  0.5059199999999999  1.0000
  H   H36       1.0  0.4678999999999999  0.05315  0.30841999999999997  1.0000
  H   H37       1.0  0.05841999999999999  0.39713  0.24939999999999998  1.0000
  H   H38       1.0  0.8271399999999999  0.34525999999999996  0.3335699999999999  1.0000
  H   H39       1.0  0.0701  0.50593  0.39257  1.0000
  H   H40       1.0  0.9678999999999999  0.30855  0.2552  1.0000
  H   H41       1.0  0.05851  0.75053  0.14783  1.0000
  H   H42       1.0  0.8271399999999999  0.66634  0.01169  1.0000
  H   H43       1.0  0.06987  0.60742  0.11319999999999997  1.0000
  H   H44       1.0  0.9677999999999999  0.74466  0.05337999999999999  1.0000
  H   H45       1.0  0.05836  0.85226  0.6026  1.0000
  H   H46       1.0  0.82729  0.9881999999999999  0.6544999999999999  1.0000
  H   H47       1.0  0.06990999999999999  0.8864999999999998  0.49407999999999996  1.0000
  H   H48       1.0  0.9680099999999999  0.94682  0.69159  1.0000
  H   H49       1.0  0.55833  0.6026  0.85227  1.0000
  H   H50       1.0  0.32723  0.65464  0.9883399999999998  1.0000
  H   H51       1.0  0.56978  0.49407999999999996  0.8864899999999999  1.0000
  H   H52       1.0  0.4678999999999999  0.69158  0.9468599999999998  1.0000
  H   H53       1.0  0.5583999999999999  0.2494099999999999  0.39712999999999987  1.0000
  H   H54       1.0  0.32712  0.33357  0.34513999999999995  1.0000
  H   H55       1.0  0.56997  0.39255  0.50594  1.0000
  H   H56       1.0  0.46779  0.25524  0.30856  1.0000
  H   H57       1.0  0.55849  0.14781999999999998  0.7505299999999999  1.0000
  H   H58       1.0  0.3271299999999999  0.011560000000000029  0.66635  1.0000
  H   H59       1.0  0.56974  0.11323000000000007  0.60744  1.0000
  H   H60       1.0  0.4677  0.05335000000000001  0.74462  1.0000
  H   H61       1.0  0.05836  0.3974  0.14774  1.0000
  H   H62       1.0  0.82729  0.3455  0.0118  1.0000
  H   H63       1.0  0.06990999999999999  0.50592  0.11349999999999999  1.0000
  H   H64       1.0  0.9680099999999999  0.30841  0.05317999999999999  1.0000
  H   H65       1.0  0.05841999999999999  0.7505999999999999  0.60287  1.0000
  H   H66       1.0  0.8271399999999999  0.66643  0.6547399999999999  1.0000
  H   H67       1.0  0.0701  0.60743  0.49407  1.0000
  H   H68       1.0  0.9678999999999999  0.7447999999999999  0.6914499999999998  1.0000
  H   H69       1.0  0.05851  0.85217  0.24945999999999993  1.0000
  H   H70       1.0  0.8271399999999999  0.9883099999999999  0.33365999999999996  1.0000
  H   H71       1.0  0.06987  0.88679  0.39258  1.0000
  H   H72       1.0  0.9677999999999999  0.94662  0.25534  1.0000
  H   H73       1.0  0.44160000000000005  0.39713  0.24941  1.0000
  H   H74       1.0  0.67288  0.34513  0.3335699999999999  1.0000
  H   H75       1.0  0.43003  0.50594  0.39255999999999996  1.0000
  H   H76       1.0  0.53221  0.30856  0.25524  1.0000
  H   H77       1.0  0.44151  0.75053  0.14782  1.0000
  H   H78       1.0  0.67287  0.66634  0.01156  1.0000
  H   H79       1.0  0.43024999999999997  0.60743  0.11323  1.0000
  H   H80       1.0  0.5323  0.74461  0.05333999999999999  1.0000
  H   H81       1.0  0.44166  0.85227  0.6026  1.0000
  H   H82       1.0  0.67277  0.98834  0.65464  1.0000
  H   H83       1.0  0.43021999999999994  0.8864799999999998  0.49407999999999996  1.0000
  H   H84       1.0  0.5321  0.94685  0.69158  1.0000
  H   H85       1.0  0.9415700000000001  0.60287  0.7505999999999999  1.0000
  H   H86       1.0  0.17285  0.65474  0.66643  1.0000
  H   H87       1.0  0.9298999999999998  0.49406999999999995  0.6074299999999999  1.0000
  H   H88       1.0  0.0321  0.6914499999999999  0.7447999999999999  1.0000
  H   H89       1.0  0.9414899999999999  0.24947  0.85218  1.0000
  H   H90       1.0  0.17285  0.33365999999999996  0.9883199999999999  1.0000
  H   H91       1.0  0.93013  0.39258  0.8868  1.0000
  H   H92       1.0  0.0322  0.25534000000000007  0.94662  1.0000
  H   H93       1.0  0.94163  0.14773999999999995  0.39739999999999986  1.0000
  H   H94       1.0  0.17271  0.011799999999999937  0.34549999999999986  1.0000
  H   H95       1.0  0.9300899999999999  0.11349999999999998  0.5059199999999999  1.0000
  H   H96       1.0  0.03199  0.053180000000000005  0.30841  1.0000
  H   H97       1.0  0.63847  0.47172999999999987  0.23593999999999996  1.0000
  H   H98       1.0  0.63847  0.76406  0.52827  1.0000
  H   H99       1.0  0.63838  0.76406  0.23593999999999996  1.0000
  H   H100      1.0  0.13839  0.52814  0.76401  1.0000
  H   H101      1.0  0.13839  0.23599999999999993  0.47185999999999995  1.0000
  H   H102      1.0  0.13831999999999997  0.2359999999999999  0.764  1.0000
  H   H103      1.0  0.36153  0.52827  0.76407  1.0000
  H   H104      1.0  0.36160999999999993  0.23594  0.76406  1.0000
  H   H105      1.0  0.36153  0.23594  0.47174  1.0000
  H   H106      1.0  0.86161  0.47186  0.236  1.0000
  H   H107      1.0  0.8616799999999999  0.7639999999999999  0.236  1.0000
  H   H108      1.0  0.86161  0.7639999999999999  0.5281399999999999  1.0000
  H   H109      1.0  0.64964  0.55673  0.11357999999999997  1.0000
  H   H110      1.0  0.6494899999999999  0.5568  0.4432  1.0000
  H   H111      1.0  0.64964  0.88642  0.44326999999999994  1.0000
  H   H112      1.0  0.14955999999999997  0.44327  0.88642  1.0000
  H   H113      1.0  0.1494  0.4432  0.5568  1.0000
  H   H114      1.0  0.14955999999999997  0.11358  0.55673  1.0000
  H   H115      1.0  0.35051  0.4432  0.5568  1.0000
  H   H116      1.0  0.35036  0.44326999999999994  0.8864299999999999  1.0000
  H   H117      1.0  0.35036  0.11358  0.55673  1.0000
  H   H118      1.0  0.85059  0.5568  0.4432  1.0000
  H   H119      1.0  0.8504399999999999  0.55673  0.11357999999999997  1.0000
  H   H120      1.0  0.8504399999999999  0.88642  0.44326999999999994  1.0000
  H   H121      1.0  0.50001  0.4279  0.00010999999999999999  1.0000
  H   H122      1.0  0.5  0.57237  0.57237  1.0000
  H   H123      1.0  0.49998999999999993  0.00010999999999999773  0.42791  1.0000
  H   H124      1.0  0.0  0.5721099999999999  0.9998899999999998  1.0000
  H   H125      1.0  0.0  0.42762  0.4276199999999999  1.0000
  H   H126      1.0  0.0  0.9999000000000001  0.57211  1.0000
  H   H127      1.0  0.49998999999999993  0.5720899999999999  0.9998899999999998  1.0000
  H   H128      1.0  0.5  0.42763  0.42763  1.0000
  H   H129      1.0  0.50001  0.9998900000000001  0.5721  1.0000
  H   H130      1.0  0.9999899999999999  0.42789  0.00010999999999999999  1.0000
  H   H131      1.0  0.0  0.57238  0.57238  1.0000
  H   H132      1.0  1e-05  0.00010999999999996515  0.4278899999999999  1.0000
  C   C1        1.0  0.48288  0.41216999999999987  0.18081999999999998  1.0000
  C   C2        1.0  0.71152  0.37572  0.04184  1.0000
  C   C3        1.0  0.4758299999999999  0.53112  0.11271999999999997  1.0000
  C   C4        1.0  0.51616  0.32549  0.026359999999999995  1.0000
  C   C5        1.0  0.48284  0.7687599999999999  0.58793  1.0000
  C   C6        1.0  0.7115  0.6661999999999999  0.62439  1.0000
  C   C7        1.0  0.47568  0.58155  0.46887  1.0000
  C   C8        1.0  0.51622  0.70097  0.67453  1.0000
  C   C9        1.0  0.4828  0.81914  0.2313  1.0000
  C   C10       1.0  0.7115  0.95818  0.33386  1.0000
  C   C11       1.0  0.47585  0.8873599999999999  0.41848  1.0000
  C   C12       1.0  0.51627  0.97352  0.29916999999999994  1.0000
  C   C13       1.0  0.98284  0.58781  0.81917  1.0000
  C   C14       1.0  0.21148999999999998  0.62419  0.95808  1.0000
  C   C15       1.0  0.9757000000000001  0.46889000000000003  0.8873  1.0000
  C   C16       1.0  0.01615  0.6745299999999999  0.9736399999999998  1.0000
  C   C17       1.0  0.9827999999999999  0.23124999999999993  0.4120899999999999  1.0000
  C   C18       1.0  0.2115  0.33381  0.37569  1.0000
  C   C19       1.0  0.97555  0.4184699999999999  0.5311199999999999  1.0000
  C   C20       1.0  0.01621  0.29900999999999994  0.32545999999999997  1.0000
  C   C21       1.0  0.98277  0.18087  0.76869  1.0000
  C   C22       1.0  0.21151  0.04189000000000004  0.66614  1.0000
  C   C23       1.0  0.9757199999999999  0.11261999999999994  0.5815099999999999  1.0000
  C   C24       1.0  0.01626  0.026489999999999896  0.7008599999999998  1.0000
  C   C25       1.0  0.51716  0.58793  0.76876  1.0000
  C   C26       1.0  0.2884999999999999  0.6243899999999999  0.6661999999999999  1.0000
  C   C27       1.0  0.52431  0.46887  0.58155  1.0000
  C   C28       1.0  0.48377999999999993  0.6745199999999999  0.7009699999999998  1.0000
  C   C29       1.0  0.5172  0.23130000000000006  0.81915  1.0000
  C   C30       1.0  0.2884999999999999  0.33386000000000005  0.95819  1.0000
  C   C31       1.0  0.5241499999999999  0.4184800000000001  0.88736  1.0000
  C   C32       1.0  0.48372999999999994  0.29916999999999994  0.9735199999999999  1.0000
  C   C33       1.0  0.51711  0.18082  0.41217  1.0000
  C   C34       1.0  0.28848  0.04183999999999999  0.37573  1.0000
  C   C35       1.0  0.52417  0.11271999999999993  0.5311199999999999  1.0000
  C   C36       1.0  0.48384  0.026369999999999942  0.32548999999999995  1.0000
  C   C37       1.0  0.017199999999999997  0.41209000000000007  0.23125  1.0000
  C   C38       1.0  0.78849  0.37569  0.33380999999999994  1.0000
  C   C39       1.0  0.02444  0.53112  0.41847  1.0000
  C   C40       1.0  0.98379  0.32545999999999997  0.29901999999999995  1.0000
  C   C41       1.0  0.01723  0.76869  0.18086999999999995  1.0000
  C   C42       1.0  0.78849  0.66613  0.04188999999999999  1.0000
  C   C43       1.0  0.02428  0.58151  0.11262  1.0000
  C   C44       1.0  0.98373  0.70085  0.026479999999999993  1.0000
  C   C45       1.0  0.01716  0.81917  0.58781  1.0000
  C   C46       1.0  0.78851  0.95808  0.6241899999999999  1.0000
  C   C47       1.0  0.02429  0.88729  0.46889  1.0000
  C   C48       1.0  0.9838499999999999  0.9736300000000002  0.67453  1.0000
  C   C49       1.0  0.51711  0.58783  0.81919  1.0000
  C   C50       1.0  0.28848  0.62427  0.95816  1.0000
  C   C51       1.0  0.52417  0.46888  0.8872799999999997  1.0000
  C   C52       1.0  0.48384  0.6745099999999998  0.9736399999999998  1.0000
  C   C53       1.0  0.51716  0.23123999999999992  0.4120699999999999  1.0000
  C   C54       1.0  0.2884999999999999  0.3337999999999999  0.3756099999999999  1.0000
  C   C55       1.0  0.52431  0.4184499999999999  0.5311299999999999  1.0000
  C   C56       1.0  0.48377999999999993  0.29903  0.32548  1.0000
  C   C57       1.0  0.5172  0.18085999999999994  0.7687  1.0000
  C   C58       1.0  0.2884999999999999  0.04182000000000006  0.66614  1.0000
  C   C59       1.0  0.5241499999999999  0.11264000000000002  0.58152  1.0000
  C   C60       1.0  0.48372999999999994  0.026479999999999955  0.7008299999999998  1.0000
  C   C61       1.0  0.01716  0.41218999999999995  0.18082999999999996  1.0000
  C   C62       1.0  0.78851  0.37581  0.04191999999999999  1.0000
  C   C63       1.0  0.02429  0.53111  0.1127  1.0000
  C   C64       1.0  0.9838499999999999  0.32547  0.026359999999999995  1.0000
  C   C65       1.0  0.017199999999999997  0.76875  0.58791  1.0000
  C   C66       1.0  0.78849  0.6661899999999998  0.6243199999999999  1.0000
  C   C67       1.0  0.02444  0.58153  0.46888  1.0000
  C   C68       1.0  0.98379  0.70098  0.67454  1.0000
  C   C69       1.0  0.01723  0.81913  0.23131  1.0000
  C   C70       1.0  0.78849  0.95811  0.33386  1.0000
  C   C71       1.0  0.02428  0.88738  0.41849  1.0000
  C   C72       1.0  0.98373  0.9735099999999999  0.29915  1.0000
  C   C73       1.0  0.48284  0.41207  0.23123999999999995  1.0000
  C   C74       1.0  0.7115  0.37561  0.33379999999999993  1.0000
  C   C75       1.0  0.47568  0.53113  0.4184499999999999  1.0000
  C   C76       1.0  0.51622  0.32547  0.2990399999999999  1.0000
  C   C77       1.0  0.4828  0.7687  0.18085999999999994  1.0000
  C   C78       1.0  0.7115  0.66614  0.04181  1.0000
  C   C79       1.0  0.47585  0.58152  0.11263999999999999  1.0000
  C   C80       1.0  0.51627  0.70083  0.026479999999999993  1.0000
  C   C81       1.0  0.48288  0.81918  0.5878299999999999  1.0000
  C   C82       1.0  0.71152  0.9581599999999999  0.6242799999999998  1.0000
  C   C83       1.0  0.4758299999999999  0.88728  0.46888  1.0000
  C   C84       1.0  0.51616  0.97363  0.67451  1.0000
  C   C85       1.0  0.9827999999999999  0.58791  0.76875  1.0000
  C   C86       1.0  0.2115  0.62431  0.66619  1.0000
  C   C87       1.0  0.97555  0.4688799999999999  0.5815399999999998  1.0000
  C   C88       1.0  0.01621  0.67454  0.70099  1.0000
  C   C89       1.0  0.98277  0.23131  0.81913  1.0000
  C   C90       1.0  0.21151  0.3338699999999999  0.9581199999999997  1.0000
  C   C91       1.0  0.9757199999999999  0.41849  0.88738  1.0000
  C   C92       1.0  0.01626  0.29914999999999997  0.9735199999999999  1.0000
  C   C93       1.0  0.98284  0.18083000000000002  0.41219  1.0000
  C   C94       1.0  0.21148999999999998  0.04191999999999997  0.37581  1.0000
  C   C95       1.0  0.9757000000000001  0.11270999999999999  0.53111  1.0000
  C   C96       1.0  0.01615  0.02636999999999999  0.32547  1.0000
  C   C97       1.0  0.58568  0.45035  0.22520999999999994  1.0000
  C   C98       1.0  0.58568  0.77479  0.54965  1.0000
  C   C99       1.0  0.58561  0.77478  0.22521999999999995  1.0000
  C   C100      1.0  0.08563  0.5495799999999998  0.7747699999999998  1.0000
  C   C101      1.0  0.08563  0.22522999999999999  0.4504199999999999  1.0000
  C   C102      1.0  0.08558  0.22524999999999987  0.7747499999999998  1.0000
  C   C103      1.0  0.41432  0.5496499999999997  0.7747999999999998  1.0000
  C   C104      1.0  0.41438  0.22521999999999984  0.7747799999999998  1.0000
  C   C105      1.0  0.41432  0.22521  0.4503599999999999  1.0000
  C   C106      1.0  0.91437  0.45042  0.22523  1.0000
  C   C107      1.0  0.91442  0.7747500000000002  0.22525  1.0000
  C   C108      1.0  0.91437  0.7747699999999998  0.5495799999999998  1.0000
  C   C109      1.0  0.74996  0.45014  0.11643  1.0000
  C   C110      1.0  0.74996  0.66608  0.5497999999999998  1.0000
  C   C111      1.0  0.74996  0.8836799999999999  0.3339  1.0000
  C   C112      1.0  0.25003  0.54986  0.8835699999999997  1.0000
  C   C113      1.0  0.25003  0.33392  0.4501999999999999  1.0000
  C   C114      1.0  0.25004  0.11632000000000008  0.6661  1.0000
  C   C115      1.0  0.25003  0.5498  0.66608  1.0000
  C   C116      1.0  0.25004  0.3339  0.88368  1.0000
  C   C117      1.0  0.25003  0.11642999999999995  0.4501399999999999  1.0000
  C   C118      1.0  0.74996  0.4502  0.33391999999999994  1.0000
  C   C119      1.0  0.74996  0.6660999999999999  0.11631999999999998  1.0000
  C   C120      1.0  0.74996  0.8835700000000001  0.54986  1.0000
  C   C121      1.0  0.58999  0.55624  0.11254999999999997  1.0000
  C   C122      1.0  0.58984  0.55627  0.44373999999999997  1.0000
  C   C123      1.0  0.58999  0.8874499999999999  0.44375999999999993  1.0000
  C   C124      1.0  0.08989  0.44377  0.88747  1.0000
  C   C125      1.0  0.08973  0.44374  0.55626  1.0000
  C   C126      1.0  0.08989  0.11253000000000002  0.55624  1.0000
  C   C127      1.0  0.41016  0.44372999999999996  0.5562699999999999  1.0000
  C   C128      1.0  0.41000999999999993  0.44376  0.88745  1.0000
  C   C129      1.0  0.41000999999999993  0.11255  0.55624  1.0000
  C   C130      1.0  0.91026  0.5562599999999998  0.44373999999999997  1.0000
  C   C131      1.0  0.9101  0.55623  0.11252999999999998  1.0000
  C   C132      1.0  0.9101  0.8874700000000001  0.44376999999999994  1.0000
  C   C133      1.0  0.49998999999999993  0.38811  2e-05  1.0000
  C   C134      1.0  0.5  0.6120799999999998  0.61208  1.0000
  C   C135      1.0  0.50001  1.9999999999978856e-05  0.38810999999999996  1.0000
  C   C136      1.0  0.9999799999999999  0.6119  0.9999799999999999  1.0000
  C   C137      1.0  0.0  0.38791  0.3879099999999999  1.0000
  C   C138      1.0  2e-05  0.99998  0.61191  1.0000
  C   C139      1.0  0.50001  0.61189  0.9999799999999999  1.0000
  C   C140      1.0  0.5  0.38792  0.38791999999999993  1.0000
  C   C141      1.0  0.49998999999999993  0.9999799999999999  0.6118899999999999  1.0000
  C   C142      1.0  1e-05  0.38809  2e-05  1.0000
  C   C143      1.0  0.0  0.61209  0.61209  1.0000
  C   C144      1.0  0.9999899999999999  2.0000000000011433e-05  0.3881  1.0000
  N   N1        1.0  0.54842  0.43636  0.17714  1.0000
  N   N2        1.0  0.68749  0.42323000000000005  0.08942999999999998  1.0000
  N   N3        1.0  0.54849  0.51521  0.11256  1.0000
  N   N4        1.0  0.52641  0.38211000000000006  0.04303  1.0000
  N   N5        1.0  0.54835  0.74083  0.56376  1.0000
  N   N6        1.0  0.68747  0.6661  0.5767599999999999  1.0000
  N   N7        1.0  0.54835  0.5972700000000001  0.48476999999999987  1.0000
  N   N8        1.0  0.52643  0.66101  0.61793  1.0000
  N   N9        1.0  0.54832  0.82284  0.25921  1.0000
  N   N10       1.0  0.68747  0.9106299999999999  0.3339  1.0000
  N   N11       1.0  0.5485099999999999  0.88753  0.40276  1.0000
  N   N12       1.0  0.5264499999999999  0.95694  0.33921  1.0000
  N   N13       1.0  0.04836  0.5636  0.82283  1.0000
  N   N14       1.0  0.1875  0.57668  0.9105099999999999  1.0000
  N   N15       1.0  0.04836  0.4847799999999999  0.8874599999999999  1.0000
  N   N16       1.0  0.0264  0.61791  0.9569799999999998  1.0000
  N   N17       1.0  0.04829  0.25918  0.43628  1.0000
  N   N18       1.0  0.18749  0.33392  0.42330999999999996  1.0000
  N   N19       1.0  0.04822  0.40275  0.51523  1.0000
  N   N20       1.0  0.02643  0.33898  0.38205  1.0000
  N   N21       1.0  0.04828  0.17718999999999985  0.7407899999999997  1.0000
  N   N22       1.0  0.1875  0.08943000000000001  0.6660899999999998  1.0000
  N   N23       1.0  0.04838999999999999  0.11244999999999998  0.59722  1.0000
  N   N24       1.0  0.02645  0.04304999999999989  0.6608199999999999  1.0000
  N   N25       1.0  0.45164999999999994  0.5637599999999999  0.7408299999999998  1.0000
  N   N26       1.0  0.31253  0.57676  0.6661  1.0000
  N   N27       1.0  0.45164999999999994  0.48477  0.5972699999999999  1.0000
  N   N28       1.0  0.47356  0.6179299999999999  0.6610099999999999  1.0000
  N   N29       1.0  0.45167999999999997  0.25920999999999994  0.82285  1.0000
  N   N30       1.0  0.31253  0.33389999999999986  0.9106299999999998  1.0000
  N   N31       1.0  0.45149  0.4027599999999999  0.8875399999999999  1.0000
  N   N32       1.0  0.4735500000000001  0.3392099999999999  0.9569499999999997  1.0000
  N   N33       1.0  0.45158  0.17713999999999994  0.43635999999999997  1.0000
  N   N34       1.0  0.3125  0.08943  0.42324  1.0000
  N   N35       1.0  0.45150999999999997  0.11255999999999994  0.5152099999999998  1.0000
  N   N36       1.0  0.47359  0.04302999999999997  0.38210999999999995  1.0000
  N   N37       1.0  0.9517  0.43628  0.25918  1.0000
  N   N38       1.0  0.8125  0.42331  0.33391999999999994  1.0000
  N   N39       1.0  0.9517699999999999  0.5152300000000002  0.40276  1.0000
  N   N40       1.0  0.9735699999999999  0.38204  0.33898  1.0000
  N   N41       1.0  0.9517199999999999  0.74078  0.17718999999999993  1.0000
  N   N42       1.0  0.8125  0.66608  0.08942999999999998  1.0000
  N   N43       1.0  0.9516099999999998  0.59722  0.11244  1.0000
  N   N44       1.0  0.97355  0.66081  0.043049999999999984  1.0000
  N   N45       1.0  0.95164  0.82283  0.5636  1.0000
  N   N46       1.0  0.81249  0.9104999999999999  0.57668  1.0000
  N   N47       1.0  0.95163  0.88746  0.4847799999999999  1.0000
  N   N48       1.0  0.9736  0.95697  0.6179199999999999  1.0000
  N   N49       1.0  0.45158  0.5636399999999998  0.82286  1.0000
  N   N50       1.0  0.3125  0.57677  0.91058  1.0000
  N   N51       1.0  0.45150999999999997  0.48478999999999994  0.88745  1.0000
  N   N52       1.0  0.47359  0.61789  0.9569699999999998  1.0000
  N   N53       1.0  0.45164999999999994  0.25916999999999996  0.4362399999999999  1.0000
  N   N54       1.0  0.31253  0.3339  0.42324  1.0000
  N   N55       1.0  0.45164999999999994  0.40273  0.51523  1.0000
  N   N56       1.0  0.47356  0.33899  0.38206999999999997  1.0000
  N   N57       1.0  0.45167999999999997  0.17715999999999996  0.7407999999999998  1.0000
  N   N58       1.0  0.31253  0.08937  0.66611  1.0000
  N   N59       1.0  0.45149  0.11246999999999999  0.5972399999999999  1.0000
  N   N60       1.0  0.4735500000000001  0.04306000000000005  0.6608  1.0000
  N   N61       1.0  0.95164  0.43639999999999995  0.17716999999999997  1.0000
  N   N62       1.0  0.81249  0.42332  0.08949999999999998  1.0000
  N   N63       1.0  0.95163  0.51522  0.11253999999999997  1.0000
  N   N64       1.0  0.9736  0.38208  0.04302  1.0000
  N   N65       1.0  0.9517  0.74082  0.56372  1.0000
  N   N66       1.0  0.8125  0.66608  0.5766899999999999  1.0000
  N   N67       1.0  0.9517699999999999  0.5972499999999998  0.48476999999999987  1.0000
  N   N68       1.0  0.9735699999999999  0.6610200000000002  0.61796  1.0000
  N   N69       1.0  0.9517199999999999  0.82281  0.25922  1.0000
  N   N70       1.0  0.8125  0.9105699999999999  0.33390999999999993  1.0000
  N   N71       1.0  0.9516099999999998  0.88755  0.40277999999999997  1.0000
  N   N72       1.0  0.97355  0.95695  0.3391899999999999  1.0000
  N   N73       1.0  0.54835  0.43624  0.25917  1.0000
  N   N74       1.0  0.68747  0.42324  0.3339  1.0000
  N   N75       1.0  0.54835  0.51523  0.40273  1.0000
  N   N76       1.0  0.52643  0.38207  0.33899  1.0000
  N   N77       1.0  0.54832  0.74079  0.17715999999999996  1.0000
  N   N78       1.0  0.68747  0.6661  0.08936999999999998  1.0000
  N   N79       1.0  0.5485099999999999  0.59724  0.11245999999999998  1.0000
  N   N80       1.0  0.5264499999999999  0.66079  0.043049999999999984  1.0000
  N   N81       1.0  0.54842  0.82286  0.5636399999999999  1.0000
  N   N82       1.0  0.68749  0.91057  0.5767699999999999  1.0000
  N   N83       1.0  0.54849  0.8874399999999999  0.4847899999999999  1.0000
  N   N84       1.0  0.52641  0.95697  0.6178899999999999  1.0000
  N   N85       1.0  0.04829  0.56372  0.74082  1.0000
  N   N86       1.0  0.18749  0.57669  0.66608  1.0000
  N   N87       1.0  0.04822  0.48477  0.59725  1.0000
  N   N88       1.0  0.02643  0.61796  0.66102  1.0000
  N   N89       1.0  0.04828  0.25922  0.82281  1.0000
  N   N90       1.0  0.1875  0.33392  0.9105699999999999  1.0000
  N   N91       1.0  0.04838999999999999  0.40277999999999997  0.8875599999999999  1.0000
  N   N92       1.0  0.02645  0.3391899999999999  0.9569499999999997  1.0000
  N   N93       1.0  0.04836  0.17716999999999997  0.43640999999999996  1.0000
  N   N94       1.0  0.1875  0.08949999999999998  0.42332999999999993  1.0000
  N   N95       1.0  0.04836  0.11254  0.51522  1.0000
  N   N96       1.0  0.0264  0.043030000000000006  0.38209  1.0000
  N   N97       1.0  0.74993  0.50223  0.16914  1.0000
  N   N98       1.0  0.74997  0.66644  0.4975399999999999  1.0000
  N   N99       1.0  0.74998  0.83106  0.33355  1.0000
  N   N100      1.0  0.25006999999999996  0.4977699999999999  0.8308599999999999  1.0000
  N   N101      1.0  0.25002  0.33356  0.50247  1.0000
  N   N102      1.0  0.25002  0.16893999999999998  0.6664599999999999  1.0000
  N   N103      1.0  0.25002  0.49753  0.66645  1.0000
  N   N104      1.0  0.25002  0.3335499999999999  0.8310599999999998  1.0000
  N   N105      1.0  0.25006999999999996  0.16914  0.50223  1.0000
  N   N106      1.0  0.74998  0.50247  0.33356  1.0000
  N   N107      1.0  0.74998  0.66645  0.16894  1.0000
  N   N108      1.0  0.74993  0.83086  0.49777  1.0000
  O   O1        1.0  0.68879  0.52319  0.19050999999999998  1.0000
  O   O2        1.0  0.68889  0.66658  0.4763699999999999  1.0000
  O   O3        1.0  0.68888  0.8097499999999997  0.3333999999999999  1.0000
  O   O4        1.0  0.18892  0.4766  0.80969  1.0000
  O   O5        1.0  0.18885  0.3334099999999999  0.5235399999999999  1.0000
  O   O6        1.0  0.18885  0.19014999999999996  0.6665799999999998  1.0000
  O   O7        1.0  0.31111  0.47636999999999996  0.6665799999999998  1.0000
  O   O8        1.0  0.31111  0.3334  0.80976  1.0000
  O   O9        1.0  0.3112  0.19050999999999996  0.5231899999999999  1.0000
  O   O10       1.0  0.81115  0.52354  0.33340999999999993  1.0000
  O   O11       1.0  0.81115  0.66658  0.19013999999999998  1.0000
  O   O12       1.0  0.81108  0.80969  0.4765999999999999  1.0000
  O   O13       1.0  0.3112  0.47680999999999996  0.8094899999999998  1.0000
  O   O14       1.0  0.31111  0.33341999999999994  0.52363  1.0000
  O   O15       1.0  0.31111  0.19025000000000009  0.66661  1.0000
  O   O16       1.0  0.81108  0.5233999999999999  0.19030999999999995  1.0000
  O   O17       1.0  0.81115  0.66659  0.47646  1.0000
  O   O18       1.0  0.81115  0.80985  0.33341999999999994  1.0000
  O   O19       1.0  0.68888  0.52363  0.33341999999999994  1.0000
  O   O20       1.0  0.68888  0.6666  0.19025  1.0000
  O   O21       1.0  0.68879  0.80949  0.47680999999999996  1.0000
  O   O22       1.0  0.18885  0.47645999999999994  0.66659  1.0000
  O   O23       1.0  0.18885  0.3334199999999999  0.8098599999999999  1.0000
  O   O24       1.0  0.18892  0.19031  0.5234  1.0000
