data_image0
_chemical_formula_structural       In80H80C112S128N32
_chemical_formula_sum              "In80 H80 C112 S128 N32"
_cell_length_a       21.44785
_cell_length_b       21.63615
_cell_length_c       36.42242
_cell_angle_alpha    90.0
_cell_angle_beta     89.99955
_cell_angle_gamma    89.99865000000001

_symmetry_space_group_name_H-M    'P 1'
_symmetry_Int_Tables_number       1

loop_
  _symmetry_equiv_pos_as_xyz
  'x,y,z'

loop_
  _atom_site_type_symbol
  _atom_site_label
  _atom_site_symmetry_multiplicity
  _atom_site_fract_x
  _atom_site_fract_y
  _atom_site_fract_z
  _atom_site_occupancy
  In  In1       1.0  0.07358  0.83842  0.05098  1.0000
  In  In2       1.0  0.08581  0.69017  0.10492  1.0000
  In  In3       1.0  0.9248200000000001  0.74366  0.05283  1.0000
  In  In4       1.0  0.9882800000000002  0.84243  0.14088  1.0000
  In  In5       1.0  0.08057  0.54979  0.16359  1.0000
  In  In6       1.0  0.9291  0.58474  0.11396  1.0000
  In  In7       1.0  0.98983  0.68436  0.20263  1.0000
  In  In8       1.0  0.78407  0.6397  0.06806  1.0000
  In  In9       1.0  0.82955  0.7349  0.1507  1.0000
  In  In10      1.0  0.89596  0.8249199999999999  0.22951000000000002  1.0000
  In  In11      1.0  0.42644  0.16159  0.55097  1.0000
  In  In12      1.0  0.41418  0.30981  0.60493  1.0000
  In  In13      1.0  0.57521  0.25634  0.55282  1.0000
  In  In14      1.0  0.51175  0.15757  0.64088  1.0000
  In  In15      1.0  0.41942000000000007  0.45021  0.6636  1.0000
  In  In16      1.0  0.57088  0.41525  0.61394  1.0000
  In  In17      1.0  0.51016  0.31565  0.70262  1.0000
  In  In18      1.0  0.71594  0.3603  0.56807  1.0000
  In  In19      1.0  0.67047  0.26511  0.65071  1.0000
  In  In20      1.0  0.60401  0.17509  0.72953  1.0000
  In  In21      1.0  0.9264200000000002  0.33844  0.44900999999999996  1.0000
  In  In22      1.0  0.9141800000000001  0.19019  0.39506  1.0000
  In  In23      1.0  0.07516  0.24365  0.44717999999999997  1.0000
  In  In24      1.0  0.01173  0.34246  0.35912  1.0000
  In  In25      1.0  0.91944  0.049769999999999995  0.3364  1.0000
  In  In26      1.0  0.07088000000000001  0.08472  0.38606  1.0000
  In  In27      1.0  0.01016  0.18437  0.29738  1.0000
  In  In28      1.0  0.21593000000000004  0.1397  0.43193  1.0000
  In  In29      1.0  0.17044  0.23488  0.34929  1.0000
  In  In30      1.0  0.10402  0.32488  0.27046  1.0000
  In  In31      1.0  0.57355  0.66156  0.94902  1.0000
  In  In32      1.0  0.58581  0.80982  0.8950800000000001  1.0000
  In  In33      1.0  0.4248  0.75635  0.94717  1.0000
  In  In34      1.0  0.48824000000000006  0.65755  0.85913  1.0000
  In  In35      1.0  0.58057  0.95022  0.83642  1.0000
  In  In36      1.0  0.42909000000000014  0.91528  0.88602  1.0000
  In  In37      1.0  0.48985  0.81562  0.79738  1.0000
  In  In38      1.0  0.28407  0.86031  0.9319299999999999  1.0000
  In  In39      1.0  0.32952  0.76512  0.8493  1.0000
  In  In40      1.0  0.39596000000000003  0.67511  0.77048  1.0000
  In  In41      1.0  0.90098  0.43945999999999996  0.8242  1.0000
  In  In42      1.0  0.8946300000000001  0.30712  0.88886  1.0000
  In  In43      1.0  0.04741  0.4188700000000001  0.88247  1.0000
  In  In44      1.0  0.00502  0.30465  0.79649  1.0000
  In  In45      1.0  0.90422  0.16706  0.9493299999999999  1.0000
  In  In46      1.0  0.04646  0.26825  0.9523699999999999  1.0000
  In  In47      1.0  0.00386  0.15671  0.86483  1.0000
  In  In48      1.0  0.18174  0.37663  0.9424299999999999  1.0000
  In  In49      1.0  0.1585  0.27051  0.86023  1.0000
  In  In50      1.0  0.113  0.16637  0.78301  1.0000
  In  In51      1.0  0.59901  0.56055  0.32419  1.0000
  In  In52      1.0  0.6053600000000001  0.69289  0.38885  1.0000
  In  In53      1.0  0.45261000000000007  0.58112  0.38247  1.0000
  In  In54      1.0  0.49497  0.69534  0.29647  1.0000
  In  In55      1.0  0.59576  0.83294  0.44934999999999997  1.0000
  In  In56      1.0  0.45355000000000006  0.73175  0.45236  1.0000
  In  In57      1.0  0.49618000000000007  0.8432999999999999  0.36482  1.0000
  In  In58      1.0  0.31825  0.62336  0.44240999999999997  1.0000
  In  In59      1.0  0.34153000000000006  0.72949  0.36023  1.0000
  In  In60      1.0  0.38698000000000005  0.8336300000000001  0.28301  1.0000
  In  In61      1.0  0.099  0.93948  0.6758  1.0000
  In  In62      1.0  0.10535  0.8071099999999999  0.61115  1.0000
  In  In63      1.0  0.95259  0.9189  0.61752  1.0000
  In  In64      1.0  0.9949900000000002  0.80464  0.70352  1.0000
  In  In65      1.0  0.09576  0.66704  0.55066  1.0000
  In  In66      1.0  0.9535200000000001  0.76821  0.54765  1.0000
  In  In67      1.0  0.9961300000000002  0.65667  0.63518  1.0000
  In  In68      1.0  0.81825  0.8766799999999999  0.55759  1.0000
  In  In69      1.0  0.84151  0.7705499999999998  0.63978  1.0000
  In  In70      1.0  0.8869900000000001  0.66639  0.717  1.0000
  In  In71      1.0  0.40099  0.06053  0.1758  1.0000
  In  In72      1.0  0.39465  0.19288  0.11114  1.0000
  In  In73      1.0  0.5474  0.08109  0.11752999999999998  1.0000
  In  In74      1.0  0.505  0.19536  0.20351  1.0000
  In  In75      1.0  0.40423  0.33298  0.05068  1.0000
  In  In76      1.0  0.54645  0.23178  0.04763  1.0000
  In  In77      1.0  0.50383  0.34333  0.13518  1.0000
  In  In78      1.0  0.68171  0.12332  0.05756  1.0000
  In  In79      1.0  0.65846  0.22946  0.13976  1.0000
  In  In80      1.0  0.61302  0.33361  0.21699  1.0000
  H   H1        1.0  0.19773000000000004  0.81479  0.0015  1.0000
  H   H2        1.0  0.04711  0.99062  0.01877  1.0000
  H   H3        1.0  0.04936000000000001  0.07835  0.9737599999999998  1.0000
  H   H4        1.0  0.1251  0.08055  0.9230399999999999  1.0000
  H   H5        1.0  0.20162  0.99452  0.914  1.0000
  H   H6        1.0  0.06771  0.45812  0.23295999999999997  1.0000
  H   H7        1.0  0.21416  0.28268  0.20431  1.0000
  H   H8        1.0  0.28422  0.29226  0.14967  1.0000
  H   H9        1.0  0.28008  0.38336  0.1093  1.0000
  H   H10       1.0  0.20786  0.47173999999999994  0.12277  1.0000
  H   H11       1.0  0.30226  0.18521000000000004  0.5015  1.0000
  H   H12       1.0  0.45289  0.00939  0.51877  1.0000
  H   H13       1.0  0.45064  0.92166  0.47375  1.0000
  H   H14       1.0  0.37488000000000005  0.91945  0.42304  1.0000
  H   H15       1.0  0.29836  0.00548  0.41401  1.0000
  H   H16       1.0  0.43228  0.54188  0.73296  1.0000
  H   H17       1.0  0.28584  0.71733  0.70432  1.0000
  H   H18       1.0  0.21578  0.70774  0.64967  1.0000
  H   H19       1.0  0.21992  0.61664  0.60931  1.0000
  H   H20       1.0  0.29214  0.52826  0.62278  1.0000
  H   H21       1.0  0.8022700000000001  0.31479  0.49851  1.0000
  H   H22       1.0  0.95288  0.49061  0.48123000000000005  1.0000
  H   H23       1.0  0.95063  0.57835  0.52624  1.0000
  H   H24       1.0  0.87489  0.58055  0.57696  1.0000
  H   H25       1.0  0.7983800000000001  0.49453  0.586  1.0000
  H   H26       1.0  0.93227  0.9581300000000001  0.26703  1.0000
  H   H27       1.0  0.78584  0.78268  0.29568  1.0000
  H   H28       1.0  0.71578  0.79226  0.35033  1.0000
  H   H29       1.0  0.71992  0.88336  0.39069  1.0000
  H   H30       1.0  0.79214  0.97174  0.37722  1.0000
  H   H31       1.0  0.6977300000000001  0.68521  0.9985  1.0000
  H   H32       1.0  0.5471000000000001  0.50939  0.9812300000000002  1.0000
  H   H33       1.0  0.54935  0.42166  0.02625  1.0000
  H   H34       1.0  0.62511  0.41945  0.07695  1.0000
  H   H35       1.0  0.70163  0.50548  0.08599  1.0000
  H   H36       1.0  0.56772  0.04186  0.76704  1.0000
  H   H37       1.0  0.71415  0.21732  0.79568  1.0000
  H   H38       1.0  0.78421  0.20774  0.85033  1.0000
  H   H39       1.0  0.78008  0.11664  0.89069  1.0000
  H   H40       1.0  0.70786  0.028260000000000004  0.87722  1.0000
  H   H41       1.0  0.9289600000000001  0.53883  0.75936  1.0000
  H   H42       1.0  0.75226  0.49629  0.84647  1.0000
  H   H43       1.0  0.66189  0.56962  0.84818  1.0000
  H   H44       1.0  0.65761  0.65982  0.80683  1.0000
  H   H45       1.0  0.74486  0.68303  0.7635  1.0000
  H   H46       1.0  0.76319  0.17101  0.9872  1.0000
  H   H47       1.0  0.9482100000000001  0.02808  0.9868100000000001  1.0000
  H   H48       1.0  0.94951  0.9394499999999999  0.03115  1.0000
  H   H49       1.0  0.86237  0.9209299999999999  0.07357  1.0000
  H   H50       1.0  0.76887  0.99032  0.07406  1.0000
  H   H51       1.0  0.57103  0.46118  0.25936  1.0000
  H   H52       1.0  0.74774  0.50371  0.34647  1.0000
  H   H53       1.0  0.8381  0.43038  0.34818  1.0000
  H   H54       1.0  0.84238  0.34017  0.30682  1.0000
  H   H55       1.0  0.75513  0.31697  0.26349  1.0000
  H   H56       1.0  0.7368  0.82899  0.48721999999999993  1.0000
  H   H57       1.0  0.55178  0.9719299999999998  0.48681  1.0000
  H   H58       1.0  0.5504700000000001  0.06056000000000001  0.53115  1.0000
  H   H59       1.0  0.63762  0.07909  0.57356  1.0000
  H   H60       1.0  0.73111  0.00969  0.57406  1.0000
  H   H61       1.0  0.07104  0.03882  0.74063  1.0000
  H   H62       1.0  0.24774  0.9962900000000001  0.65352  1.0000
  H   H63       1.0  0.33811  0.06961  0.65182  1.0000
  H   H64       1.0  0.34238  0.15982  0.69317  1.0000
  H   H65       1.0  0.25513  0.18302  0.7365  1.0000
  H   H66       1.0  0.23680000000000007  0.67101  0.51279  1.0000
  H   H67       1.0  0.05179000000000001  0.52808  0.51319  1.0000
  H   H68       1.0  0.05048  0.43945  0.46884000000000003  1.0000
  H   H69       1.0  0.13763  0.42091999999999996  0.42643  1.0000
  H   H70       1.0  0.23112000000000005  0.49031  0.42594  1.0000
  H   H71       1.0  0.42896  0.96119  0.24064  1.0000
  H   H72       1.0  0.25225  0.0037099999999999998  0.15352  1.0000
  H   H73       1.0  0.16189  0.9303800000000001  0.15182  1.0000
  H   H74       1.0  0.15762000000000004  0.84017  0.19317  1.0000
  H   H75       1.0  0.24487000000000003  0.8169700000000001  0.23649999999999996  1.0000
  H   H76       1.0  0.2632  0.329  0.01279  1.0000
  H   H77       1.0  0.44821  0.47192999999999996  0.01319  1.0000
  H   H78       1.0  0.44952000000000003  0.56055  0.96884  1.0000
  H   H79       1.0  0.36237  0.57908  0.92643  1.0000
  H   H80       1.0  0.26888  0.50969  0.92593  1.0000
  C   C1        1.0  0.17862  0.85878  0.9925199999999998  1.0000
  C   C2        1.0  0.12092  0.94189  0.99001  1.0000
  C   C3        1.0  0.07903  0.99037  0.99555  1.0000
  C   C4        1.0  0.08114  0.03949  0.9704900000000001  1.0000
  C   C5        1.0  0.12465000000000001  0.04077  0.94132  1.0000
  C   C6        1.0  0.16729  0.99314  0.936  1.0000
  C   C7        1.0  0.16494  0.9434100000000001  0.96075  1.0000
  C   C8        1.0  0.1035  0.43772  0.21568  1.0000
  C   C9        1.0  0.17237  0.3727  0.19414  1.0000
  C   C10       1.0  0.21271  0.32345  0.18682  1.0000
  C   C11       1.0  0.25143  0.3291  0.15607  1.0000
  C   C12       1.0  0.24940000000000004  0.38158000000000003  0.13306  1.0000
  C   C13       1.0  0.20922000000000002  0.43086  0.14018  1.0000
  C   C14       1.0  0.17062000000000002  0.42578  0.17109  1.0000
  C   C15       1.0  0.32136  0.14122  0.49252  1.0000
  C   C16       1.0  0.3790700000000001  0.05812  0.49001  1.0000
  C   C17       1.0  0.42096  0.00964  0.49554999999999993  1.0000
  C   C18       1.0  0.41885000000000006  0.9605100000000001  0.4704900000000001  1.0000
  C   C19       1.0  0.37533  0.95923  0.44132  1.0000
  C   C20       1.0  0.3327  0.00686  0.436  1.0000
  C   C21       1.0  0.33504  0.05659000000000001  0.46075  1.0000
  C   C22       1.0  0.39649  0.56228  0.71569  1.0000
  C   C23       1.0  0.32762  0.62731  0.6941499999999999  1.0000
  C   C24       1.0  0.28729000000000005  0.67656  0.68683  1.0000
  C   C25       1.0  0.24857000000000004  0.6709  0.65607  1.0000
  C   C26       1.0  0.2506  0.61842  0.63306  1.0000
  C   C27       1.0  0.29079000000000005  0.56914  0.64019  1.0000
  C   C28       1.0  0.32938  0.57422  0.6711  1.0000
  C   C29       1.0  0.82137  0.35878  0.50748  1.0000
  C   C30       1.0  0.8790600000000001  0.44189000000000006  0.50999  1.0000
  C   C31       1.0  0.92095  0.4903600000000001  0.50445  1.0000
  C   C32       1.0  0.91885  0.53949  0.5295  1.0000
  C   C33       1.0  0.8753400000000001  0.54077  0.55868  1.0000
  C   C34       1.0  0.8327000000000001  0.49313999999999997  0.56401  1.0000
  C   C35       1.0  0.8350500000000002  0.44341  0.53925  1.0000
  C   C36       1.0  0.89648  0.9377300000000001  0.28431  1.0000
  C   C37       1.0  0.82762  0.8727  0.30584  1.0000
  C   C38       1.0  0.78728  0.82345  0.31317  1.0000
  C   C39       1.0  0.74858  0.8290999999999998  0.34392  1.0000
  C   C40       1.0  0.7506000000000002  0.8815800000000001  0.36694  1.0000
  C   C41       1.0  0.79078  0.93087  0.35981  1.0000
  C   C42       1.0  0.8293700000000002  0.92578  0.3289  1.0000
  C   C43       1.0  0.67863  0.64122  0.007479999999999999  1.0000
  C   C44       1.0  0.62093  0.55811  0.00999  1.0000
  C   C45       1.0  0.57904  0.50964  0.00446  1.0000
  C   C46       1.0  0.58115  0.46051  0.02951  1.0000
  C   C47       1.0  0.62466  0.45923  0.05868  1.0000
  C   C48       1.0  0.6673  0.50686  0.064  1.0000
  C   C49       1.0  0.6649600000000001  0.55659  0.03925  1.0000
  C   C50       1.0  0.60351  0.06226  0.78432  1.0000
  C   C51       1.0  0.67237  0.1273  0.80585  1.0000
  C   C52       1.0  0.71271  0.17655  0.81317  1.0000
  C   C53       1.0  0.75142  0.1709  0.84393  1.0000
  C   C54       1.0  0.7494000000000001  0.11842  0.86694  1.0000
  C   C55       1.0  0.7092200000000001  0.06913  0.85981  1.0000
  C   C56       1.0  0.6706200000000001  0.07421  0.8289  1.0000
  C   C57       1.0  0.8840300000000001  0.55182  0.77072  1.0000
  C   C58       1.0  0.79917  0.5495  0.80399  1.0000
  C   C59       1.0  0.7506500000000003  0.53665  0.82865  1.0000
  C   C60       1.0  0.70028  0.57771  0.82925  1.0000
  C   C61       1.0  0.69806  0.62949  0.80588  1.0000
  C   C62       1.0  0.74662  0.64281  0.78139  1.0000
  C   C63       1.0  0.7973100000000001  0.6022  0.7808099999999999  1.0000
  C   C64       1.0  0.7871300000000001  0.13043  0.9977100000000001  1.0000
  C   C65       1.0  0.85792  0.05931  0.00637  1.0000
  C   C66       1.0  0.90982  0.02054  0.00581  1.0000
  C   C67       1.0  0.91007  0.9709999999999999  0.03064  1.0000
  C   C68       1.0  0.85989  0.96022  0.05497  1.0000
  C   C69       1.0  0.80774  0.99846  0.05546  1.0000
  C   C70       1.0  0.80721  0.04832  0.030699999999999998  1.0000
  C   C71       1.0  0.61597  0.44817999999999997  0.27072  1.0000
  C   C72       1.0  0.70083  0.4505  0.30399  1.0000
  C   C73       1.0  0.7493500000000001  0.46335  0.32864  1.0000
  C   C74       1.0  0.79972  0.42229  0.32925  1.0000
  C   C75       1.0  0.8019300000000001  0.37050999999999995  0.30587  1.0000
  C   C76       1.0  0.75337  0.35719  0.28138  1.0000
  C   C77       1.0  0.70268  0.3978  0.28081  1.0000
  C   C78       1.0  0.71286  0.86957  0.49772000000000005  1.0000
  C   C79       1.0  0.64207  0.9407  0.50637  1.0000
  C   C80       1.0  0.59017  0.97947  0.50581  1.0000
  C   C81       1.0  0.58992  0.029  0.53064  1.0000
  C   C82       1.0  0.6401  0.03979  0.55497  1.0000
  C   C83       1.0  0.69225  0.0015500000000000002  0.55546  1.0000
  C   C84       1.0  0.69278  0.95169  0.5307  1.0000
  C   C85       1.0  0.11597  0.05182  0.72927  1.0000
  C   C86       1.0  0.20083000000000004  0.04950000000000001  0.696  1.0000
  C   C87       1.0  0.24935  0.03665  0.67135  1.0000
  C   C88       1.0  0.29972  0.07771  0.6707499999999998  1.0000
  C   C89       1.0  0.30193  0.12949  0.69412  1.0000
  C   C90       1.0  0.25337  0.14281  0.71861  1.0000
  C   C91       1.0  0.20268  0.1022  0.71919  1.0000
  C   C92       1.0  0.21286  0.63043  0.50228  1.0000
  C   C93       1.0  0.14208  0.55931  0.49363  1.0000
  C   C94       1.0  0.09018  0.52054  0.4941900000000001  1.0000
  C   C95       1.0  0.08993000000000001  0.471  0.46936  1.0000
  C   C96       1.0  0.14011  0.46022  0.4450299999999999  1.0000
  C   C97       1.0  0.19226  0.49845  0.44454  1.0000
  C   C98       1.0  0.19279  0.54832  0.46929  1.0000
  C   C99       1.0  0.38402  0.9481900000000001  0.22927999999999998  1.0000
  C   C100      1.0  0.29916000000000004  0.95051  0.19601  1.0000
  C   C101      1.0  0.25064  0.9633499999999999  0.17135  1.0000
  C   C102      1.0  0.20027000000000003  0.92229  0.17075  1.0000
  C   C103      1.0  0.19806  0.87051  0.19412  1.0000
  C   C104      1.0  0.24663  0.8571900000000001  0.21861  1.0000
  C   C105      1.0  0.29731  0.8978  0.21919  1.0000
  C   C106      1.0  0.28714  0.36958  0.00228  1.0000
  C   C107      1.0  0.35792  0.4407  0.9936300000000001  1.0000
  C   C108      1.0  0.4098200000000001  0.47947  0.99419  1.0000
  C   C109      1.0  0.41007  0.529  0.9693600000000001  1.0000
  C   C110      1.0  0.35989  0.53979  0.94503  1.0000
  C   C111      1.0  0.30774  0.50155  0.9445399999999999  1.0000
  C   C112      1.0  0.30721  0.45169000000000004  0.96929  1.0000
  S   S1        1.0  0.14789000000000002  0.7554999999999998  0.06425  1.0000
  S   S2        1.0  0.9826000000000001  0.81337  0.01225  1.0000
  S   S3        1.0  0.04657000000000001  0.9116  0.09985999999999999  1.0000
  S   S4        1.0  0.15277  0.60341  0.1229  1.0000
  S   S5        1.0  0.99145  0.65148  0.07004  1.0000
  S   S6        1.0  0.05596  0.75257  0.16133  1.0000
  S   S7        1.0  0.83064  0.70787  0.02136  1.0000
  S   S8        1.0  0.8907  0.8057400000000001  0.10841  1.0000
  S   S9        1.0  0.95851  0.9010300000000001  0.19562  1.0000
  S   S10       1.0  0.9938000000000001  0.49694  0.13224  1.0000
  S   S11       1.0  0.05232  0.59612  0.22285  1.0000
  S   S12       1.0  0.8381100000000001  0.54306  0.08178  1.0000
  S   S13       1.0  0.89385  0.64276  0.17062  1.0000
  S   S14       1.0  0.95636  0.74063  0.25746  1.0000
  S   S15       1.0  0.73649  0.69703  0.11902000000000001  1.0000
  S   S16       1.0  0.79493  0.7923300000000001  0.20496  1.0000
  S   S17       1.0  0.35212  0.2445  0.56425  1.0000
  S   S18       1.0  0.51742  0.18662000000000004  0.51224  1.0000
  S   S19       1.0  0.45345  0.08843  0.59985  1.0000
  S   S20       1.0  0.34724  0.39658999999999994  0.6229  1.0000
  S   S21       1.0  0.50854  0.34849  0.57003  1.0000
  S   S22       1.0  0.44404  0.24741000000000002  0.66134  1.0000
  S   S23       1.0  0.66938  0.29215  0.52136  1.0000
  S   S24       1.0  0.60932  0.19428  0.60841  1.0000
  S   S25       1.0  0.5415  0.09897  0.69562  1.0000
  S   S26       1.0  0.50618  0.50305  0.63224  1.0000
  S   S27       1.0  0.44767  0.40388  0.72285  1.0000
  S   S28       1.0  0.66189  0.45694000000000007  0.58177  1.0000
  S   S29       1.0  0.60614  0.35725  0.67061  1.0000
  S   S30       1.0  0.54362  0.25939  0.75746  1.0000
  S   S31       1.0  0.76352  0.30297  0.61903  1.0000
  S   S32       1.0  0.70505  0.20764999999999997  0.70498  1.0000
  S   S33       1.0  0.8521300000000003  0.25551  0.43574  1.0000
  S   S34       1.0  0.017390000000000003  0.31337  0.48776  1.0000
  S   S35       1.0  0.95342  0.41161  0.40014  1.0000
  S   S36       1.0  0.84724  0.10342  0.37709  1.0000
  S   S37       1.0  0.00853  0.15148  0.42996  1.0000
  S   S38       1.0  0.9440200000000001  0.25261  0.33866  1.0000
  S   S39       1.0  0.16936000000000004  0.20785  0.47863  1.0000
  S   S40       1.0  0.10928000000000002  0.30572  0.39159  1.0000
  S   S41       1.0  0.041510000000000005  0.40102  0.30437  1.0000
  S   S42       1.0  0.00619  0.99693  0.36776  1.0000
  S   S43       1.0  0.94768  0.09613  0.27715  1.0000
  S   S44       1.0  0.16189  0.04305  0.41823  1.0000
  S   S45       1.0  0.10613000000000002  0.14275  0.32939  1.0000
  S   S46       1.0  0.04361  0.2406  0.24253999999999998  1.0000
  S   S47       1.0  0.26351  0.19704  0.38097  1.0000
  S   S48       1.0  0.20505  0.29234  0.29504  1.0000
  S   S49       1.0  0.64786  0.7444899999999999  0.9357500000000001  1.0000
  S   S50       1.0  0.4825900000000001  0.68664  0.98775  1.0000
  S   S51       1.0  0.54655  0.58839  0.9001400000000002  1.0000
  S   S52       1.0  0.65277  0.89657  0.8771  1.0000
  S   S53       1.0  0.49143000000000003  0.8485300000000001  0.9299499999999999  1.0000
  S   S54       1.0  0.55595  0.7474000000000001  0.83868  1.0000
  S   S55       1.0  0.3306200000000001  0.79215  0.9786399999999998  1.0000
  S   S56       1.0  0.39067  0.69427  0.8915900000000001  1.0000
  S   S57       1.0  0.4584900000000001  0.59897  0.80438  1.0000
  S   S58       1.0  0.49379  0.00307  0.86775  1.0000
  S   S59       1.0  0.55232  0.90388  0.77717  1.0000
  S   S60       1.0  0.3381  0.95695  0.9182200000000001  1.0000
  S   S61       1.0  0.39385  0.8572299999999999  0.82937  1.0000
  S   S62       1.0  0.4563900000000001  0.75937  0.74254  1.0000
  S   S63       1.0  0.23647  0.80298  0.8809799999999999  1.0000
  S   S64       1.0  0.29493  0.70765  0.79504  1.0000
  S   S65       1.0  0.8251000000000001  0.3844600000000001  0.86151  1.0000
  S   S66       1.0  0.9832700000000001  0.49999000000000005  0.85491  1.0000
  S   S67       1.0  0.9436700000000001  0.38844  0.76918  1.0000
  S   S68       1.0  0.8282300000000001  0.2434  0.92837  1.0000
  S   S69       1.0  0.98071  0.35554  0.92632  1.0000
  S   S70       1.0  0.9349500000000001  0.23928  0.83708  1.0000
  S   S71       1.0  0.13191000000000003  0.4686199999999999  0.9170199999999998  1.0000
  S   S72       1.0  0.09389  0.35499  0.83113  1.0000
  S   S73       1.0  0.04831  0.23939000000000002  0.7478  1.0000
  S   S74       1.0  0.98734  0.19798  0.9918600000000001  1.0000
  S   S75       1.0  0.9425300000000001  0.08966  0.9054  1.0000
  S   S76       1.0  0.12973  0.31394  0.9892600000000001  1.0000
  S   S77       1.0  0.09298  0.20246999999999998  0.90163  1.0000
  S   S78       1.0  0.04949  0.09124  0.81719  1.0000
  S   S79       1.0  0.24173  0.31796  0.8963399999999999  1.0000
  S   S80       1.0  0.20674  0.20864000000000002  0.81157  1.0000
  S   S81       1.0  0.67489  0.61554  0.36151  1.0000
  S   S82       1.0  0.51674  0.5  0.35491  1.0000
  S   S83       1.0  0.55633  0.61156  0.26917  1.0000
  S   S84       1.0  0.67175  0.7566000000000002  0.42837  1.0000
  S   S85       1.0  0.51931  0.64446  0.42632  1.0000
  S   S86       1.0  0.5650500000000002  0.76072  0.33706  1.0000
  S   S87       1.0  0.36810000000000004  0.53138  0.41702  1.0000
  S   S88       1.0  0.40612  0.645  0.33114  1.0000
  S   S89       1.0  0.4516800000000001  0.7606200000000001  0.24779  1.0000
  S   S90       1.0  0.51264  0.80201  0.49186  1.0000
  S   S91       1.0  0.5574900000000002  0.91033  0.4054  1.0000
  S   S92       1.0  0.37026  0.68605  0.48923  1.0000
  S   S93       1.0  0.40705  0.79754  0.40162  1.0000
  S   S94       1.0  0.45051  0.9087499999999998  0.31718  1.0000
  S   S95       1.0  0.25827  0.68206  0.39633  1.0000
  S   S96       1.0  0.29326  0.79136  0.31158  1.0000
  S   S97       1.0  0.17488000000000004  0.88446  0.63849  1.0000
  S   S98       1.0  0.01673  2e-05  0.64507  1.0000
  S   S99       1.0  0.05634000000000001  0.88843  0.73081  1.0000
  S   S100      1.0  0.17174  0.74339  0.57163  1.0000
  S   S101      1.0  0.019270000000000002  0.8555100000000001  0.57368  1.0000
  S   S102      1.0  0.06504  0.73926  0.66293  1.0000
  S   S103      1.0  0.86809  0.96866  0.58298  1.0000
  S   S104      1.0  0.90613  0.85501  0.66887  1.0000
  S   S105      1.0  0.95168  0.73941  0.75221  1.0000
  S   S106      1.0  0.012630000000000002  0.69797  0.50814  1.0000
  S   S107      1.0  0.05747000000000001  0.58964  0.5946  1.0000
  S   S108      1.0  0.87025  0.81395  0.51077  1.0000
  S   S109      1.0  0.907  0.70245  0.59839  1.0000
  S   S110      1.0  0.9505000000000001  0.59124  0.68283  1.0000
  S   S111      1.0  0.75826  0.81796  0.60366  1.0000
  S   S112      1.0  0.79326  0.70866  0.68843  1.0000
  S   S113      1.0  0.32511  0.11554999999999999  0.13849  1.0000
  S   S114      1.0  0.48326  0.9999800000000001  0.14508  1.0000
  S   S115      1.0  0.44366  0.11157  0.23081  1.0000
  S   S116      1.0  0.32825  0.2566  0.07163  1.0000
  S   S117      1.0  0.4807200000000001  0.14446  0.07368  1.0000
  S   S118      1.0  0.43494  0.26074  0.16292  1.0000
  S   S119      1.0  0.6319  0.03135  0.08299  1.0000
  S   S120      1.0  0.59386  0.14499  0.16887  1.0000
  S   S121      1.0  0.54831  0.26061  0.2522  1.0000
  S   S122      1.0  0.4873300000000001  0.30203  0.00815  1.0000
  S   S123      1.0  0.44251  0.41038  0.09461  1.0000
  S   S124      1.0  0.62972  0.18607000000000004  0.01075  1.0000
  S   S125      1.0  0.5929600000000002  0.29755  0.09838  1.0000
  S   S126      1.0  0.54949  0.40875000000000006  0.18282999999999996  1.0000
  S   S127      1.0  0.7416900000000001  0.18202  0.10364  1.0000
  S   S128      1.0  0.70674  0.29133  0.18841  1.0000
  N   N1        1.0  0.13108  0.88735  0.00955  1.0000
  N   N2        1.0  0.20077  0.89029  0.96323  1.0000
  N   N3        1.0  0.12664  0.46601000000000004  0.18556  1.0000
  N   N4        1.0  0.12914  0.38205000000000006  0.22216999999999998  1.0000
  N   N5        1.0  0.3689  0.11265  0.50955  1.0000
  N   N6        1.0  0.29919  0.10971  0.46324  1.0000
  N   N7        1.0  0.37337000000000004  0.534  0.68557  1.0000
  N   N8        1.0  0.37087  0.61795  0.72218  1.0000
  N   N9        1.0  0.8689100000000001  0.38735  0.49045  1.0000
  N   N10       1.0  0.7992200000000002  0.39029  0.53677  1.0000
  N   N11       1.0  0.87335  0.9660100000000001  0.31442  1.0000
  N   N12       1.0  0.8708400000000001  0.88207  0.27781  1.0000
  N   N13       1.0  0.6311  0.61265  0.99045  1.0000
  N   N14       1.0  0.70081  0.60971  0.03676  1.0000
  N   N15       1.0  0.6266400000000001  0.03398  0.81443  1.0000
  N   N16       1.0  0.62913  0.11793999999999999  0.77782  1.0000
  N   N17       1.0  0.85457  0.51849  0.79682  1.0000
  N   N18       1.0  0.8520100000000002  0.60227  0.76006  1.0000
  N   N19       1.0  0.8433600000000001  0.11189999999999999  0.9858899999999999  1.0000
  N   N20       1.0  0.76308  0.09379000000000001  0.02436  1.0000
  N   N21       1.0  0.64541  0.48151  0.29682  1.0000
  N   N22       1.0  0.6479800000000001  0.39773000000000003  0.26006  1.0000
  N   N23       1.0  0.65664  0.88811  0.48589  1.0000
  N   N24       1.0  0.73689  0.9062099999999998  0.52437  1.0000
  N   N25       1.0  0.14542  0.01849  0.70317  1.0000
  N   N26       1.0  0.14798  0.10226  0.73994  1.0000
  N   N27       1.0  0.15663  0.61189  0.51411  1.0000
  N   N28       1.0  0.23691  0.59379  0.47562999999999994  1.0000
  N   N29       1.0  0.35457  0.98152  0.20318  1.0000
  N   N30       1.0  0.35201  0.8977400000000001  0.23994000000000001  1.0000
  N   N31       1.0  0.34336  0.3881200000000001  0.01412  1.0000
  N   N32       1.0  0.2631  0.40621000000000007  0.9756300000000001  1.0000
