data_image0
_chemical_formula_structural       Cd16H160C224N40O48
_chemical_formula_sum              "Cd16 H160 C224 N40 O48"
_cell_length_a       12.00374
_cell_length_b       21.75243
_cell_length_c       26.968149999999998
_cell_angle_alpha    89.99143
_cell_angle_beta     89.95188
_cell_angle_gamma    89.97148

_symmetry_space_group_name_H-M    'P 1'
_symmetry_Int_Tables_number       1

loop_
  _symmetry_equiv_pos_as_xyz
  'x,y,z'

loop_
  _atom_site_type_symbol
  _atom_site_label
  _atom_site_symmetry_multiplicity
  _atom_site_fract_x
  _atom_site_fract_y
  _atom_site_fract_z
  _atom_site_occupancy
  Cd  Cd1       1.0  0.60181  0.58841  0.90025  1.0000
  Cd  Cd2       1.0  0.53164  0.61753  0.59763  1.0000
  Cd  Cd3       1.0  0.39792  0.08835  0.59973  1.0000
  Cd  Cd4       1.0  0.46656  0.11721  0.90223  1.0000
  Cd  Cd5       1.0  0.89755  0.08695  0.40007  1.0000
  Cd  Cd6       1.0  0.96663  0.11685  0.09669  1.0000
  Cd  Cd7       1.0  0.10216  0.58851  0.1  1.0000
  Cd  Cd8       1.0  0.03268  0.61594  0.40342  1.0000
  Cd  Cd9       1.0  0.10245  0.91305  0.59992  1.0000
  Cd  Cd10      1.0  0.03337  0.88314  0.90331  1.0000
  Cd  Cd11      1.0  0.8978400000000001  0.4114900000000001  0.89999  1.0000
  Cd  Cd12      1.0  0.96732  0.38406  0.59657  1.0000
  Cd  Cd13      1.0  0.39819000000000004  0.41157999999999995  0.09975  1.0000
  Cd  Cd14      1.0  0.46836  0.3824699999999999  0.40236  1.0000
  Cd  Cd15      1.0  0.60208  0.9116500000000001  0.40027  1.0000
  Cd  Cd16      1.0  0.53344  0.88279  0.09777  1.0000
  H   H1        1.0  0.53721  0.60306  0.72158  1.0000
  H   H2        1.0  0.87404  0.56267  0.76297  1.0000
  H   H3        1.0  0.9262000000000001  0.56894  0.67148  1.0000
  H   H4        1.0  0.7785500000000001  0.59558  0.61052  1.0000
  H   H5        1.0  0.40557  0.56858  0.98242  1.0000
  H   H6        1.0  0.08412999999999998  0.58628  0.91357  1.0000
  H   H7        1.0  0.18254  0.58535  0.83019  1.0000
  H   H8        1.0  0.39171  0.57842  0.82928  1.0000
  H   H9        1.0  0.30585  0.60718  0.53873  1.0000
  H   H10       1.0  0.22433000000000003  0.78702  0.48354  1.0000
  H   H11       1.0  0.35276  0.8320300000000002  0.54851  1.0000
  H   H12       1.0  0.46305  0.75924  0.6012  1.0000
  H   H13       1.0  0.41535  0.00466  0.96453  1.0000
  H   H14       1.0  0.43549000000000004  0.89313  0.96449  1.0000
  H   H15       1.0  0.6794300000000001  0.9134400000000001  0.84617  1.0000
  H   H16       1.0  0.64961  0.02446  0.85139  1.0000
  H   H17       1.0  0.68087  0.81866  0.8374  1.0000
  H   H18       1.0  0.69271  0.70602  0.8374799999999998  1.0000
  H   H19       1.0  0.4832000000000001  0.69196  0.9595599999999999  1.0000
  H   H20       1.0  0.46189  0.80309  0.96545  1.0000
  H   H21       1.0  0.46151000000000003  0.10296  0.77867  1.0000
  H   H22       1.0  0.12522  0.06261  0.73647  1.0000
  H   H23       1.0  0.07192  0.06897  0.82783  1.0000
  H   H24       1.0  0.21884  0.09553  0.8891299999999999  1.0000
  H   H25       1.0  0.59388  0.06764  0.51753  1.0000
  H   H26       1.0  0.91546  0.08474  0.58628  1.0000
  H   H27       1.0  0.81709  0.08482  0.66966  1.0000
  H   H28       1.0  0.60789  0.07814  0.67064  1.0000
  H   H29       1.0  0.69393  0.10660999999999998  0.96074  1.0000
  H   H30       1.0  0.77817  0.28646  0.01476  1.0000
  H   H31       1.0  0.64657  0.3315  0.95095  1.0000
  H   H32       1.0  0.53322  0.25859  0.89961  1.0000
  H   H33       1.0  0.58379  0.50484  0.53569  1.0000
  H   H34       1.0  0.56431  0.39327  0.53576  1.0000
  H   H35       1.0  0.32005  0.41331999999999997  0.65397  1.0000
  H   H36       1.0  0.34927  0.52435  0.64877  1.0000
  H   H37       1.0  0.31891  0.31857  0.66273  1.0000
  H   H38       1.0  0.30709  0.20594  0.66255  1.0000
  H   H39       1.0  0.51641  0.19196999999999997  0.54042  1.0000
  H   H40       1.0  0.53784  0.30311  0.53465  1.0000
  H   H41       1.0  0.96279  0.10146  0.22094  1.0000
  H   H42       1.0  0.62571  0.06246  0.26313  1.0000
  H   H43       1.0  0.57299  0.069  0.17179  1.0000
  H   H44       1.0  0.7202700000000001  0.0956  0.11057  1.0000
  H   H45       1.0  0.09370000000000002  0.06877  0.48249  1.0000
  H   H46       1.0  0.41545  0.08541  0.41352  1.0000
  H   H47       1.0  0.31726  0.08452  0.33019  1.0000
  H   H48       1.0  0.10812000000000001  0.0772  0.32932  1.0000
  H   H49       1.0  0.19441  0.10687  0.03771  1.0000
  H   H50       1.0  0.27397  0.28759  0.98394  1.0000
  H   H51       1.0  0.14597  0.33151  0.04946  1.0000
  H   H52       1.0  0.03639  0.25777  0.10183  1.0000
  H   H53       1.0  0.08504000000000002  0.50289  0.46453  1.0000
  H   H54       1.0  0.06576  0.39133  0.46373  1.0000
  H   H55       1.0  0.82076  0.41244  0.34612999999999994  1.0000
  H   H56       1.0  0.8500700000000001  0.52343  0.35191  1.0000
  H   H57       1.0  0.81985  0.31749  0.33694  1.0000
  H   H58       1.0  0.80699  0.20489000000000002  0.33712  1.0000
  H   H59       1.0  0.01544  0.19038  0.45937  1.0000
  H   H60       1.0  0.03776  0.30144  0.4651  1.0000
  H   H61       1.0  0.03685  0.60198  0.27883  1.0000
  H   H62       1.0  0.37411  0.563  0.23693  1.0000
  H   H63       1.0  0.42634  0.56889  0.32838999999999996  1.0000
  H   H64       1.0  0.27853  0.59469  0.38956  1.0000
  H   H65       1.0  0.90654  0.56964  0.01748  1.0000
  H   H66       1.0  0.5843  0.58352  0.0864  1.0000
  H   H67       1.0  0.68239  0.58303  0.16977  1.0000
  H   H68       1.0  0.89164  0.57686  0.1707  1.0000
  H   H69       1.0  0.80657  0.60674  0.46297  1.0000
  H   H70       1.0  0.7228100000000001  0.78735  0.51556  1.0000
  H   H71       1.0  0.85405  0.83148  0.45127  1.0000
  H   H72       1.0  0.96689  0.7577399999999999  0.40021  1.0000
  H   H73       1.0  0.9146600000000001  0.00396  0.03539  1.0000
  H   H74       1.0  0.93478  0.8924000000000001  0.03598  1.0000
  H   H75       1.0  0.1803  0.91365  0.15335  1.0000
  H   H76       1.0  0.15033  0.02466  0.14764  1.0000
  H   H77       1.0  0.18028  0.8187499999999999  0.1631  1.0000
  H   H78       1.0  0.19247  0.70608  0.16317  1.0000
  H   H79       1.0  0.98531  0.69162  0.04053  1.0000
  H   H80       1.0  0.96337  0.8027199999999999  0.03454  1.0000
  H   H81       1.0  0.03721  0.89854  0.77906  1.0000
  H   H82       1.0  0.37429  0.9375399999999999  0.73686  1.0000
  H   H83       1.0  0.42701  0.93099  0.82821  1.0000
  H   H84       1.0  0.27973  0.9043999999999999  0.88943  1.0000
  H   H85       1.0  0.9063000000000001  0.9312199999999999  0.51751  1.0000
  H   H86       1.0  0.58455  0.9145899999999999  0.58648  1.0000
  H   H87       1.0  0.6827400000000001  0.9154799999999998  0.66981  1.0000
  H   H88       1.0  0.89188  0.9228  0.6706799999999999  1.0000
  H   H89       1.0  0.80559  0.89312  0.9622899999999999  1.0000
  H   H90       1.0  0.72603  0.71241  0.01606  1.0000
  H   H91       1.0  0.85403  0.66848  0.95054  1.0000
  H   H92       1.0  0.9636100000000001  0.74222  0.89817  1.0000
  H   H93       1.0  0.91496  0.49709999999999993  0.53547  1.0000
  H   H94       1.0  0.9342400000000001  0.60867  0.53627  1.0000
  H   H95       1.0  0.17924  0.58756  0.6538599999999999  1.0000
  H   H96       1.0  0.14993  0.47656  0.6480799999999999  1.0000
  H   H97       1.0  0.18015  0.6825  0.66306  1.0000
  H   H98       1.0  0.19301  0.7951  0.66288  1.0000
  H   H99       1.0  0.98457  0.80962  0.54063  1.0000
  H   H100      1.0  0.96224  0.69856  0.5349  1.0000
  H   H101      1.0  0.96315  0.39802  0.72117  1.0000
  H   H102      1.0  0.62589  0.437  0.76307  1.0000
  H   H103      1.0  0.57366  0.43111  0.6715999999999999  1.0000
  H   H104      1.0  0.72147  0.4053  0.61043  1.0000
  H   H105      1.0  0.09346  0.43035999999999996  0.98252  1.0000
  H   H106      1.0  0.41570000000000007  0.41647  0.91359  1.0000
  H   H107      1.0  0.31761  0.41697  0.83023  1.0000
  H   H108      1.0  0.10836  0.42313999999999996  0.8293  1.0000
  H   H109      1.0  0.19343  0.39325999999999994  0.53702  1.0000
  H   H110      1.0  0.27719  0.21264  0.48444  1.0000
  H   H111      1.0  0.14595  0.16852  0.54872  1.0000
  H   H112      1.0  0.03311  0.24226  0.59979  1.0000
  H   H113      1.0  0.08534  0.9960400000000001  0.9646  1.0000
  H   H114      1.0  0.06522  0.10758999999999999  0.96401  1.0000
  H   H115      1.0  0.8197  0.08634  0.84665  1.0000
  H   H116      1.0  0.84967  0.9753399999999999  0.85236  1.0000
  H   H117      1.0  0.81972  0.18124  0.8369  1.0000
  H   H118      1.0  0.80753  0.29392  0.8368299999999999  1.0000
  H   H119      1.0  0.014690000000000002  0.30838  0.95947  1.0000
  H   H120      1.0  0.03663  0.19728  0.96546  1.0000
  H   H121      1.0  0.46279000000000003  0.39693999999999996  0.27842  1.0000
  H   H122      1.0  0.12596  0.43733  0.23703  1.0000
  H   H123      1.0  0.0738  0.43106  0.32852  1.0000
  H   H124      1.0  0.22145  0.40442  0.38948  1.0000
  H   H125      1.0  0.59443  0.4314200000000001  0.01758  1.0000
  H   H126      1.0  0.91587  0.41372  0.08643  1.0000
  H   H127      1.0  0.81746  0.41465  0.16979999999999998  1.0000
  H   H128      1.0  0.60829  0.42157  0.17072  1.0000
  H   H129      1.0  0.69415  0.39282000000000006  0.46125999999999995  1.0000
  H   H130      1.0  0.77567  0.21297  0.51645  1.0000
  H   H131      1.0  0.64724  0.16797  0.45148  1.0000
  H   H132      1.0  0.53695  0.24076  0.3988  1.0000
  H   H133      1.0  0.58465  0.9953399999999999  0.03547  1.0000
  H   H134      1.0  0.56451  0.10686  0.0355  1.0000
  H   H135      1.0  0.32057  0.08656  0.15383  1.0000
  H   H136      1.0  0.35039  0.97554  0.14861  1.0000
  H   H137      1.0  0.31913  0.18134  0.1626  1.0000
  H   H138      1.0  0.30729  0.29398  0.16252  1.0000
  H   H139      1.0  0.5168  0.30803  0.04043  1.0000
  H   H140      1.0  0.53811  0.19691  0.03455  1.0000
  H   H141      1.0  0.53849  0.8970400000000001  0.22133  1.0000
  H   H142      1.0  0.8747800000000001  0.9373899999999998  0.26353  1.0000
  H   H143      1.0  0.92808  0.9310199999999998  0.17217  1.0000
  H   H144      1.0  0.7811600000000001  0.90447  0.11086  1.0000
  H   H145      1.0  0.40612  0.93236  0.48247  1.0000
  H   H146      1.0  0.08454  0.9152599999999999  0.41372  1.0000
  H   H147      1.0  0.18291000000000002  0.91518  0.33033  1.0000
  H   H148      1.0  0.39210999999999996  0.92186  0.32936  1.0000
  H   H149      1.0  0.30607  0.89338  0.03926  1.0000
  H   H150      1.0  0.22183  0.71354  0.98524  1.0000
  H   H151      1.0  0.3534300000000001  0.6685  0.04905  1.0000
  H   H152      1.0  0.46678  0.7414  0.10039  1.0000
  H   H153      1.0  0.41621  0.49515  0.46431  1.0000
  H   H154      1.0  0.4356900000000001  0.60672  0.46424  1.0000
  H   H155      1.0  0.6799499999999999  0.58668  0.34602  1.0000
  H   H156      1.0  0.65073  0.47565  0.35122999999999993  1.0000
  H   H157      1.0  0.68109  0.68142  0.33727  1.0000
  H   H158      1.0  0.69291  0.79406  0.33744  1.0000
  H   H159      1.0  0.48359  0.80802  0.45958  1.0000
  H   H160      1.0  0.46216  0.69689  0.46535  1.0000
  C   C1        1.0  0.62409  0.59628  0.71139  1.0000
  C   C2        1.0  0.70188  0.58275  0.7482599999999999  1.0000
  C   C3        1.0  0.81299  0.57332  0.7343699999999999  1.0000
  C   C4        1.0  0.8414600000000001  0.57691  0.68431  1.0000
  C   C5        1.0  0.75936  0.59174  0.64987  1.0000
  C   C6        1.0  0.66506  0.57922  0.80147  1.0000
  C   C7        1.0  0.35359000000000007  0.57315  0.94963  1.0000
  C   C8        1.0  0.23795000000000002  0.57854  0.95376  1.0000
  C   C9        1.0  0.17437  0.58289  0.91042  1.0000
  C   C10       1.0  0.22879999999999998  0.58238  0.86478  1.0000
  C   C11       1.0  0.3446000000000001  0.57817  0.8637299999999998  1.0000
  C   C12       1.0  0.18262  0.58027  0.00369  1.0000
  C   C13       1.0  0.31569  0.65695  0.53953  1.0000
  C   C14       1.0  0.25705  0.69411  0.50632  1.0000
  C   C15       1.0  0.27013  0.75792  0.50927  1.0000
  C   C16       1.0  0.34228000000000003  0.7825  0.54474  1.0000
  C   C17       1.0  0.40162  0.74235  0.57491  1.0000
  C   C18       1.0  0.18312000000000003  0.66618  0.46762999999999993  1.0000
  C   C19       1.0  0.47298000000000007  0.98239  0.93902  1.0000
  C   C20       1.0  0.48534  0.91964  0.93856  1.0000
  C   C21       1.0  0.55933  0.88992  0.90457  1.0000
  C   C22       1.0  0.61973  0.93096  0.87304  1.0000
  C   C23       1.0  0.60357  0.99359  0.87566  1.0000
  C   C24       1.0  0.56906  0.8241399999999999  0.90181  1.0000
  C   C25       1.0  0.63489  0.79316  0.86538  1.0000
  C   C26       1.0  0.64165  0.72986  0.86479  1.0000
  C   C27       1.0  0.52461  0.72178  0.93288  1.0000
  C   C28       1.0  0.51335  0.78469  0.93589  1.0000
  C   C29       1.0  0.37453  0.09612000000000001  0.78864  1.0000
  C   C30       1.0  0.29719  0.0827  0.7515799999999999  1.0000
  C   C31       1.0  0.18591  0.07329  0.76521  1.0000
  C   C32       1.0  0.15683  0.07688  0.8152  1.0000
  C   C33       1.0  0.23854  0.09161  0.84984  1.0000
  C   C34       1.0  0.3346199999999999  0.07919  0.69847  1.0000
  C   C35       1.0  0.64591  0.07209  0.55031  1.0000
  C   C36       1.0  0.76162  0.07696  0.54614  1.0000
  C   C37       1.0  0.8252  0.08162  0.58946  1.0000
  C   C38       1.0  0.7708  0.08164  0.6351  1.0000
  C   C39       1.0  0.65498  0.07766  0.63618  1.0000
  C   C40       1.0  0.81713  0.07788  0.49624  1.0000
  C   C41       1.0  0.68356  0.15636  0.9599499999999999  1.0000
  C   C42       1.0  0.74329  0.19356000000000004  0.99265  1.0000
  C   C43       1.0  0.73076  0.25742  0.98959  1.0000
  C   C44       1.0  0.65701  0.28196  0.95474  1.0000
  C   C45       1.0  0.5961  0.24179  0.9252599999999999  1.0000
  C   C46       1.0  0.81668  0.16551  0.03143  1.0000
  C   C47       1.0  0.52619  0.48251  0.56116  1.0000
  C   C48       1.0  0.51422  0.41975  0.56164  1.0000
  C   C49       1.0  0.44026  0.38992  0.5955799999999999  1.0000
  C   C50       1.0  0.37965  0.43091  0.6271  1.0000
  C   C51       1.0  0.39547  0.49357  0.62447  1.0000
  C   C52       1.0  0.43065  0.32413  0.5982999999999999  1.0000
  C   C53       1.0  0.3648  0.29311  0.63469  1.0000
  C   C54       1.0  0.35807  0.22980999999999996  0.63524  1.0000
  C   C55       1.0  0.47514  0.22179  0.56716  1.0000
  C   C56       1.0  0.4864200000000001  0.2847  0.56421  1.0000
  C   C57       1.0  0.87567  0.09517  0.21105  1.0000
  C   C58       1.0  0.7980800000000001  0.08184  0.24810999999999997  1.0000
  C   C59       1.0  0.6867300000000001  0.07291  0.23443  1.0000
  C   C60       1.0  0.65787  0.07674  0.18445  1.0000
  C   C61       1.0  0.7398  0.09152  0.14986  1.0000
  C   C62       1.0  0.83492  0.07792  0.30132  1.0000
  C   C63       1.0  0.14589  0.0729  0.44969999999999993  1.0000
  C   C64       1.0  0.2616  0.07799  0.45378999999999997  1.0000
  C   C65       1.0  0.3252  0.0822  0.41041  1.0000
  C   C66       1.0  0.27089  0.08164  0.36477999999999994  1.0000
  C   C67       1.0  0.15511  0.07732  0.3637699999999999  1.0000
  C   C68       1.0  0.31706  0.07924  0.50369  1.0000
  C   C69       1.0  0.18406  0.15659  0.03894999999999999  1.0000
  C   C70       1.0  0.24242000000000002  0.19439  0.00605  1.0000
  C   C71       1.0  0.22855  0.25809  0.00952  1.0000
  C   C72       1.0  0.15638  0.28203  0.04529  1.0000
  C   C73       1.0  0.0976  0.24133  0.07521  1.0000
  C   C74       1.0  0.31656  0.16747  0.96687  1.0000
  C   C75       1.0  0.02739  0.48078  0.439  1.0000
  C   C76       1.0  0.01545  0.41803999999999997  0.43812999999999996  1.0000
  C   C77       1.0  0.94118  0.3885199999999999  0.40422  1.0000
  C   C78       1.0  0.88054  0.42978  0.37299  1.0000
  C   C79       1.0  0.89639  0.49242  0.37594999999999995  1.0000
  C   C80       1.0  0.93124  0.32275  0.40138999999999997  1.0000
  C   C81       1.0  0.86543  0.29188  0.36496  1.0000
  C   C82       1.0  0.85814  0.2286  0.36443  1.0000
  C   C83       1.0  0.97465  0.22027  0.43258  1.0000
  C   C84       1.0  0.98644  0.28316  0.43549999999999994  1.0000
  C   C85       1.0  0.12382  0.59538  0.28888  1.0000
  C   C86       1.0  0.20175  0.58244  0.25186  1.0000
  C   C87       1.0  0.31296  0.57325  0.26562  1.0000
  C   C88       1.0  0.34149  0.5766  0.31567  1.0000
  C   C89       1.0  0.25923  0.59089  0.35023  1.0000
  C   C90       1.0  0.1651  0.57912  0.19863  1.0000
  C   C91       1.0  0.8542  0.57307  0.05029  1.0000
  C   C92       1.0  0.7384200000000001  0.57745  0.04617  1.0000
  C   C93       1.0  0.6746199999999999  0.58094  0.08954  1.0000
  C   C94       1.0  0.7288800000000001  0.58054  0.13518  1.0000
  C   C95       1.0  0.84473  0.57686  0.13622  1.0000
  C   C96       1.0  0.683  0.57886  0.99628  1.0000
  C   C97       1.0  0.81664  0.65648  0.46167  1.0000
  C   C98       1.0  0.75647  0.69421  0.49393  1.0000
  C   C99       1.0  0.76978  0.7579599999999999  0.49046  1.0000
  C   C100      1.0  0.8435799999999999  0.78198  0.4554  1.0000
  C   C101      1.0  0.90426  0.74134  0.42616  1.0000
  C   C102      1.0  0.68114  0.66724  0.53257  1.0000
  C   C103      1.0  0.97263  0.98185  0.0608  1.0000
  C   C104      1.0  0.985  0.91914  0.061579999999999996  1.0000
  C   C105      1.0  0.05942  0.88971  0.09548999999999999  1.0000
  C   C106      1.0  0.12017  0.93097  0.12662  1.0000
  C   C107      1.0  0.10397  0.99359  0.1237  1.0000
  C   C108      1.0  0.06927  0.82397  0.09847  1.0000
  C   C109      1.0  0.13479  0.79315  0.13506  1.0000
  C   C110      1.0  0.14171  0.72986  0.13574  1.0000
  C   C111      1.0  0.025690000000000004  0.72155  0.06739  1.0000
  C   C112      1.0  0.01417  0.78443  0.06433  1.0000
  C   C113      1.0  0.12433000000000001  0.9048299999999999  0.78895  1.0000
  C   C114      1.0  0.20192  0.91816  0.75189  1.0000
  C   C115      1.0  0.31327  0.9270899999999999  0.76557  1.0000
  C   C116      1.0  0.34213  0.9232600000000001  0.81555  1.0000
  C   C117      1.0  0.2602  0.90848  0.8501399999999999  1.0000
  C   C118      1.0  0.16507999999999998  0.92208  0.69868  1.0000
  C   C119      1.0  0.85411  0.9271  0.5503  1.0000
  C   C120      1.0  0.7384  0.9220099999999999  0.5462  1.0000
  C   C121      1.0  0.6748  0.9178  0.58959  1.0000
  C   C122      1.0  0.72911  0.9183500000000001  0.63522  1.0000
  C   C123      1.0  0.8449  0.9226799999999998  0.63622  1.0000
  C   C124      1.0  0.68294  0.92076  0.49631  1.0000
  C   C125      1.0  0.81594  0.8434  0.96104  1.0000
  C   C126      1.0  0.75758  0.80561  0.99395  1.0000
  C   C127      1.0  0.77145  0.74191  0.9904799999999999  1.0000
  C   C128      1.0  0.84362  0.71796  0.95471  1.0000
  C   C129      1.0  0.9024000000000001  0.7586699999999998  0.92479  1.0000
  C   C130      1.0  0.68344  0.8325300000000001  0.03313  1.0000
  C   C131      1.0  0.97261  0.51922  0.561  1.0000
  C   C132      1.0  0.98455  0.58196  0.56186  1.0000
  C   C133      1.0  0.058820000000000004  0.61148  0.5957799999999999  1.0000
  C   C134      1.0  0.11946  0.57022  0.62701  1.0000
  C   C135      1.0  0.10361000000000001  0.50758  0.62405  1.0000
  C   C136      1.0  0.06876  0.67724  0.59861  1.0000
  C   C137      1.0  0.13457  0.70811  0.63503  1.0000
  C   C138      1.0  0.14186  0.7714  0.63557  1.0000
  C   C139      1.0  0.02535  0.77972  0.56742  1.0000
  C   C140      1.0  0.01356  0.71684  0.5645  1.0000
  C   C141      1.0  0.87618  0.40462  0.71112  1.0000
  C   C142      1.0  0.79825  0.41756  0.7481399999999998  1.0000
  C   C143      1.0  0.68704  0.42675  0.7343699999999999  1.0000
  C   C144      1.0  0.65851  0.42339  0.6843299999999999  1.0000
  C   C145      1.0  0.7407700000000002  0.40911  0.64976  1.0000
  C   C146      1.0  0.8349000000000001  0.4208700000000001  0.80137  1.0000
  C   C147      1.0  0.1458  0.4269200000000001  0.94971  1.0000
  C   C148      1.0  0.26158  0.42254  0.95383  1.0000
  C   C149      1.0  0.32539  0.41905000000000003  0.91045  1.0000
  C   C150      1.0  0.27112  0.41945999999999994  0.86482  1.0000
  C   C151      1.0  0.15527  0.42313999999999996  0.86377  1.0000
  C   C152      1.0  0.317  0.42114  0.00372  1.0000
  C   C153      1.0  0.18336000000000002  0.34352  0.53832  1.0000
  C   C154      1.0  0.24353000000000002  0.30578  0.50607  1.0000
  C   C155      1.0  0.23022  0.24204  0.50954  1.0000
  C   C156      1.0  0.15642  0.21801  0.5446  1.0000
  C   C157      1.0  0.09574  0.25866  0.57384  1.0000
  C   C158      1.0  0.31886  0.33276  0.46742  1.0000
  C   C159      1.0  0.027370000000000002  0.01814  0.9392  1.0000
  C   C160      1.0  0.015  0.08086  0.93842  1.0000
  C   C161      1.0  0.9405800000000001  0.11028999999999999  0.90451  1.0000
  C   C162      1.0  0.87983  0.06902  0.87338  1.0000
  C   C163      1.0  0.89603  0.00641  0.8763  1.0000
  C   C164      1.0  0.93073  0.17603  0.90152  1.0000
  C   C165      1.0  0.86521  0.20685000000000003  0.86494  1.0000
  C   C166      1.0  0.85829  0.27014  0.86426  1.0000
  C   C167      1.0  0.97431  0.27844  0.93261  1.0000
  C   C168      1.0  0.98583  0.21557  0.93567  1.0000
  C   C169      1.0  0.3759100000000001  0.40371  0.2886  1.0000
  C   C170      1.0  0.29812  0.41724  0.25174  1.0000
  C   C171      1.0  0.18701  0.42668000000000006  0.26563  1.0000
  C   C172      1.0  0.15854  0.42308000000000007  0.31568999999999997  1.0000
  C   C173      1.0  0.24064  0.40825000000000006  0.35013  1.0000
  C   C174      1.0  0.33494  0.4207699999999999  0.19853  1.0000
  C   C175      1.0  0.64641  0.42685  0.05037  1.0000
  C   C176      1.0  0.7620500000000001  0.42146  0.04624  1.0000
  C   C177      1.0  0.8256300000000001  0.41711  0.08956999999999998  1.0000
  C   C178      1.0  0.7712000000000001  0.41762  0.13522  1.0000
  C   C179      1.0  0.6554  0.42183000000000004  0.13626  1.0000
  C   C180      1.0  0.81738  0.41972  0.99631  1.0000
  C   C181      1.0  0.68431  0.34305  0.46047  1.0000
  C   C182      1.0  0.74295  0.30588  0.49367  1.0000
  C   C183      1.0  0.72987  0.24207  0.49072999999999994  1.0000
  C   C184      1.0  0.65772  0.21749999999999997  0.45526  1.0000
  C   C185      1.0  0.59838  0.25764  0.42509  1.0000
  C   C186      1.0  0.81688  0.33381  0.53237  1.0000
  C   C187      1.0  0.52702  0.01761  0.060979999999999986  1.0000
  C   C188      1.0  0.51466  0.08035  0.06144  1.0000
  C   C189      1.0  0.44067000000000006  0.11008  0.09543  1.0000
  C   C190      1.0  0.38027  0.06904  0.12696  1.0000
  C   C191      1.0  0.39643  0.0064  0.12433  1.0000
  C   C192      1.0  0.43094000000000005  0.17586  0.09819  1.0000
  C   C193      1.0  0.36511  0.20683999999999997  0.13462  1.0000
  C   C194      1.0  0.35835  0.27014  0.13521  1.0000
  C   C195      1.0  0.47539  0.27821  0.06712  1.0000
  C   C196      1.0  0.48665  0.2153  0.06411  1.0000
  C   C197      1.0  0.62547  0.90388  0.21136  1.0000
  C   C198      1.0  0.70281  0.91729  0.24841  1.0000
  C   C199      1.0  0.81409  0.92671  0.23478999999999997  1.0000
  C   C200      1.0  0.84317  0.92312  0.1848  1.0000
  C   C201      1.0  0.7614600000000001  0.9083800000000001  0.15016  1.0000
  C   C202      1.0  0.66538  0.9208099999999999  0.30153  1.0000
  C   C203      1.0  0.35409  0.92791  0.44969  1.0000
  C   C204      1.0  0.23838  0.92304  0.45385  1.0000
  C   C205      1.0  0.1748  0.91838  0.41054  1.0000
  C   C206      1.0  0.22920000000000001  0.9183599999999998  0.3649  1.0000
  C   C207      1.0  0.34502  0.92234  0.36382  1.0000
  C   C208      1.0  0.18287  0.92212  0.50376  1.0000
  C   C209      1.0  0.31644  0.84364  0.040049999999999995  1.0000
  C   C210      1.0  0.25671  0.8064299999999999  0.00735  1.0000
  C   C211      1.0  0.26924  0.74258  0.01041  1.0000
  C   C212      1.0  0.34299  0.71804  0.045259999999999995  1.0000
  C   C213      1.0  0.4039  0.7582  0.07473999999999999  1.0000
  C   C214      1.0  0.18332  0.83448  0.96856  1.0000
  C   C215      1.0  0.47381  0.51748  0.43884  1.0000
  C   C216      1.0  0.48579000000000006  0.58025  0.43835  1.0000
  C   C217      1.0  0.55974  0.61008  0.40440999999999994  1.0000
  C   C218      1.0  0.62035  0.56909  0.37289999999999995  1.0000
  C   C219      1.0  0.60453  0.50643  0.37553  1.0000
  C   C220      1.0  0.56935  0.67587  0.4017  1.0000
  C   C221      1.0  0.6352  0.70689  0.36531  1.0000
  C   C222      1.0  0.64193  0.77019  0.36476  1.0000
  C   C223      1.0  0.52486  0.77821  0.43284  1.0000
  C   C224      1.0  0.51358  0.71529  0.43578999999999996  1.0000
  N   N1        1.0  0.65204  0.60187  0.66312  1.0000
  N   N2        1.0  0.4063  0.57342  0.9054399999999998  1.0000
  N   N3        1.0  0.38871  0.68047  0.57275  1.0000
  N   N4        1.0  0.53084  0.02093  0.90795  1.0000
  N   N5        1.0  0.58758  0.69316  0.89785  1.0000
  N   N6        1.0  0.34602  0.10160000000000001  0.83684  1.0000
  N   N7        1.0  0.59322  0.07285  0.5945  1.0000
  N   N8        1.0  0.60926  0.17989  0.9272699999999998  1.0000
  N   N9        1.0  0.46802000000000005  0.52102  0.59217  1.0000
  N   N10       1.0  0.41216  0.19313  0.6021499999999999  1.0000
  N   N11       1.0  0.8473100000000001  0.10117  0.16287  1.0000
  N   N12       1.0  0.09331  0.07286  0.40551  1.0000
  N   N13       1.0  0.11079000000000001  0.1795  0.07244  1.0000
  N   N14       1.0  0.9689900000000001  0.51956  0.40834  1.0000
  N   N15       1.0  0.91164  0.19174999999999998  0.39756  1.0000
  N   N16       1.0  0.15177  0.60063  0.33714  1.0000
  N   N17       1.0  0.90672  0.57299  0.09449  1.0000
  N   N18       1.0  0.89114  0.67949  0.42881  1.0000
  N   N19       1.0  0.03087  0.02063  0.09146  1.0000
  N   N20       1.0  0.08819  0.69308  0.10262  1.0000
  N   N21       1.0  0.15269  0.8988300000000001  0.83713  1.0000
  N   N22       1.0  0.90669  0.9271399999999999  0.59448  1.0000
  N   N23       1.0  0.88921  0.82049  0.92756  1.0000
  N   N24       1.0  0.031010000000000003  0.48044  0.59165  1.0000
  N   N25       1.0  0.08836000000000001  0.80825  0.60244  1.0000
  N   N26       1.0  0.84823  0.39936999999999995  0.66285  1.0000
  N   N27       1.0  0.09328000000000002  0.427  0.90551  1.0000
  N   N28       1.0  0.10886  0.32051  0.57118  1.0000
  N   N29       1.0  0.96913  0.9793600000000001  0.90854  1.0000
  N   N30       1.0  0.91181  0.30691  0.8973799999999998  1.0000
  N   N31       1.0  0.34797  0.3981199999999999  0.33686999999999995  1.0000
  N   N32       1.0  0.5937  0.42657000000000006  0.09456  1.0000
  N   N33       1.0  0.61129  0.31952  0.4272499999999999  1.0000
  N   N34       1.0  0.46916  0.97907  0.09205  1.0000
  N   N35       1.0  0.41242000000000006  0.30684  0.10214999999999999  1.0000
  N   N36       1.0  0.65398  0.8984000000000001  0.16316  1.0000
  N   N37       1.0  0.40678  0.92715  0.4055  1.0000
  N   N38       1.0  0.39074000000000003  0.8200999999999999  0.07272  1.0000
  N   N39       1.0  0.53198  0.47898  0.40783  1.0000
  N   N40       1.0  0.58784  0.8068599999999999  0.39784  1.0000
  O   O1        1.0  0.56147  0.57231  0.80991  1.0000
  O   O2        1.0  0.73889  0.58475  0.83497  1.0000
  O   O3        1.0  0.24413  0.57535  0.042319999999999997  1.0000
  O   O4        1.0  0.07802  0.58784  0.00504  1.0000
  O   O5        1.0  0.16162  0.6086  0.47024  1.0000
  O   O6        1.0  0.14514000000000005  0.70082  0.4336  1.0000
  O   O7        1.0  0.43828  0.07235  0.69014  1.0000
  O   O8        1.0  0.26097  0.0847  0.66489  1.0000
  O   O9        1.0  0.75574  0.07282  0.4576  1.0000
  O   O10       1.0  0.92184  0.08492  0.49494999999999995  1.0000
  O   O11       1.0  0.83627  0.10772000000000001  0.02974  1.0000
  O   O12       1.0  0.8556700000000002  0.20062  0.06496  1.0000
  O   O13       1.0  0.93808  0.06939  0.30982  1.0000
  O   O14       1.0  0.7612  0.08473  0.3348  1.0000
  O   O15       1.0  0.25539  0.07573  0.54238  1.0000
  O   O16       1.0  0.42205000000000004  0.08493  0.50499  1.0000
  O   O17       1.0  0.3377  0.10967  0.9684599999999999  1.0000
  O   O18       1.0  0.35493  0.20306  0.9336  1.0000
  O   O19       1.0  0.06153000000000001  0.57228  0.19014  1.0000
  O   O20       1.0  0.23902  0.58472  0.16512  1.0000
  O   O21       1.0  0.74495  0.57818  0.95757  1.0000
  O   O22       1.0  0.57773  0.58192  0.99499  1.0000
  O   O23       1.0  0.66243  0.60922  0.53184  1.0000
  O   O24       1.0  0.63951  0.70316  0.56485  1.0000
  O   O25       1.0  0.06192000000000001  0.9306100000000002  0.6901799999999999  1.0000
  O   O26       1.0  0.2388  0.91527  0.6652  1.0000
  O   O27       1.0  0.74461  0.92426  0.45761999999999997  1.0000
  O   O28       1.0  0.57795  0.9150700000000002  0.49501  1.0000
  O   O29       1.0  0.6623  0.89032  0.03154  1.0000
  O   O30       1.0  0.64507  0.7969299999999999  0.0664  1.0000
  O   O31       1.0  0.93847  0.42771  0.80985  1.0000
  O   O32       1.0  0.76098  0.41527  0.8348799999999998  1.0000
  O   O33       1.0  0.25505  0.42181  0.04242  1.0000
  O   O34       1.0  0.42227000000000003  0.41808  0.00501  1.0000
  O   O35       1.0  0.33757000000000004  0.39077999999999996  0.46816  1.0000
  O   O36       1.0  0.36049  0.29684  0.43515  1.0000
  O   O37       1.0  0.43853  0.42768  0.19008  1.0000
  O   O38       1.0  0.26111  0.41525  0.16503  1.0000
  O   O39       1.0  0.75587  0.42464  0.9576699999999999  1.0000
  O   O40       1.0  0.92198  0.41216  0.99496  1.0000
  O   O41       1.0  0.8383800000000001  0.3914000000000001  0.52975  1.0000
  O   O42       1.0  0.85486  0.29917  0.56639  1.0000
  O   O43       1.0  0.56172  0.92765  0.30985  1.0000
  O   O44       1.0  0.73903  0.9152999999999999  0.3351  1.0000
  O   O45       1.0  0.24426  0.9271800000000001  0.5424  1.0000
  O   O46       1.0  0.07816  0.9150700000000002  0.50505  1.0000
  O   O47       1.0  0.16374  0.89228  0.97026  1.0000
  O   O48       1.0  0.14433  0.79937  0.93504  1.0000
