data_image0
_chemical_formula_structural       Zn12H144C264N72O50
_chemical_formula_sum              "Zn12 H144 C264 N72 O50"
_cell_length_a       24.18274
_cell_length_b       24.182800000000004
_cell_length_c       38.10808
_cell_angle_alpha    90.0
_cell_angle_beta     90.0
_cell_angle_gamma    104.16619

_space_group_name_H-M_alt    "P 1"
_space_group_IT_number       1

loop_
  _space_group_symop_operation_xyz
  'x, y, z'

loop_
  _atom_site_type_symbol
  _atom_site_label
  _atom_site_symmetry_multiplicity
  _atom_site_fract_x
  _atom_site_fract_y
  _atom_site_fract_z
  _atom_site_occupancy
  Zn  Zn1       1.0  0.79338  0.13705000000000003  0.21608999999999998  1.0000
  Zn  Zn2       1.0  0.77585  0.014880000000000003  0.16065  1.0000
  Zn  Zn3       1.0  0.76246  0.90388  0.11013999999999999  1.0000
  Zn  Zn4       1.0  0.20663  0.86296  0.7160899999999999  1.0000
  Zn  Zn5       1.0  0.22415  0.98513  0.66065  1.0000
  Zn  Zn6       1.0  0.23755  0.09613000000000001  0.61014  1.0000
  Zn  Zn7       1.0  0.86296  0.20663  0.2839  1.0000
  Zn  Zn8       1.0  0.98513  0.22415  0.3393499999999999  1.0000
  Zn  Zn9       1.0  0.09613000000000001  0.23755  0.38985  1.0000
  Zn  Zn10      1.0  0.13705  0.79338  0.7838999999999998  1.0000
  Zn  Zn11      1.0  0.014879999999999999  0.77586  0.8393399999999999  1.0000
  Zn  Zn12      1.0  0.9038800000000001  0.76245  0.88985  1.0000
  H   H1        1.0  0.85946  0.23853  0.12732999999999997  1.0000
  H   H2        1.0  0.9056  0.28475  0.07207  1.0000
  H   H3        1.0  0.9606600000000001  0.13224  0.048399999999999985  1.0000
  H   H4        1.0  0.91158  0.08600000000000001  0.10206  1.0000
  H   H5        1.0  0.97457  0.16776  0.9945799999999999  1.0000
  H   H6        1.0  0.03102  0.17178000000000002  0.9389  1.0000
  H   H7        1.0  0.08589  0.26695  0.8440799999999999  1.0000
  H   H8        1.0  0.01746000000000002  0.34540000000000004  0.9297299999999998  1.0000
  H   H9        1.0  0.11523  0.18412  0.8222799999999998  1.0000
  H   H10       1.0  0.08019999999999997  0.98724  0.83786  1.0000
  H   H11       1.0  0.11729000000000005  0.93323  0.79098  1.0000
  H   H12       1.0  0.20984999999999998  0.09079  0.74504  1.0000
  H   H13       1.0  0.17554  0.14532000000000003  0.7922699999999999  1.0000
  H   H14       1.0  0.04415000000000001  0.43512000000000006  0.89699  1.0000
  H   H15       1.0  0.11376000000000001  0.51099  0.7874399999999999  1.0000
  H   H16       1.0  0.11966999999999997  0.61495  0.77776  1.0000
  H   H17       1.0  0.038270000000000005  0.62311  0.87688  1.0000
  H   H18       1.0  0.033309999999999985  0.52063  0.88742  1.0000
  H   H19       1.0  0.84174  0.80291  0.18201  1.0000
  H   H20       1.0  0.90273  0.78488  0.23160999999999998  1.0000
  H   H21       1.0  0.9813099999999999  0.96503  0.23732999999999996  1.0000
  H   H22       1.0  0.91661  0.98256  0.1895  1.0000
  H   H23       1.0  0.98046  0.77612  0.25944  1.0000
  H   H24       1.0  0.03180000000000001  0.71897  0.29039999999999994  1.0000
  H   H25       1.0  0.11282  0.69197  0.38734  1.0000
  H   H26       1.0  0.07382000000000002  0.85338  0.3675399999999999  1.0000
  H   H27       1.0  0.09996000000000002  0.59672  0.37201  1.0000
  H   H28       1.0  0.1264  0.52285  0.38007  1.0000
  H   H29       1.0  0.13223  0.42474  0.39539  1.0000
  H   H30       1.0  0.05013  0.36163  0.29864  1.0000
  H   H31       1.0  0.04294  0.46063  0.2826  1.0000
  H   H32       1.0  0.11765  0.88471  0.42375999999999997  1.0000
  H   H33       1.0  0.20207  0.82237  0.5230299999999999  1.0000
  H   H34       1.0  0.23012  0.89388  0.57178  1.0000
  H   H35       1.0  0.16567  0.01561  0.51281  1.0000
  H   H36       1.0  0.13651  0.94531  0.46466  1.0000
  H   H37       1.0  0.14054000000000008  0.7614700000000002  0.62733  1.0000
  H   H38       1.0  0.0944  0.71526  0.57207  1.0000
  H   H39       1.0  0.03935000000000003  0.8677600000000001  0.5483999999999999  1.0000
  H   H40       1.0  0.08843000000000005  0.9140100000000001  0.6020499999999999  1.0000
  H   H41       1.0  0.025429999999999977  0.83225  0.49457999999999996  1.0000
  H   H42       1.0  0.96899  0.82823  0.4389  1.0000
  H   H43       1.0  0.91411  0.7330600000000002  0.3440799999999999  1.0000
  H   H44       1.0  0.98255  0.6546000000000001  0.42973999999999996  1.0000
  H   H45       1.0  0.8847799999999999  0.81589  0.32228  1.0000
  H   H46       1.0  0.9198  0.01277  0.33786  1.0000
  H   H47       1.0  0.88271  0.06677  0.29098  1.0000
  H   H48       1.0  0.7901600000000001  0.90921  0.24503999999999995  1.0000
  H   H49       1.0  0.82447  0.85468  0.2922699999999999  1.0000
  H   H50       1.0  0.95586  0.56489  0.3969899999999999  1.0000
  H   H51       1.0  0.88625  0.48902  0.28744  1.0000
  H   H52       1.0  0.88034  0.38506000000000007  0.27776  1.0000
  H   H53       1.0  0.96174  0.37689  0.37688  1.0000
  H   H54       1.0  0.96669  0.4793700000000001  0.38742  1.0000
  H   H55       1.0  0.15825999999999998  0.1971  0.6820099999999998  1.0000
  H   H56       1.0  0.09728  0.21512  0.73161  1.0000
  H   H57       1.0  0.01869  0.03498  0.73733  1.0000
  H   H58       1.0  0.0834  0.01744  0.6895  1.0000
  H   H59       1.0  0.019540000000000005  0.22388000000000005  0.75944  1.0000
  H   H60       1.0  0.9682099999999999  0.28103  0.7904  1.0000
  H   H61       1.0  0.88719  0.30804  0.8873399999999999  1.0000
  H   H62       1.0  0.92619  0.14662  0.86754  1.0000
  H   H63       1.0  0.90004  0.40328  0.872  1.0000
  H   H64       1.0  0.87361  0.47716  0.8800699999999999  1.0000
  H   H65       1.0  0.8677900000000001  0.57527  0.89539  1.0000
  H   H66       1.0  0.94988  0.63837  0.79864  1.0000
  H   H67       1.0  0.9570600000000001  0.53937  0.7825999999999997  1.0000
  H   H68       1.0  0.88236  0.1153  0.92376  1.0000
  H   H69       1.0  0.79794  0.17764  0.023029999999999995  1.0000
  H   H70       1.0  0.76988  0.10613  0.07179  1.0000
  H   H71       1.0  0.83433  0.9844000000000003  0.012809999999999998  1.0000
  H   H72       1.0  0.8635  0.05469  0.9646599999999997  1.0000
  H   H73       1.0  0.76147  0.14054  0.37266  1.0000
  H   H74       1.0  0.71526  0.09440000000000001  0.42791999999999997  1.0000
  H   H75       1.0  0.86776  0.03935  0.4516  1.0000
  H   H76       1.0  0.914  0.08842  0.3979399999999999  1.0000
  H   H77       1.0  0.8322500000000002  0.025430000000000005  0.5054099999999999  1.0000
  H   H78       1.0  0.82823  0.96899  0.5611  1.0000
  H   H79       1.0  0.7330600000000002  0.91411  0.6559099999999999  1.0000
  H   H80       1.0  0.65461  0.98255  0.57026  1.0000
  H   H81       1.0  0.81589  0.8847800000000001  0.67772  1.0000
  H   H82       1.0  0.01276999999999999  0.9198  0.66213  1.0000
  H   H83       1.0  0.06678  0.88272  0.70901  1.0000
  H   H84       1.0  0.9092199999999999  0.79016  0.7549599999999999  1.0000
  H   H85       1.0  0.85468  0.82447  0.7077199999999999  1.0000
  H   H86       1.0  0.56489  0.95586  0.6030099999999999  1.0000
  H   H87       1.0  0.48901999999999995  0.88625  0.71256  1.0000
  H   H88       1.0  0.38506  0.88034  0.72224  1.0000
  H   H89       1.0  0.3769  0.96174  0.62312  1.0000
  H   H90       1.0  0.4793700000000001  0.9666900000000002  0.6125799999999998  1.0000
  H   H91       1.0  0.1971  0.15826  0.31798  1.0000
  H   H92       1.0  0.21512  0.09728  0.26838  1.0000
  H   H93       1.0  0.03498  0.01869  0.26267  1.0000
  H   H94       1.0  0.01744  0.0834  0.3105  1.0000
  H   H95       1.0  0.22388000000000002  0.01954  0.24056  1.0000
  H   H96       1.0  0.28103  0.96821  0.20958999999999994  1.0000
  H   H97       1.0  0.3080399999999999  0.8871900000000001  0.11265999999999998  1.0000
  H   H98       1.0  0.14662  0.92619  0.13246  1.0000
  H   H99       1.0  0.4032800000000001  0.90004  0.12799  1.0000
  H   H100      1.0  0.47716000000000003  0.8736  0.11993  1.0000
  H   H101      1.0  0.5752700000000001  0.8677800000000001  0.10461  1.0000
  H   H102      1.0  0.63837  0.9498800000000001  0.20135  1.0000
  H   H103      1.0  0.53937  0.95706  0.2174  1.0000
  H   H104      1.0  0.11530000000000003  0.8823600000000001  0.07624  1.0000
  H   H105      1.0  0.17763999999999996  0.79794  0.97697  1.0000
  H   H106      1.0  0.10612999999999997  0.76988  0.92821  1.0000
  H   H107      1.0  0.9844  0.83433  0.98718  1.0000
  H   H108      1.0  0.05469000000000004  0.86349  0.03534  1.0000
  H   H109      1.0  0.23854  0.8594700000000001  0.87266  1.0000
  H   H110      1.0  0.28475  0.90561  0.92792  1.0000
  H   H111      1.0  0.1322500000000001  0.9606500000000002  0.9516  1.0000
  H   H112      1.0  0.08600000000000002  0.9115800000000001  0.89794  1.0000
  H   H113      1.0  0.16775999999999996  0.97457  0.00541  1.0000
  H   H114      1.0  0.17176999999999998  0.031020000000000002  0.0611  1.0000
  H   H115      1.0  0.26695  0.08589000000000001  0.15590999999999997  1.0000
  H   H116      1.0  0.34539999999999993  0.01746  0.07026  1.0000
  H   H117      1.0  0.18411  0.11523000000000001  0.17772  1.0000
  H   H118      1.0  0.98723  0.0802  0.16212999999999997  1.0000
  H   H119      1.0  0.93323  0.11729000000000002  0.20902  1.0000
  H   H120      1.0  0.09079  0.20985000000000004  0.25496  1.0000
  H   H121      1.0  0.14532  0.17554  0.20772  1.0000
  H   H122      1.0  0.43511000000000005  0.04415000000000001  0.10301  1.0000
  H   H123      1.0  0.51099  0.11376000000000003  0.21255999999999997  1.0000
  H   H124      1.0  0.61495  0.11966  0.22223999999999997  1.0000
  H   H125      1.0  0.62311  0.03827  0.12311999999999998  1.0000
  H   H126      1.0  0.52063  0.03331  0.11257999999999999  1.0000
  H   H127      1.0  0.80291  0.84174  0.8179799999999999  1.0000
  H   H128      1.0  0.78489  0.90273  0.76838  1.0000
  H   H129      1.0  0.9650300000000002  0.98131  0.7626699999999998  1.0000
  H   H130      1.0  0.98257  0.91661  0.8105  1.0000
  H   H131      1.0  0.77613  0.98046  0.74055  1.0000
  H   H132      1.0  0.7189699999999999  0.0318  0.70959  1.0000
  H   H133      1.0  0.69197  0.11282  0.61266  1.0000
  H   H134      1.0  0.85338  0.07382  0.6324599999999999  1.0000
  H   H135      1.0  0.59672  0.09996  0.62799  1.0000
  H   H136      1.0  0.5228500000000001  0.1264  0.61993  1.0000
  H   H137      1.0  0.42474  0.13222  0.60461  1.0000
  H   H138      1.0  0.36164  0.05013  0.70135  1.0000
  H   H139      1.0  0.46064  0.04295  0.7174  1.0000
  H   H140      1.0  0.88471  0.11765  0.57624  1.0000
  H   H141      1.0  0.82237  0.20206  0.47697  1.0000
  H   H142      1.0  0.89388  0.23012  0.4282099999999999  1.0000
  H   H143      1.0  0.015610000000000002  0.16567  0.48717999999999995  1.0000
  H   H144      1.0  0.94531  0.13651  0.53534  1.0000
  C   C1        1.0  0.8512600000000001  0.13044  0.14932  1.0000
  C   C2        1.0  0.88248  0.15949  0.11780999999999998  1.0000
  C   C3        1.0  0.88143  0.2158  0.10961999999999998  1.0000
  C   C4        1.0  0.90698  0.2416  0.07911  1.0000
  C   C5        1.0  0.9349200000000001  0.21102000000000004  0.05683  1.0000
  C   C6        1.0  0.93794  0.15543  0.06525  1.0000
  C   C7        1.0  0.91111  0.12965  0.09546999999999999  1.0000
  C   C8        1.0  0.9779  0.21302  0.99656  1.0000
  C   C9        1.0  0.9972400000000001  0.25782  0.9733999999999999  1.0000
  C   C10       1.0  0.021419999999999998  0.25872  0.9382599999999998  1.0000
  C   C11       1.0  0.03640000000000001  0.21108  0.9239899999999999  1.0000
  C   C12       1.0  0.05971000000000002  0.21336000000000005  0.8900199999999999  1.0000
  C   C13       1.0  0.06811  0.26412  0.8704099999999998  1.0000
  C   C14       1.0  0.053500000000000006  0.31223  0.88435  1.0000
  C   C15       1.0  0.029710000000000007  0.30903  0.9181799999999999  1.0000
  C   C16       1.0  0.07482  0.16324  0.8756299999999999  1.0000
  C   C17       1.0  0.10051999999999998  0.15559  0.84397  1.0000
  C   C18       1.0  0.12493  0.06936  0.8175599999999997  1.0000
  C   C19       1.0  0.10873  0.00953  0.8175999999999999  1.0000
  C   C20       1.0  0.12947999999999998  0.97965  0.7914799999999999  1.0000
  C   C21       1.0  0.16561  0.00889  0.76508  1.0000
  C   C22       1.0  0.18174000000000004  0.06868  0.76557  1.0000
  C   C23       1.0  0.162  0.09903  0.79181  1.0000
  C   C24       1.0  0.18651000000000004  0.97666  0.73625  1.0000
  C   C25       1.0  0.06286  0.36465  0.86371  1.0000
  C   C26       1.0  0.05658  0.41831000000000007  0.87278  1.0000
  C   C27       1.0  0.07395  0.50975  0.83801  1.0000
  C   C28       1.0  0.09786  0.53605  0.80689  1.0000
  C   C29       1.0  0.10085999999999999  0.5937  0.80162  1.0000
  C   C30       1.0  0.07961  0.62549  0.8268  1.0000
  C   C31       1.0  0.05547  0.59848  0.8577099999999999  1.0000
  C   C32       1.0  0.05267999999999999  0.54095  0.86347  1.0000
  C   C33       1.0  0.08113  0.68721  0.8203799999999998  1.0000
  C   C34       1.0  0.8382800000000001  0.9048800000000001  0.15458  1.0000
  C   C35       1.0  0.87595  0.89372  0.18304  1.0000
  C   C36       1.0  0.8722800000000002  0.8378500000000002  0.19455999999999996  1.0000
  C   C37       1.0  0.9065799999999999  0.8279500000000001  0.22198  1.0000
  C   C38       1.0  0.9455899999999999  0.87428  0.23722999999999997  1.0000
  C   C39       1.0  0.95017  0.93006  0.22559999999999997  1.0000
  C   C40       1.0  0.91478  0.93961  0.19879  1.0000
  C   C41       1.0  0.9937099999999999  0.81489  0.27457  1.0000
  C   C42       1.0  0.02608999999999999  0.82782  0.30485  1.0000
  C   C43       1.0  0.050790000000000064  0.7907600000000002  0.32669  1.0000
  C   C44       1.0  0.04997000000000006  0.7351000000000001  0.3155899999999999  1.0000
  C   C45       1.0  0.07226  0.69904  0.3371  1.0000
  C   C46       1.0  0.0951  0.71892  0.36999  1.0000
  C   C47       1.0  0.09634  0.77448  0.38129  1.0000
  C   C48       1.0  0.07421000000000001  0.81035  0.35947  1.0000
  C   C49       1.0  0.08561000000000003  0.59815  0.34529  1.0000
  C   C50       1.0  0.07120999999999998  0.6411  0.32608  1.0000
  C   C51       1.0  0.08330000000000001  0.49710000000000004  0.33057  1.0000
  C   C52       1.0  0.10916  0.4878  0.36224  1.0000
  C   C53       1.0  0.11281  0.43305  0.3708599999999999  1.0000
  C   C54       1.0  0.09097  0.38746  0.34804999999999997  1.0000
  C   C55       1.0  0.06669  0.3976  0.31599  1.0000
  C   C56       1.0  0.06281  0.4523400000000001  0.30698  1.0000
  C   C57       1.0  0.09206  0.32874  0.3587  1.0000
  C   C58       1.0  0.12027000000000003  0.79321  0.41563  1.0000
  C   C59       1.0  0.12744  0.8455  0.43207  1.0000
  C   C60       1.0  0.16765000000000002  0.87949  0.49121  1.0000
  C   C61       1.0  0.19427000000000005  0.8646400000000001  0.52123  1.0000
  C   C62       1.0  0.20988000000000004  0.90441  0.5480599999999999  1.0000
  C   C63       1.0  0.19974000000000006  0.9589200000000002  0.54509  1.0000
  C   C64       1.0  0.17319  0.97319  0.51488  1.0000
  C   C65       1.0  0.15683999999999995  0.93365  0.4879899999999999  1.0000
  C   C66       1.0  0.21683  0.00125  0.5740299999999999  1.0000
  C   C67       1.0  0.14875000000000002  0.86956  0.64932  1.0000
  C   C68       1.0  0.11751999999999996  0.84052  0.6178099999999999  1.0000
  C   C69       1.0  0.11856999999999995  0.7842  0.60962  1.0000
  C   C70       1.0  0.09302  0.7584  0.5791099999999999  1.0000
  C   C71       1.0  0.06509000000000005  0.7889900000000001  0.55683  1.0000
  C   C72       1.0  0.06207  0.84457  0.5652499999999999  1.0000
  C   C73       1.0  0.0889  0.87036  0.5954699999999999  1.0000
  C   C74       1.0  0.022109999999999977  0.78699  0.49657  1.0000
  C   C75       1.0  0.0027599999999999877  0.74219  0.4734  1.0000
  C   C76       1.0  0.97858  0.74128  0.43825999999999987  1.0000
  C   C77       1.0  0.96361  0.78893  0.42399  1.0000
  C   C78       1.0  0.9403  0.78664  0.39002  1.0000
  C   C79       1.0  0.9319  0.73588  0.37041999999999997  1.0000
  C   C80       1.0  0.94651  0.68778  0.38435  1.0000
  C   C81       1.0  0.97029  0.6909700000000001  0.41818  1.0000
  C   C82       1.0  0.9251899999999998  0.83677  0.37563  1.0000
  C   C83       1.0  0.8994900000000001  0.8444100000000001  0.34397  1.0000
  C   C84       1.0  0.8750800000000001  0.9306500000000001  0.31756  1.0000
  C   C85       1.0  0.8912699999999999  0.99047  0.3176  1.0000
  C   C86       1.0  0.87053  0.02035  0.29148  1.0000
  C   C87       1.0  0.83439  0.9911200000000001  0.26508  1.0000
  C   C88       1.0  0.81827  0.9313300000000001  0.26557  1.0000
  C   C89       1.0  0.83801  0.90097  0.2918099999999999  1.0000
  C   C90       1.0  0.8135  0.02335  0.23625  1.0000
  C   C91       1.0  0.93715  0.63535  0.36371  1.0000
  C   C92       1.0  0.94342  0.5817  0.37278  1.0000
  C   C93       1.0  0.92606  0.49025  0.33801  1.0000
  C   C94       1.0  0.90215  0.46396  0.30689  1.0000
  C   C95       1.0  0.8991500000000001  0.40631  0.30162  1.0000
  C   C96       1.0  0.9203900000000002  0.3745100000000001  0.3268  1.0000
  C   C97       1.0  0.94453  0.4015200000000001  0.35772  1.0000
  C   C98       1.0  0.94732  0.45905  0.36347999999999997  1.0000
  C   C99       1.0  0.91887  0.31279  0.32038  1.0000
  C   C100      1.0  0.16172  0.09513  0.65458  1.0000
  C   C101      1.0  0.12405  0.10629000000000002  0.68304  1.0000
  C   C102      1.0  0.12773  0.16215  0.69456  1.0000
  C   C103      1.0  0.09343000000000001  0.17205000000000004  0.72198  1.0000
  C   C104      1.0  0.05441000000000001  0.12572  0.73723  1.0000
  C   C105      1.0  0.04984  0.06994  0.7256  1.0000
  C   C106      1.0  0.08523  0.06039  0.69878  1.0000
  C   C107      1.0  0.006300000000000007  0.18511  0.77456  1.0000
  C   C108      1.0  0.97392  0.17219  0.8048499999999998  1.0000
  C   C109      1.0  0.94922  0.20924000000000004  0.82669  1.0000
  C   C110      1.0  0.9500400000000001  0.26491  0.8155899999999999  1.0000
  C   C111      1.0  0.9277500000000001  0.30097  0.8370999999999998  1.0000
  C   C112      1.0  0.90491  0.28108  0.86998  1.0000
  C   C113      1.0  0.90367  0.22552000000000003  0.88129  1.0000
  C   C114      1.0  0.9258  0.18965  0.8594699999999998  1.0000
  C   C115      1.0  0.9144  0.40185000000000004  0.84529  1.0000
  C   C116      1.0  0.9287999999999998  0.35890000000000005  0.8260799999999998  1.0000
  C   C117      1.0  0.9167  0.5029  0.83057  1.0000
  C   C118      1.0  0.89085  0.51221  0.8622399999999999  1.0000
  C   C119      1.0  0.8872  0.56696  0.87086  1.0000
  C   C120      1.0  0.9090399999999998  0.61254  0.84805  1.0000
  C   C121      1.0  0.9333200000000001  0.6024  0.81599  1.0000
  C   C122      1.0  0.9372  0.54766  0.80698  1.0000
  C   C123      1.0  0.90795  0.67127  0.8586899999999998  1.0000
  C   C124      1.0  0.87973  0.20679  0.91563  1.0000
  C   C125      1.0  0.87256  0.15451  0.9320699999999997  1.0000
  C   C126      1.0  0.83236  0.12052  0.9911999999999999  1.0000
  C   C127      1.0  0.80573  0.13537  0.021229999999999995  1.0000
  C   C128      1.0  0.79012  0.09559000000000001  0.04806  1.0000
  C   C129      1.0  0.80026  0.04109  0.04509  1.0000
  C   C130      1.0  0.8268099999999999  0.026810000000000004  0.01489  1.0000
  C   C131      1.0  0.84316  0.06636000000000002  0.98799  1.0000
  C   C132      1.0  0.7831800000000001  0.9987500000000001  0.07403  1.0000
  C   C133      1.0  0.86956  0.14874  0.3506799999999999  1.0000
  C   C134      1.0  0.84051  0.11752  0.3821899999999999  1.0000
  C   C135      1.0  0.7842000000000001  0.11857  0.3903699999999999  1.0000
  C   C136      1.0  0.7584  0.09303  0.42089  1.0000
  C   C137      1.0  0.78898  0.06508  0.44317  1.0000
  C   C138      1.0  0.84457  0.06206  0.43473999999999996  1.0000
  C   C139      1.0  0.87035  0.08889  0.4045299999999999  1.0000
  C   C140      1.0  0.78699  0.02211  0.50343  1.0000
  C   C141      1.0  0.74219  0.0027600000000000003  0.5265999999999998  1.0000
  C   C142      1.0  0.74129  0.97858  0.56174  1.0000
  C   C143      1.0  0.78893  0.96361  0.576  1.0000
  C   C144      1.0  0.78664  0.9403  0.60998  1.0000
  C   C145      1.0  0.73589  0.9319  0.62958  1.0000
  C   C146      1.0  0.68778  0.94651  0.61564  1.0000
  C   C147      1.0  0.69098  0.97029  0.58182  1.0000
  C   C148      1.0  0.83677  0.92519  0.6243699999999998  1.0000
  C   C149      1.0  0.8444099999999999  0.8994900000000001  0.65603  1.0000
  C   C150      1.0  0.93065  0.8750800000000002  0.68244  1.0000
  C   C151      1.0  0.9904799999999999  0.89127  0.6823899999999999  1.0000
  C   C152      1.0  0.020359999999999975  0.87053  0.70852  1.0000
  C   C153      1.0  0.99112  0.83439  0.73492  1.0000
  C   C154      1.0  0.9313300000000001  0.8182700000000002  0.73443  1.0000
  C   C155      1.0  0.90097  0.8380100000000001  0.7081899999999999  1.0000
  C   C156      1.0  0.023350000000000003  0.8135  0.76375  1.0000
  C   C157      1.0  0.63535  0.93715  0.63629  1.0000
  C   C158      1.0  0.5817  0.94342  0.62721  1.0000
  C   C159      1.0  0.49025  0.92606  0.66198  1.0000
  C   C160      1.0  0.46396000000000004  0.90215  0.69311  1.0000
  C   C161      1.0  0.40631  0.8991500000000001  0.69838  1.0000
  C   C162      1.0  0.37452  0.9204  0.6732  1.0000
  C   C163      1.0  0.4015300000000001  0.9445300000000001  0.64228  1.0000
  C   C164      1.0  0.45905000000000007  0.94733  0.6365199999999999  1.0000
  C   C165      1.0  0.3128  0.9188800000000001  0.67961  1.0000
  C   C166      1.0  0.09512999999999999  0.16172  0.34542  1.0000
  C   C167      1.0  0.10629  0.12405  0.31696  1.0000
  C   C168      1.0  0.16215  0.12773  0.30544  1.0000
  C   C169      1.0  0.17205  0.09343000000000001  0.27801  1.0000
  C   C170      1.0  0.12572  0.05441000000000001  0.26277  1.0000
  C   C171      1.0  0.06994000000000003  0.04984  0.2744  1.0000
  C   C172      1.0  0.06039  0.08523  0.30121  1.0000
  C   C173      1.0  0.18511  0.00629  0.22543  1.0000
  C   C174      1.0  0.17219  0.97392  0.19515  1.0000
  C   C175      1.0  0.20924000000000006  0.9492100000000001  0.17330999999999996  1.0000
  C   C176      1.0  0.26491  0.95003  0.18440999999999996  1.0000
  C   C177      1.0  0.30097000000000007  0.92775  0.16289999999999993  1.0000
  C   C178      1.0  0.28108  0.90491  0.13001  1.0000
  C   C179      1.0  0.22552000000000005  0.9036600000000001  0.11870999999999998  1.0000
  C   C180      1.0  0.18965  0.9258000000000001  0.14053  1.0000
  C   C181      1.0  0.40184999999999993  0.9144000000000002  0.15470999999999993  1.0000
  C   C182      1.0  0.35890000000000005  0.9288  0.17391999999999994  1.0000
  C   C183      1.0  0.5029  0.9167  0.16943  1.0000
  C   C184      1.0  0.51221  0.8908400000000002  0.13776  1.0000
  C   C185      1.0  0.56696  0.8872000000000001  0.12913999999999998  1.0000
  C   C186      1.0  0.61254  0.90904  0.15195  1.0000
  C   C187      1.0  0.60241  0.93332  0.18399999999999994  1.0000
  C   C188      1.0  0.54767  0.9372  0.19302  1.0000
  C   C189      1.0  0.67127  0.90795  0.1413  1.0000
  C   C190      1.0  0.20679  0.8797300000000001  0.08436999999999999  1.0000
  C   C191      1.0  0.15451  0.87256  0.06793  1.0000
  C   C192      1.0  0.12052000000000004  0.83236  0.00879  1.0000
  C   C193      1.0  0.13537  0.80574  0.97877  1.0000
  C   C194      1.0  0.0956  0.79013  0.95194  1.0000
  C   C195      1.0  0.041090000000000064  0.8002600000000002  0.9549  1.0000
  C   C196      1.0  0.026810000000000007  0.82681  0.9851099999999999  1.0000
  C   C197      1.0  0.06636  0.84316  0.01201  1.0000
  C   C198      1.0  0.99876  0.78318  0.9259599999999998  1.0000
  C   C199      1.0  0.13045000000000004  0.85126  0.85068  1.0000
  C   C200      1.0  0.15949  0.88248  0.8821899999999999  1.0000
  C   C201      1.0  0.21581  0.88144  0.8903699999999999  1.0000
  C   C202      1.0  0.2416  0.90698  0.9208899999999999  1.0000
  C   C203      1.0  0.21102  0.93492  0.9431599999999999  1.0000
  C   C204      1.0  0.15543000000000004  0.9379400000000001  0.93474  1.0000
  C   C205      1.0  0.12965000000000007  0.9111100000000002  0.90453  1.0000
  C   C206      1.0  0.21302  0.9779  0.00343  1.0000
  C   C207      1.0  0.25782  0.99724  0.026599999999999995  1.0000
  C   C208      1.0  0.25872  0.021420000000000005  0.061739999999999996  1.0000
  C   C209      1.0  0.21108  0.03639  0.07601  1.0000
  C   C210      1.0  0.21336  0.0597  0.10998  1.0000
  C   C211      1.0  0.26412  0.06811  0.12958  1.0000
  C   C212      1.0  0.31223  0.053500000000000006  0.11563999999999999  1.0000
  C   C213      1.0  0.30903  0.02971  0.08182  1.0000
  C   C214      1.0  0.16323  0.07481  0.12436999999999998  1.0000
  C   C215      1.0  0.15559  0.10052  0.15603  1.0000
  C   C216      1.0  0.06935  0.12493000000000003  0.18243999999999996  1.0000
  C   C217      1.0  0.009530000000000007  0.10873000000000001  0.1824  1.0000
  C   C218      1.0  0.97965  0.12948  0.20852  1.0000
  C   C219      1.0  0.00889  0.16561  0.23491999999999996  1.0000
  C   C220      1.0  0.06868  0.18173  0.23442999999999997  1.0000
  C   C221      1.0  0.09903  0.162  0.20819  1.0000
  C   C222      1.0  0.9766500000000001  0.18651000000000004  0.26375  1.0000
  C   C223      1.0  0.36465000000000003  0.06286  0.13629  1.0000
  C   C224      1.0  0.41831  0.05658  0.12721  1.0000
  C   C225      1.0  0.50975  0.07394  0.16197999999999999  1.0000
  C   C226      1.0  0.53605  0.09786  0.19311  1.0000
  C   C227      1.0  0.5937  0.10085000000000001  0.19838  1.0000
  C   C228      1.0  0.62549  0.07961  0.1732  1.0000
  C   C229      1.0  0.59848  0.055470000000000005  0.14227999999999996  1.0000
  C   C230      1.0  0.54095  0.05268  0.13652  1.0000
  C   C231      1.0  0.68721  0.08113  0.17960999999999996  1.0000
  C   C232      1.0  0.9048800000000001  0.83828  0.8454099999999999  1.0000
  C   C233      1.0  0.8937200000000002  0.8759500000000001  0.8169599999999998  1.0000
  C   C234      1.0  0.83785  0.87228  0.80544  1.0000
  C   C235      1.0  0.82796  0.90658  0.77801  1.0000
  C   C236      1.0  0.8742800000000001  0.9455900000000002  0.7627599999999998  1.0000
  C   C237      1.0  0.93007  0.95017  0.7743999999999998  1.0000
  C   C238      1.0  0.93962  0.9147800000000003  0.80121  1.0000
  C   C239      1.0  0.8149000000000001  0.9937100000000001  0.72543  1.0000
  C   C240      1.0  0.82782  0.026080000000000006  0.69515  1.0000
  C   C241      1.0  0.79076  0.05079  0.67331  1.0000
  C   C242      1.0  0.7351  0.04997  0.68441  1.0000
  C   C243      1.0  0.69904  0.07225  0.66289  1.0000
  C   C244      1.0  0.7189199999999999  0.09510000000000003  0.63001  1.0000
  C   C245      1.0  0.7744799999999998  0.09634  0.6187099999999998  1.0000
  C   C246      1.0  0.81035  0.07421  0.6405299999999999  1.0000
  C   C247      1.0  0.59815  0.08561  0.6547  1.0000
  C   C248      1.0  0.6411  0.07121  0.67392  1.0000
  C   C249      1.0  0.4971  0.0833  0.66942  1.0000
  C   C250      1.0  0.4878  0.10916  0.63775  1.0000
  C   C251      1.0  0.43305  0.11280000000000001  0.6291299999999999  1.0000
  C   C252      1.0  0.38746  0.09096000000000001  0.6519399999999999  1.0000
  C   C253      1.0  0.3976  0.06669  0.684  1.0000
  C   C254      1.0  0.4523400000000001  0.06281  0.69302  1.0000
  C   C255      1.0  0.32874  0.09206  0.6413  1.0000
  C   C256      1.0  0.79321  0.12027  0.58436  1.0000
  C   C257      1.0  0.8455000000000001  0.12744  0.56793  1.0000
  C   C258      1.0  0.87949  0.16764  0.50879  1.0000
  C   C259      1.0  0.8646400000000001  0.19427  0.4787699999999999  1.0000
  C   C260      1.0  0.90441  0.20988  0.45194  1.0000
  C   C261      1.0  0.9589099999999999  0.19974  0.4549099999999999  1.0000
  C   C262      1.0  0.97319  0.17319  0.48510999999999993  1.0000
  C   C263      1.0  0.93365  0.15684  0.51201  1.0000
  C   C264      1.0  0.0012500000000000094  0.21682000000000004  0.42596999999999996  1.0000
  N   N1        1.0  0.95968  0.23707  0.02527  1.0000
  N   N2        1.0  0.9898299999999999  0.30689  0.9891399999999999  1.0000
  N   N3        1.0  0.9674200000000001  0.29505  0.02019  1.0000
  N   N4        1.0  0.06332  0.1118  0.89329  1.0000
  N   N5        1.0  0.07988  0.07367  0.87455  1.0000
  N   N6        1.0  0.10314  0.10013  0.84382  1.0000
  N   N7        1.0  0.07164  0.4509  0.8434699999999999  1.0000
  N   N8        1.0  0.08675000000000004  0.41859000000000013  0.81704  1.0000
  N   N9        1.0  0.08133  0.36712  0.8294099999999999  1.0000
  N   N10       1.0  0.9805200000000001  0.86439  0.26527  1.0000
  N   N11       1.0  0.031189999999999996  0.88464  0.31244999999999995  1.0000
  N   N12       1.0  0.00406999999999998  0.90708  0.28885  1.0000
  N   N13       1.0  0.05403000000000001  0.61979  0.29323999999999995  1.0000
  N   N14       1.0  0.05705999999999998  0.56661  0.29122  1.0000
  N   N15       1.0  0.07648999999999997  0.55256  0.32326  1.0000
  N   N16       1.0  0.15165000000000003  0.8392200000000001  0.46365  1.0000
  N   N17       1.0  0.15903  0.7847  0.46685  1.0000
  N   N18       1.0  0.14018  0.75756  0.43791  1.0000
  N   N19       1.0  0.040319999999999995  0.76293  0.52527  1.0000
  N   N20       1.0  0.010179999999999988  0.69311  0.48914  1.0000
  N   N21       1.0  0.03259000000000001  0.70495  0.5201899999999999  1.0000
  N   N22       1.0  0.93669  0.88821  0.39329  1.0000
  N   N23       1.0  0.92013  0.9263400000000002  0.37455  1.0000
  N   N24       1.0  0.8968600000000001  0.89988  0.34382  1.0000
  N   N25       1.0  0.9283600000000001  0.5491  0.34346999999999994  1.0000
  N   N26       1.0  0.91326  0.58142  0.31704  1.0000
  N   N27       1.0  0.9186800000000002  0.63289  0.3294199999999999  1.0000
  N   N28       1.0  0.01949  0.13561  0.76527  1.0000
  N   N29       1.0  0.96882  0.11537  0.8124499999999999  1.0000
  N   N30       1.0  0.99594  0.09292  0.7888499999999999  1.0000
  N   N31       1.0  0.9459799999999999  0.38021000000000005  0.79324  1.0000
  N   N32       1.0  0.94295  0.4334  0.7912199999999999  1.0000
  N   N33       1.0  0.9235200000000001  0.44745  0.8232599999999998  1.0000
  N   N34       1.0  0.84836  0.16079  0.96365  1.0000
  N   N35       1.0  0.84098  0.21531000000000006  0.9668499999999999  1.0000
  N   N36       1.0  0.85983  0.24244000000000002  0.9378999999999997  1.0000
  N   N37       1.0  0.76293  0.04032  0.47472  1.0000
  N   N38       1.0  0.69311  0.01018  0.51085  1.0000
  N   N39       1.0  0.70495  0.03259  0.47979999999999995  1.0000
  N   N40       1.0  0.88821  0.93669  0.60671  1.0000
  N   N41       1.0  0.9263399999999999  0.9201300000000002  0.62545  1.0000
  N   N42       1.0  0.89988  0.89686  0.65617  1.0000
  N   N43       1.0  0.54911  0.92836  0.6565299999999998  1.0000
  N   N44       1.0  0.58142  0.91326  0.68296  1.0000
  N   N45       1.0  0.63289  0.91868  0.67058  1.0000
  N   N46       1.0  0.13561  0.01948  0.23473  1.0000
  N   N47       1.0  0.11537000000000001  0.96882  0.18754999999999997  1.0000
  N   N48       1.0  0.09292000000000006  0.9959300000000001  0.21115  1.0000
  N   N49       1.0  0.38021  0.94597  0.20675999999999994  1.0000
  N   N50       1.0  0.43340000000000006  0.9429500000000001  0.20878  1.0000
  N   N51       1.0  0.44745  0.92352  0.17674  1.0000
  N   N52       1.0  0.16079000000000004  0.84836  0.03635  1.0000
  N   N53       1.0  0.21531  0.84098  0.03314  1.0000
  N   N54       1.0  0.24245000000000005  0.8598200000000001  0.06209  1.0000
  N   N55       1.0  0.23708  0.95968  0.9747199999999999  1.0000
  N   N56       1.0  0.30689  0.98983  0.01085  1.0000
  N   N57       1.0  0.29506  0.96742  0.9797999999999998  1.0000
  N   N58       1.0  0.11179  0.06331  0.10670999999999999  1.0000
  N   N59       1.0  0.07367  0.07988  0.12544999999999998  1.0000
  N   N60       1.0  0.10012  0.10314  0.15617  1.0000
  N   N61       1.0  0.4509  0.07164  0.15652999999999995  1.0000
  N   N62       1.0  0.41859  0.08674000000000001  0.18296  1.0000
  N   N63       1.0  0.36711  0.08132000000000002  0.17058  1.0000
  N   N64       1.0  0.8644  0.9805200000000001  0.73472  1.0000
  N   N65       1.0  0.88464  0.03119  0.68755  1.0000
  N   N66       1.0  0.90708  0.00407  0.71115  1.0000
  N   N67       1.0  0.61979  0.05403  0.70675  1.0000
  N   N68       1.0  0.56661  0.05706  0.70878  1.0000
  N   N69       1.0  0.55256  0.07649  0.67674  1.0000
  N   N70       1.0  0.83922  0.15165  0.53635  1.0000
  N   N71       1.0  0.7847  0.15902000000000002  0.53314  1.0000
  N   N72       1.0  0.75756  0.14018  0.56209  1.0000
  O   O1        1.0  0.21415  0.00602  0.71139  1.0000
  O   O2        1.0  0.84772  0.07744  0.15287  1.0000
  O   O3        1.0  0.05515000000000003  0.7112200000000001  0.8423399999999999  1.0000
  O   O4        1.0  0.2359700000000001  0.9861000000000002  0.60233  1.0000
  O   O5        1.0  0.06692  0.28622  0.3401399999999999  1.0000
  O   O6        1.0  0.8303800000000001  0.16159  0.17012  1.0000
  O   O7        1.0  0.21133  0.05234  0.5677499999999999  1.0000
  O   O8        1.0  0.83616  0.9556200000000001  0.14756999999999998  1.0000
  O   O9        1.0  0.80822  0.86151  0.13749999999999998  1.0000
  O   O10       1.0  0.17434000000000002  0.92258  0.73945  1.0000
  O   O11       1.0  0.10842000000000002  0.71026  0.79324  1.0000
  O   O12       1.0  0.11906  0.32233  0.38703  1.0000
  O   O13       1.0  0.78586  0.99399  0.2114  1.0000
  O   O14       1.0  0.15227999999999994  0.92257  0.65287  1.0000
  O   O15       1.0  0.94485  0.28879  0.3423399999999999  1.0000
  O   O16       1.0  0.7640300000000001  0.013900000000000001  0.10233  1.0000
  O   O17       1.0  0.93309  0.71379  0.84014  1.0000
  O   O18       1.0  0.16963000000000003  0.83841  0.67012  1.0000
  O   O19       1.0  0.78868  0.94766  0.06775  1.0000
  O   O20       1.0  0.16385  0.04438  0.6475599999999999  1.0000
  O   O21       1.0  0.19179  0.13849  0.6375  1.0000
  O   O22       1.0  0.82566  0.07743  0.23946  1.0000
  O   O23       1.0  0.8915800000000002  0.28975  0.29323999999999995  1.0000
  O   O24       1.0  0.88095  0.67768  0.8870199999999999  1.0000
  O   O25       1.0  0.99399  0.7858600000000001  0.7885999999999997  1.0000
  O   O26       1.0  0.92257  0.15228  0.34713  1.0000
  O   O27       1.0  0.28879  0.9448600000000001  0.65765  1.0000
  O   O28       1.0  0.013910000000000014  0.76404  0.89767  1.0000
  O   O29       1.0  0.7137899999999999  0.9330900000000001  0.15986  1.0000
  O   O30       1.0  0.83841  0.16963  0.32988  1.0000
  O   O31       1.0  0.9476600000000001  0.78867  0.93224  1.0000
  O   O32       1.0  0.04438  0.16385  0.3524299999999999  1.0000
  O   O33       1.0  0.13849  0.19179000000000002  0.36248999999999987  1.0000
  O   O34       1.0  0.07743000000000001  0.82567  0.76055  1.0000
  O   O35       1.0  0.28974999999999995  0.89158  0.7067599999999998  1.0000
  O   O36       1.0  0.67768  0.8809500000000001  0.11296999999999999  1.0000
  O   O37       1.0  0.006010000000000014  0.21414000000000005  0.2886  1.0000
  O   O38       1.0  0.07744000000000002  0.8477200000000001  0.84713  1.0000
  O   O39       1.0  0.71121  0.05515  0.15764999999999998  1.0000
  O   O40       1.0  0.9861  0.23597000000000007  0.39767  1.0000
  O   O41       1.0  0.28622  0.06691000000000001  0.65985  1.0000
  O   O42       1.0  0.1616  0.8303800000000001  0.82987  1.0000
  O   O43       1.0  0.05234  0.21133  0.43224  1.0000
  O   O44       1.0  0.95562  0.83615  0.85243  1.0000
  O   O45       1.0  0.8615200000000001  0.8082200000000002  0.8624899999999999  1.0000
  O   O46       1.0  0.92258  0.17434000000000002  0.26054  1.0000
  O   O47       1.0  0.71026  0.10842  0.20675999999999994  1.0000
  O   O48       1.0  0.32233  0.11905  0.61297  1.0000
  O   O49       1.0  0.8052000000000001  0.1948  0.25  1.0000
  O   O50       1.0  0.19481000000000004  0.8052  0.75  1.0000
