data_image0
_chemical_formula_structural       Zn16H128C208N40O50
_chemical_formula_sum              "Zn16 H128 C208 N40 O50"
_cell_length_a       11.40212
_cell_length_b       27.67587
_cell_length_c       27.70427
_cell_angle_alpha    87.54270999999999
_cell_angle_beta     78.06833
_cell_angle_gamma    78.18239

_space_group_name_H-M_alt    "P 1"
_space_group_IT_number       1

loop_
  _space_group_symop_operation_xyz
  'x, y, z'

loop_
  _atom_site_type_symbol
  _atom_site_label
  _atom_site_symmetry_multiplicity
  _atom_site_fract_x
  _atom_site_fract_y
  _atom_site_fract_z
  _atom_site_occupancy
  Zn  Zn1       1.0  0.1402  0.54392  0.4635200000000001  1.0000
  Zn  Zn2       1.0  0.14861999999999997  0.45367000000000013  0.53495  1.0000
  Zn  Zn3       1.0  0.93206  0.9654200000000002  0.95388  1.0000
  Zn  Zn4       1.0  0.85185  0.03626  0.04409  1.0000
  Zn  Zn5       1.0  0.11122000000000004  0.03638000000000001  0.95456  1.0000
  Zn  Zn6       1.0  0.1006399999999999  0.9648200000000002  0.04476  1.0000
  Zn  Zn7       1.0  0.31667  0.54418  0.53632  1.0000
  Zn  Zn8       1.0  0.39830999999999994  0.45367000000000013  0.46505000000000013  1.0000
  Zn  Zn9       1.0  0.58548  0.8274000000000002  0.99956  1.0000
  Zn  Zn10      1.0  0.41282  0.17274  0.0004  1.0000
  Zn  Zn11      1.0  0.6652999999999999  0.50047  0.6726100000000002  1.0000
  Zn  Zn12      1.0  0.8363499999999998  0.49984000000000006  0.32721000000000006  1.0000
  Zn  Zn13      1.0  0.41234999999999994  0.9991100000000002  0.17527  1.0000
  Zn  Zn14      1.0  0.5871499999999998  0.0004399999999999999  0.8234300000000001  1.0000
  Zn  Zn15      1.0  0.6619699999999998  0.6752100000000002  0.50078  1.0000
  Zn  Zn16      1.0  0.83886  0.32312  0.49916  1.0000
  H   H1        1.0  0.4876199999999999  0.8629700000000002  0.09579000000000003  1.0000
  H   H2        1.0  0.42036000000000007  0.90508  0.14518000000000003  1.0000
  H   H3        1.0  0.82872  0.8638400000000002  0.9533700000000003  1.0000
  H   H4        1.0  0.6444299999999998  0.025530000000000004  0.12793  1.0000
  H   H5        1.0  0.08800999999999992  0.6899600000000001  0.34411  1.0000
  H   H6        1.0  0.18772999999999995  0.7268400000000003  0.26785000000000003  1.0000
  H   H7        1.0  0.52568  0.62295  0.27139  1.0000
  H   H8        1.0  0.4227099999999999  0.5862900000000001  0.34731  1.0000
  H   H9        1.0  0.2898499999999999  0.77014  0.22746  1.0000
  H   H10       1.0  0.37325999999999976  0.8062400000000002  0.14881000000000005  1.0000
  H   H11       1.0  0.6541199999999999  0.6758400000000002  0.11597  1.0000
  H   H12       1.0  0.56688  0.6372100000000002  0.1942  1.0000
  H   H13       1.0  0.6604  0.01565  0.2964900000000001  1.0000
  H   H14       1.0  0.71798  0.07177  0.3528300000000001  1.0000
  H   H15       1.0  0.48814999999999986  0.19593000000000005  0.29840000000000005  1.0000
  H   H16       1.0  0.43336  0.13995  0.24136  1.0000
  H   H17       1.0  0.4430399999999999  0.1364  0.9042000000000002  1.0000
  H   H18       1.0  0.46699  0.09426  0.8548600000000001  1.0000
  H   H19       1.0  0.64713  0.13722  0.04481  1.0000
  H   H20       1.0  0.7975000000000001  0.97516  0.87063  1.0000
  H   H21       1.0  0.12213999999999997  0.30813000000000007  0.6558  1.0000
  H   H22       1.0  0.18192000000000003  0.27198  0.73222  1.0000
  H   H23       1.0  0.41925999999999986  0.37639000000000006  0.7278900000000003  1.0000
  H   H24       1.0  0.35584999999999983  0.4124  0.6518600000000001  1.0000
  H   H25       1.0  0.2853500000000002  0.22943000000000005  0.77296  1.0000
  H   H26       1.0  0.32545999999999986  0.19352  0.8515100000000001  1.0000
  H   H27       1.0  0.44418  0.32408  0.88401  1.0000
  H   H28       1.0  0.39592000000000005  0.3625100000000001  0.80596  1.0000
  H   H29       1.0  0.9746700000000001  0.9840700000000002  0.70307  1.0000
  H   H30       1.0  0.14350999999999983  0.9280000000000003  0.6462700000000001  1.0000
  H   H31       1.0  0.9839099999999996  0.8037700000000002  0.70162  1.0000
  H   H32       1.0  0.81735  0.85969  0.75917  1.0000
  H   H33       1.0  0.6026699999999998  0.5962000000000002  0.6367100000000001  1.0000
  H   H34       1.0  0.5770299999999999  0.6453300000000002  0.5945  1.0000
  H   H35       1.0  0.9436000000000004  0.4538200000000001  0.63605  1.0000
  H   H36       1.0  0.92096  0.62792  0.47371  1.0000
  H   H37       1.0  0.02557999999999997  0.84443  0.80868  1.0000
  H   H38       1.0  0.1617300000000001  0.768  0.77242  1.0000
  H   H39       1.0  0.3944599999999999  0.7720800000000001  0.87666  1.0000
  H   H40       1.0  0.2552999999999998  0.8481000000000002  0.9128600000000002  1.0000
  H   H41       1.0  0.3076199999999999  0.72705  0.7295800000000001  1.0000
  H   H42       1.0  0.4306399999999998  0.6488200000000001  0.6938300000000001  1.0000
  H   H43       1.0  0.5793699999999997  0.61764  0.8247200000000002  1.0000
  H   H44       1.0  0.4499699999999999  0.6951300000000002  0.86311  1.0000
  H   H45       1.0  0.9262199999999998  0.7969400000000001  0.48454  1.0000
  H   H46       1.0  0.03946999999999998  0.8535500000000001  0.42843  1.0000
  H   H47       1.0  0.9364899999999999  0.79797  0.30425000000000013  1.0000
  H   H48       1.0  0.82592  0.74077  0.36022  1.0000
  H   H49       1.0  0.83326  0.40315  0.3627  1.0000
  H   H50       1.0  0.8154100000000001  0.3535800000000001  0.40473  1.0000
  H   H51       1.0  0.035090000000000045  0.54467  0.36262  1.0000
  H   H52       1.0  0.02364999999999999  0.3701600000000001  0.52457  1.0000
  H   H53       1.0  0.67938  0.1556  0.19105  1.0000
  H   H54       1.0  0.70414  0.23163000000000006  0.22764000000000004  1.0000
  H   H55       1.0  0.045519999999999956  0.22774000000000005  0.12330000000000003  1.0000
  H   H56       1.0  0.017439999999999973  0.15196000000000007  0.08688  1.0000
  H   H57       1.0  0.7651900000000001  0.27252000000000004  0.27016  1.0000
  H   H58       1.0  0.7692  0.3514800000000001  0.30571  1.0000
  H   H59       1.0  0.01677999999999998  0.38419000000000003  0.17493  1.0000
  H   H60       1.0  0.00815000000000001  0.30565  0.13685  1.0000
  H   H61       1.0  0.21173000000000003  0.20334  0.51591  1.0000
  H   H62       1.0  0.32387000000000005  0.14688000000000004  0.57246  1.0000
  H   H63       1.0  0.03732999999999988  0.20138000000000006  0.6958100000000003  1.0000
  H   H64       1.0  0.9269899999999999  0.2585  0.6394600000000003  1.0000
  H   H65       1.0  0.7671800000000002  0.40394  0.63604  1.0000
  H   H66       1.0  0.83399  0.35443000000000013  0.59398  1.0000
  H   H67       1.0  0.42325999999999986  0.54533  0.6365800000000003  1.0000
  H   H68       1.0  0.6052  0.37015  0.47552  1.0000
  H   H69       1.0  0.16401999999999997  0.15659  0.80895  1.0000
  H   H70       1.0  0.06339000000000002  0.23287  0.77263  1.0000
  H   H71       1.0  0.7259999999999998  0.22820000000000004  0.8764300000000002  1.0000
  H   H72       1.0  0.82919  0.15222  0.91257  1.0000
  H   H73       1.0  0.9613199999999998  0.27297  0.7296100000000002  1.0000
  H   H74       1.0  0.87839  0.35141  0.69344  1.0000
  H   H75       1.0  0.59644  0.38417  0.82372  1.0000
  H   H76       1.0  0.6842699999999999  0.30627  0.86244  1.0000
  H   H77       1.0  0.5894999999999998  0.20184  0.48335  1.0000
  H   H78       1.0  0.53197  0.14544000000000004  0.42727000000000004  1.0000
  H   H79       1.0  0.7592100000000002  0.20114  0.30298  1.0000
  H   H80       1.0  0.8137799999999998  0.25832  0.35888000000000003  1.0000
  H   H81       1.0  0.80468  0.59545  0.3641  1.0000
  H   H82       1.0  0.78024  0.64483  0.40611  1.0000
  H   H83       1.0  0.60432  0.4534200000000001  0.36414  1.0000
  H   H84       1.0  0.45138999999999996  0.62797  0.52585  1.0000
  H   H85       1.0  0.12985000000000005  0.84478  0.19198000000000007  1.0000
  H   H86       1.0  0.0696699999999998  0.7683700000000002  0.22823  1.0000
  H   H87       1.0  0.83345  0.77206  0.12391  1.0000
  H   H88       1.0  0.8965500000000001  0.84829  0.08773000000000003  1.0000
  H   H89       1.0  0.9681200000000001  0.72624  0.27031  1.0000
  H   H90       1.0  0.92428  0.64785  0.30593  1.0000
  H   H91       1.0  0.8042499999999999  0.6171000000000002  0.17537  1.0000
  H   H92       1.0  0.8551699999999999  0.6949600000000002  0.13733  1.0000
  H   H93       1.0  0.27273999999999987  0.79657  0.516  1.0000
  H   H94       1.0  0.10405999999999992  0.8535400000000002  0.57199  1.0000
  H   H95       1.0  0.2642500000000001  0.79891  0.69599  1.0000
  H   H96       1.0  0.4311499999999998  0.7414600000000002  0.64012  1.0000
  H   H97       1.0  0.64885  0.8635700000000002  0.90378  1.0000
  H   H98       1.0  0.6742300000000001  0.90575  0.8544300000000002  1.0000
  H   H99       1.0  0.30615999999999993  0.8638800000000002  0.04577000000000001  1.0000
  H   H100      1.0  0.33007999999999993  0.02568  0.8712000000000002  1.0000
  H   H101      1.0  0.22373999999999997  0.6909000000000001  0.6556  1.0000
  H   H102      1.0  0.08678000000000002  0.72764  0.7316600000000001  1.0000
  H   H103      1.0  0.8545500000000004  0.6226700000000002  0.72821  1.0000
  H   H104      1.0  0.99433  0.58624  0.65261  1.0000
  H   H105      1.0  0.9412799999999999  0.77023  0.7730500000000002  1.0000
  H   H106      1.0  0.8190700000000001  0.80601  0.8511  1.0000
  H   H107      1.0  0.6698099999999999  0.6749000000000003  0.88291  1.0000
  H   H108      1.0  0.79892  0.6365300000000003  0.8054000000000001  1.0000
  H   H109      1.0  0.31878  0.01631  0.70316  1.0000
  H   H110      1.0  0.20749999999999996  0.07276000000000002  0.64638  1.0000
  H   H111      1.0  0.31513999999999975  0.19635  0.7012100000000002  1.0000
  H   H112      1.0  0.4233600000000001  0.14001  0.75874  1.0000
  H   H113      1.0  0.4179800000000001  0.13605  0.09589000000000003  1.0000
  H   H114      1.0  0.43619  0.09373000000000002  0.14505  1.0000
  H   H115      1.0  0.21488999999999994  0.13744  0.9549800000000003  1.0000
  H   H116      1.0  0.22662  0.9740500000000001  0.12806  1.0000
  H   H117      1.0  0.5690600000000001  0.30899  0.34475  1.0000
  H   H118      1.0  0.5460499999999999  0.27263  0.26843  1.0000
  H   H119      1.0  0.20395000000000002  0.37633  0.27244  1.0000
  H   H120      1.0  0.23076  0.41271  0.34831  1.0000
  H   H121      1.0  0.48620999999999986  0.23011000000000006  0.22678000000000006  1.0000
  H   H122      1.0  0.47935  0.19419  0.14858  1.0000
  H   H123      1.0  0.22738  0.32425  0.11751000000000002  1.0000
  H   H124      1.0  0.2392799999999999  0.36267  0.19521000000000005  1.0000
  H   H125      1.0  0.040409999999999904  0.98345  0.29715000000000014  1.0000
  H   H126      1.0  0.92786  0.9272000000000002  0.35404000000000013  1.0000
  H   H127      1.0  0.21266000000000004  0.80333  0.2994  1.0000
  H   H128      1.0  0.32344999999999996  0.8594500000000003  0.24194  1.0000
  C   C1        1.0  0.7857099999999996  0.8852000000000002  0.9865300000000001  1.0000
  C   C2        1.0  0.7462099999999999  0.9425900000000003  0.041420000000000005  1.0000
  C   C3        1.0  0.6513599999999999  0.9924500000000002  0.10668000000000002  1.0000
  C   C4        1.0  0.5671099999999999  0.9231200000000003  0.0966  1.0000
  C   C5        1.0  0.6605100000000002  0.9118  0.054050000000000015  1.0000
  C   C6        1.0  0.18121  0.61139  0.3935  1.0000
  C   C7        1.0  0.18370999999999993  0.67595  0.3278500000000001  1.0000
  C   C8        1.0  0.2408399999999999  0.6967100000000003  0.28539  1.0000
  C   C9        1.0  0.3647  0.67828  0.26336  1.0000
  C   C10       1.0  0.4297699999999998  0.6380600000000002  0.28673  1.0000
  C   C11       1.0  0.3725899999999999  0.61734  0.32964  1.0000
  C   C12       1.0  0.24864999999999993  0.6357  0.35038000000000014  1.0000
  C   C13       1.0  0.36863  0.74858  0.20327000000000006  1.0000
  C   C14       1.0  0.4166399999999997  0.7696000000000002  0.15915000000000007  1.0000
  C   C15       1.0  0.5204200000000001  0.7434  0.12735  1.0000
  C   C16       1.0  0.57428  0.6958200000000002  0.14108  1.0000
  C   C17       1.0  0.5253200000000001  0.6745600000000003  0.18504000000000007  1.0000
  C   C18       1.0  0.42067  0.70047  0.21732000000000007  1.0000
  C   C19       1.0  0.5747899999999999  0.7653500000000002  0.07971000000000003  1.0000
  C   C20       1.0  0.5114  0.040790000000000014  0.23320000000000005  1.0000
  C   C21       1.0  0.6247899999999998  0.055270000000000014  0.2970600000000001  1.0000
  C   C22       1.0  0.65577  0.08641000000000001  0.32839  1.0000
  C   C23       1.0  0.6079699999999999  0.13736  0.32834000000000013  1.0000
  C   C24       1.0  0.52813  0.15664  0.2967400000000001  1.0000
  C   C25       1.0  0.4969000000000001  0.12558  0.26535  1.0000
  C   C26       1.0  0.54569  0.07476  0.26533  1.0000
  C   C27       1.0  0.65804  0.11571000000000002  0.01181  1.0000
  C   C28       1.0  0.73014  0.05827  0.95698  1.0000
  C   C29       1.0  0.74982  0.00817  0.8919500000000002  1.0000
  C   C30       1.0  0.58491  0.07686  0.90268  1.0000
  C   C31       1.0  0.62543  0.08862000000000002  0.94481  1.0000
  C   C32       1.0  0.18583  0.38679  0.6060700000000001  1.0000
  C   C33       1.0  0.18690000000000004  0.3226000000000001  0.67207  1.0000
  C   C34       1.0  0.22215999999999989  0.3022200000000001  0.7146400000000003  1.0000
  C   C35       1.0  0.3051799999999999  0.3210100000000001  0.7365900000000001  1.0000
  C   C36       1.0  0.3535999999999999  0.36111000000000004  0.7128600000000003  1.0000
  C   C37       1.0  0.31875999999999993  0.38149000000000005  0.66987  1.0000
  C   C38       1.0  0.2340199999999998  0.36288  0.6493500000000002  1.0000
  C   C39       1.0  0.3186599999999999  0.25104  0.7969800000000002  1.0000
  C   C40       1.0  0.3434  0.23006000000000004  0.84108  1.0000
  C   C41       1.0  0.38981999999999983  0.25614  0.8727600000000002  1.0000
  C   C42       1.0  0.4096600000000001  0.30382000000000003  0.8590400000000002  1.0000
  C   C43       1.0  0.38312  0.32507  0.81511  1.0000
  C   C44       1.0  0.33687999999999996  0.29911  0.7828  1.0000
  C   C45       1.0  0.41929999999999995  0.23370000000000005  0.9200500000000003  1.0000
  C   C46       1.0  0.7867799999999997  0.9587400000000003  0.76671  1.0000
  C   C47       1.0  0.9789700000000001  0.9444600000000002  0.7026400000000003  1.0000
  C   C48       1.0  0.07182999999999994  0.91333  0.6710100000000001  1.0000
  C   C49       1.0  0.0747  0.86237  0.6710600000000002  1.0000
  C   C50       1.0  0.9830999999999998  0.84307  0.7031500000000003  1.0000
  C   C51       1.0  0.8901100000000001  0.87409  0.73482  1.0000
  C   C52       1.0  0.8879  0.9249500000000003  0.7347000000000001  1.0000
  C   C53       1.0  0.92227  0.48696000000000006  0.61462  1.0000
  C   C54       1.0  0.9402  0.54161  0.55691  1.0000
  C   C55       1.0  0.8950399999999998  0.6067000000000001  0.50686  1.0000
  C   C56       1.0  0.74202  0.59685  0.57645  1.0000
  C   C57       1.0  0.82413  0.55445  0.58786  1.0000
  C   C58       1.0  0.03954999999999984  0.8946400000000002  0.8864500000000001  1.0000
  C   C59       1.0  0.10672000000000004  0.82816  0.82302  1.0000
  C   C60       1.0  0.18436999999999998  0.7855800000000002  0.80261  1.0000
  C   C61       1.0  0.2893699999999999  0.7637000000000002  0.82132  1.0000
  C   C62       1.0  0.31374999999999986  0.7872900000000002  0.8615  1.0000
  C   C63       1.0  0.23606999999999986  0.83031  0.88191  1.0000
  C   C64       1.0  0.1312099999999998  0.8510400000000002  0.86311  1.0000
  C   C65       1.0  0.3652699999999997  0.7033800000000002  0.7513300000000003  1.0000
  C   C66       1.0  0.43599999999999994  0.65951  0.73051  1.0000
  C   C67       1.0  0.51437  0.6283600000000003  0.75683  1.0000
  C   C68       1.0  0.5190599999999999  0.6422300000000002  0.80454  1.0000
  C   C69       1.0  0.4469600000000001  0.6858800000000002  0.8256600000000002  1.0000
  C   C70       1.0  0.3681799999999999  0.71773  0.79944  1.0000
  C   C71       1.0  0.5943  0.58165  0.73442  1.0000
  C   C72       1.0  0.80295  0.7332  0.45942  1.0000
  C   C73       1.0  0.93089  0.79725  0.4449100000000001  1.0000
  C   C74       1.0  0.9928899999999998  0.8286900000000001  0.41376  1.0000
  C   C75       1.0  0.9968599999999999  0.82837  0.36278  1.0000
  C   C76       1.0  0.9369900000000007  0.79641  0.34352  1.0000
  C   C77       1.0  0.8747399999999997  0.76495  0.37459  1.0000
  C   C78       1.0  0.8720000000000001  0.76516  0.42543000000000003  1.0000
  C   C79       1.0  0.024949999999999955  0.5115900000000001  0.38411000000000006  1.0000
  C   C80       1.0  0.039630000000000026  0.45677  0.44163  1.0000
  C   C81       1.0  0.009359999999999976  0.39157  0.49158  1.0000
  C   C82       1.0  0.9145499999999999  0.4019  0.4225100000000001  1.0000
  C   C83       1.0  0.96614  0.44429  0.4110200000000001  1.0000
  C   C84       1.0  0.82144  0.10630000000000003  0.11182  1.0000
  C   C85       1.0  0.75898  0.17174  0.17668  1.0000
  C   C86       1.0  0.77436  0.21411000000000005  0.19735  1.0000
  C   C87       1.0  0.8762099999999999  0.23614  0.17865000000000006  1.0000
  C   C88       1.0  0.96457  0.21260000000000007  0.13850000000000004  1.0000
  C   C89       1.0  0.94967  0.16978000000000004  0.11787000000000002  1.0000
  C   C90       1.0  0.8460500000000001  0.14924000000000007  0.13627  1.0000
  C   C91       1.0  0.81964  0.29672000000000004  0.24843000000000004  1.0000
  C   C92       1.0  0.82312  0.34103  0.26914  1.0000
  C   C93       1.0  0.8951999999999999  0.37284000000000006  0.24283  1.0000
  C   C94       1.0  0.96231  0.35906  0.19518  1.0000
  C   C95       1.0  0.9576300000000001  0.31489000000000006  0.17421  1.0000
  C   C96       1.0  0.8859300000000002  0.28244  0.20043000000000002  1.0000
  C   C97       1.0  0.9030899999999998  0.4202300000000001  0.265  1.0000
  C   C98       1.0  0.99859  0.26667  0.5405000000000001  1.0000
  C   C99       1.0  0.17582999999999996  0.20288000000000003  0.55545  1.0000
  C   C100      1.0  0.23714000000000002  0.17144  0.5868  1.0000
  C   C101      1.0  0.18816999999999992  0.17148000000000005  0.63764  1.0000
  C   C102      1.0  0.07645999999999997  0.20309000000000005  0.65661  1.0000
  C   C103      1.0  0.014839999999999985  0.23457  0.62535  1.0000
  C   C104      1.0  0.06478999999999994  0.23471000000000006  0.57464  1.0000
  C   C105      1.0  0.4660699999999998  0.51217  0.6151900000000002  1.0000
  C   C106      1.0  0.5049599999999999  0.45704000000000006  0.55808  1.0000
  C   C107      1.0  0.59926  0.39165000000000005  0.5083  1.0000
  C   C108      1.0  0.68584  0.4024800000000001  0.57663  1.0000
  C   C109      1.0  0.59194  0.4448600000000001  0.58828  1.0000
  C   C110      1.0  0.07101999999999989  0.10639000000000003  0.8872700000000001  1.0000
  C   C111      1.0  0.06833999999999989  0.17267000000000005  0.8232800000000002  1.0000
  C   C112      1.0  0.010629999999999902  0.21511000000000002  0.8027300000000003  1.0000
  C   C113      1.0  0.8866799999999996  0.23691000000000006  0.82126  1.0000
  C   C114      1.0  0.822  0.21313000000000004  0.8612900000000002  1.0000
  C   C115      1.0  0.87958  0.17021  0.88179  1.0000
  C   C116      1.0  0.0037500000000000038  0.14982  0.86343  1.0000
  C   C117      1.0  0.8824099999999999  0.29707  0.7511200000000001  1.0000
  C   C118      1.0  0.8344499999999998  0.34108  0.73  1.0000
  C   C119      1.0  0.7302100000000001  0.37278  0.75599  1.0000
  C   C120      1.0  0.6763399999999998  0.35916  0.8036400000000001  1.0000
  C   C121      1.0  0.7256400000000001  0.31532  0.8250200000000001  1.0000
  C   C122      1.0  0.83035  0.28301  0.7992100000000002  1.0000
  C   C123      1.0  0.6764599999999997  0.4201600000000001  0.73357  1.0000
  C   C124      1.0  0.7382799999999999  0.26552000000000003  0.45815000000000006  1.0000
  C   C125      1.0  0.6244499999999998  0.20160000000000006  0.44371000000000005  1.0000
  C   C126      1.0  0.5934500000000003  0.17025  0.41259000000000007  1.0000
  C   C127      1.0  0.6404899999999998  0.17064000000000004  0.3616100000000001  1.0000
  C   C128      1.0  0.71959  0.20262  0.34228000000000003  1.0000
  C   C129      1.0  0.75075  0.23405000000000006  0.37332  1.0000
  C   C130      1.0  0.7028599999999998  0.23371000000000006  0.4241900000000001  1.0000
  C   C131      1.0  0.5928899999999998  0.4865100000000001  0.3856  1.0000
  C   C132      1.0  0.51987  0.54133  0.44304  1.0000
  C   C133      1.0  0.49929  0.60662  0.4929000000000001  1.0000
  C   C134      1.0  0.6638499999999999  0.5963200000000002  0.42403000000000013  1.0000
  C   C135      1.0  0.62398  0.55395  0.4124400000000001  1.0000
  C   C136      1.0  0.06509999999999991  0.8949000000000003  0.11334000000000001  1.0000
  C   C137      1.0  0.06494999999999994  0.8285500000000002  0.17752  1.0000
  C   C138      1.0  0.02975000000000004  0.78587  0.19794  1.0000
  C   C139      1.0  0.9471200000000004  0.76367  0.17915  1.0000
  C   C140      1.0  0.89886  0.78736  0.13909  1.0000
  C   C141      1.0  0.93344  0.8304700000000002  0.1187  1.0000
  C   C142      1.0  0.017829999999999836  0.8512900000000002  0.13732000000000003  1.0000
  C   C143      1.0  0.93349  0.7026700000000001  0.24869  1.0000
  C   C144      1.0  0.90698  0.6586800000000002  0.26945  1.0000
  C   C145      1.0  0.859  0.62758  0.24331  1.0000
  C   C146      1.0  0.8397599999999998  0.64165  0.19572  1.0000
  C   C147      1.0  0.8678399999999996  0.6854900000000003  0.17469  1.0000
  C   C148      1.0  0.9151599999999999  0.7173300000000001  0.20080000000000006  1.0000
  C   C149      1.0  0.8273000000000001  0.58056  0.2657900000000001  1.0000
  C   C150      1.0  0.46025999999999984  0.7331400000000002  0.5409700000000001  1.0000
  C   C151      1.0  0.2685200000000001  0.79721  0.55557  1.0000
  C   C152      1.0  0.17569999999999997  0.82888  0.58666  1.0000
  C   C153      1.0  0.17296999999999998  0.82896  0.63756  1.0000
  C   C154      1.0  0.26493000000000017  0.7971500000000001  0.65677  1.0000
  C   C155      1.0  0.35807  0.7655  0.62575  1.0000
  C   C156      1.0  0.35979999999999995  0.7653  0.57499  1.0000
  C   C157      1.0  0.3279199999999998  0.8852100000000003  0.012570000000000003  1.0000
  C   C158      1.0  0.31041999999999964  0.9426600000000003  0.9576700000000002  1.0000
  C   C159      1.0  0.3560999999999998  0.9926600000000002  0.8925300000000002  1.0000
  C   C160      1.0  0.50946  0.9236000000000001  0.90288  1.0000
  C   C161      1.0  0.4270499999999999  0.9120800000000001  0.9452400000000002  1.0000
  C   C162      1.0  0.21007999999999993  0.61245  0.60616  1.0000
  C   C163      1.0  0.14238  0.67663  0.67193  1.0000
  C   C164      1.0  0.06418999999999989  0.6972700000000002  0.71432  1.0000
  C   C165      1.0  0.9592000000000002  0.6784400000000002  0.73639  1.0000
  C   C166      1.0  0.9350900000000001  0.63804  0.7129900000000001  1.0000
  C   C167      1.0  0.013229999999999931  0.6174400000000002  0.67015  1.0000
  C   C168      1.0  0.1183  0.63622  0.64943  1.0000
  C   C169      1.0  0.8834199999999995  0.7484800000000003  0.79671  1.0000
  C   C170      1.0  0.81292  0.7693400000000002  0.84059  1.0000
  C   C171      1.0  0.73463  0.74302  0.8719600000000002  1.0000
  C   C172      1.0  0.7297200000000001  0.69524  0.85818  1.0000
  C   C173      1.0  0.8016800000000001  0.67409  0.8144800000000001  1.0000
  C   C174      1.0  0.88042  0.7003200000000003  0.7824300000000002  1.0000
  C   C175      1.0  0.6560199999999998  0.7654900000000001  0.9189100000000002  1.0000
  C   C176      1.0  0.44329000000000013  0.04125  0.76674  1.0000
  C   C177      1.0  0.31542  0.05589  0.70272  1.0000
  C   C178      1.0  0.25461  0.08721  0.67115  1.0000
  C   C179      1.0  0.25270999999999993  0.13809  0.6711600000000001  1.0000
  C   C180      1.0  0.31315999999999977  0.15716  0.7029700000000002  1.0000
  C   C181      1.0  0.3740299999999999  0.12592  0.73461  1.0000
  C   C182      1.0  0.37491  0.07517  0.73466  1.0000
  C   C183      1.0  0.22509999999999994  0.11571000000000002  0.98789  1.0000
  C   C184      1.0  0.21026  0.05782000000000002  0.04232000000000002  1.0000
  C   C185      1.0  0.24111  0.007260000000000002  0.10701  1.0000
  C   C186      1.0  0.33669000000000027  0.07622000000000001  0.09686  1.0000
  C   C187      1.0  0.28425999999999996  0.08820000000000001  0.05484  1.0000
  C   C188      1.0  0.42508999999999997  0.38719  0.39479000000000003  1.0000
  C   C189      1.0  0.48979999999999985  0.3232800000000001  0.32848000000000005  1.0000
  C   C190      1.0  0.4753899999999999  0.30281000000000013  0.28586  1.0000
  C   C191      1.0  0.37369  0.32137000000000004  0.26381  1.0000
  C   C192      1.0  0.28491  0.36133  0.2875  1.0000
  C   C193      1.0  0.2989399999999999  0.38184  0.3304900000000001  1.0000
  C   C194      1.0  0.4020600000000001  0.36337  0.3512  1.0000
  C   C195      1.0  0.43014  0.25161  0.2031  1.0000
  C   C196      1.0  0.42484  0.23063000000000006  0.1592  1.0000
  C   C197      1.0  0.35052  0.25661  0.12811  1.0000
  C   C198      1.0  0.28322  0.30414  0.14214  1.0000
  C   C199      1.0  0.28992  0.32537  0.18583000000000005  1.0000
  C   C200      1.0  0.36355999999999994  0.2995000000000001  0.21765  1.0000
  C   C201      1.0  0.34098  0.23438000000000006  0.08108  1.0000
  C   C202      1.0  0.25336000000000014  0.95833  0.23333  1.0000
  C   C203      1.0  0.07602999999999999  0.9438700000000001  0.29773  1.0000
  C   C204      1.0  0.01434999999999978  0.9126700000000002  0.3293900000000001  1.0000
  C   C205      1.0  0.062470000000000005  0.86173  0.32942  1.0000
  C   C206      1.0  0.17389999999999992  0.8425700000000003  0.29769000000000007  1.0000
  C   C207      1.0  0.23591999999999996  0.8737000000000001  0.26604  1.0000
  C   C208      1.0  0.18676000000000004  0.9244900000000001  0.26578  1.0000
  N   N1        1.0  0.8250799999999998  0.9252600000000001  0.9987000000000003  1.0000
  N   N2        1.0  0.74424  0.9835200000000002  0.06764  1.0000
  N   N3        1.0  0.5651  0.96531  0.12160000000000001  1.0000
  N   N4        1.0  0.6872099999999999  0.8752300000000002  0.018500000000000003  1.0000
  N   N5        1.0  0.4819799999999999  0.8961400000000002  0.11246  1.0000
  N   N6        1.0  0.74985  0.07586  0.99937  1.0000
  N   N7        1.0  0.7953799999999998  0.01745  0.93066  1.0000
  N   N8        1.0  0.6504800000000002  0.034850000000000006  0.87749  1.0000
  N   N9        1.0  0.5805399999999998  0.12526  0.9803200000000002  1.0000
  N   N10       1.0  0.48732999999999976  0.10328  0.8874600000000002  1.0000
  N   N11       1.0  0.0014200000000000035  0.49889  0.57434  1.0000
  N   N12       1.0  0.979  0.56772  0.5158500000000001  1.0000
  N   N13       1.0  0.7818000000000002  0.6216500000000003  0.53409  1.0000
  N   N14       1.0  0.8143  0.51912  0.62463  1.0000
  N   N15       1.0  0.63003  0.6127400000000001  0.6035200000000002  1.0000
  N   N16       1.0  0.0764599999999999  0.4993400000000001  0.4241000000000001  1.0000
  N   N17       1.0  0.06382000000000006  0.43048  0.48254  1.0000
  N   N18       1.0  0.93746  0.37686000000000003  0.46466  1.0000
  N   N19       1.0  0.9578299999999997  0.47978000000000004  0.37436  1.0000
  N   N20       1.0  0.8448200000000002  0.38624  0.3956800000000001  1.0000
  N   N21       1.0  0.4257000000000003  0.49961  0.5756  1.0000
  N   N22       1.0  0.5060300000000001  0.43052  0.5175  1.0000
  N   N23       1.0  0.6868200000000001  0.37714  0.53478  1.0000
  N   N24       1.0  0.56547  0.48060000000000014  0.62469  1.0000
  N   N25       1.0  0.7722499999999999  0.38711  0.6030500000000002  1.0000
  N   N26       1.0  0.50121  0.49863  0.42558  1.0000
  N   N27       1.0  0.4542799999999999  0.56764  0.48381  1.0000
  N   N28       1.0  0.59841  0.62137  0.4661  1.0000
  N   N29       1.0  0.66942  0.51851  0.3758  1.0000
  N   N30       1.0  0.761  0.61189  0.39734  1.0000
  N   N31       1.0  0.24853999999999987  0.9251200000000003  0.00023  1.0000
  N   N32       1.0  0.27174999999999994  0.9836000000000003  0.9314  1.0000
  N   N33       1.0  0.46960999999999986  0.9657400000000003  0.8778  1.0000
  N   N34       1.0  0.4366399999999998  0.87546  0.9807800000000001  1.0000
  N   N35       1.0  0.6217699999999997  0.8967700000000002  0.88724  1.0000
  N   N36       1.0  0.17325  0.07569  0.9999300000000001  1.0000
  N   N37       1.0  0.18599  0.01681  0.06839  1.0000
  N   N38       1.0  0.31383  0.0339  0.12166000000000002  1.0000
  N   N39       1.0  0.29261000000000004  0.12511  0.01964  1.0000
  N   N40       1.0  0.40748  0.10278  0.1123  1.0000
  O   O1        1.0  0.06669999999999995  0.6169000000000001  0.40006  1.0000
  O   O2        1.0  0.2461099999999999  0.58364  0.4213700000000001  1.0000
  O   O3        1.0  0.50385  0.80413  0.06412  1.0000
  O   O4        1.0  0.6803500000000001  0.7478100000000001  0.05728000000000001  1.0000
  O   O5        1.0  0.45031  0.06043  0.19965  1.0000
  O   O6        1.0  0.53725  0.9948600000000002  0.23807000000000006  1.0000
  O   O7        1.0  0.08354999999999993  0.38098000000000004  0.5996600000000001  1.0000
  O   O8        1.0  0.25115  0.41439000000000004  0.57795  1.0000
  O   O9        1.0  0.37063  0.19521  0.93585  1.0000
  O   O10       1.0  0.48678999999999994  0.25044000000000005  0.9421900000000002  1.0000
  O   O11       1.0  0.7109999999999999  0.93883  0.79987  1.0000
  O   O12       1.0  0.7712600000000001  0.00473  0.76191  1.0000
  O   O13       1.0  0.9310500000000003  0.90071  0.8805  1.0000
  O   O14       1.0  0.07614000000000007  0.92323  0.91371  1.0000
  O   O15       1.0  0.55982  0.56413  0.69729  1.0000
  O   O16       1.0  0.6874600000000001  0.56198  0.7501  1.0000
  O   O17       1.0  0.7605500000000002  0.6998  0.43985  1.0000
  O   O18       1.0  0.7829100000000002  0.73814  0.5053  1.0000
  O   O19       1.0  0.7134600000000001  0.09975000000000002  0.11746  1.0000
  O   O20       1.0  0.91431  0.07865  0.08382000000000003  1.0000
  O   O21       1.0  0.81697  0.4357600000000001  0.3039  1.0000
  O   O22       1.0  0.9870199999999998  0.44242000000000004  0.2477  1.0000
  O   O23       1.0  0.9031999999999999  0.30006  0.56  1.0000
  O   O24       1.0  0.029509999999999963  0.26171  0.4946300000000001  1.0000
  O   O25       1.0  0.18559999999999993  0.09965  0.88166  1.0000
  O   O26       1.0  0.005459999999999968  0.0784  0.91463  1.0000
  O   O27       1.0  0.7486199999999997  0.43591000000000013  0.6953100000000002  1.0000
  O   O28       1.0  0.57019  0.44247  0.7501700000000001  1.0000
  O   O29       1.0  0.79848  0.29949  0.43835  1.0000
  O   O30       1.0  0.7146300000000001  0.25989  0.50402  1.0000
  O   O31       1.0  0.16657999999999995  0.9021800000000001  0.11919000000000003  1.0000
  O   O32       1.0  0.99936  0.92233  0.08556  1.0000
  O   O33       1.0  0.8794099999999999  0.5637200000000001  0.30308  1.0000
  O   O34       1.0  0.7553000000000001  0.5599  0.25014  1.0000
  O   O35       1.0  0.5363100000000002  0.69993  0.56073  1.0000
  O   O36       1.0  0.47444999999999976  0.73793  0.4951300000000001  1.0000
  O   O37       1.0  0.31865  0.6185200000000001  0.59961  1.0000
  O   O38       1.0  0.17238999999999988  0.58483  0.5783200000000001  1.0000
  O   O39       1.0  0.6911099999999999  0.80282  0.9358200000000002  1.0000
  O   O40       1.0  0.5632799999999999  0.7497600000000002  0.9393100000000002  1.0000
  O   O41       1.0  0.4859  0.06128  0.7998100000000001  1.0000
  O   O42       1.0  0.4629900000000001  0.9953000000000001  0.76208  1.0000
  O   O43       1.0  0.5321999999999999  0.38082  0.4025  1.0000
  O   O44       1.0  0.33203000000000005  0.41547000000000006  0.42196  1.0000
  O   O45       1.0  0.43049000000000004  0.19725  0.06399  1.0000
  O   O46       1.0  0.25288  0.25011000000000005  0.060770000000000005  1.0000
  O   O47       1.0  0.34842  0.9383000000000001  0.19997  1.0000
  O   O48       1.0  0.22274  0.00431  0.23788  1.0000
  O   O49       1.0  0.25088  0.49942  0.50005  1.0000
  O   O50       1.0  0.99948  0.00020000000000000006  0.9994900000000001  1.0000
