data_image0
_chemical_formula_structural       Cu12H136C284N4O48
_chemical_formula_sum              "Cu12 H136 C284 N4 O48"
_cell_length_a       29.85891
_cell_length_b       29.85179
_cell_length_c       29.85489
_cell_angle_alpha    101.34292
_cell_angle_beta     113.69734
_cell_angle_gamma    113.70629999999998

_symmetry_space_group_name_H-M    'P 1'
_symmetry_Int_Tables_number       1

loop_
  _symmetry_equiv_pos_as_xyz
  'x,y,z'

loop_
  _atom_site_type_symbol
  _atom_site_label
  _atom_site_symmetry_multiplicity
  _atom_site_fract_x
  _atom_site_fract_y
  _atom_site_fract_z
  _atom_site_occupancy
  Cu  Cu1       1.0  0.35059000000000007  0.8264999999999998  0.52436  1.0000
  Cu  Cu2       1.0  0.5000099999999998  0.7178499999999998  0.2179  1.0000
  Cu  Cu3       1.0  0.21282  0.46177  0.75107  1.0000
  Cu  Cu4       1.0  0.64942  0.17349  0.4756400000000001  1.0000
  Cu  Cu5       1.0  0.3022500000000001  0.4758  0.82641  1.0000
  Cu  Cu6       1.0  0.5  0.21786999999999995  0.71784  1.0000
  Cu  Cu7       1.0  0.7871800000000002  0.5382199999999999  0.24893000000000004  1.0000
  Cu  Cu8       1.0  0.5  0.2821499999999999  0.7821  1.0000
  Cu  Cu9       1.0  0.6977600000000003  0.5241899999999998  0.17358  1.0000
  Cu  Cu10      1.0  0.28916  0.75099  0.53812  1.0000
  Cu  Cu11      1.0  0.5  0.78213  0.28215  1.0000
  Cu  Cu12      1.0  0.7108500000000002  0.24901000000000006  0.4618700000000001  1.0000
  H   H1        1.0  0.5771200000000002  0.3858299999999999  0.44538  1.0000
  H   H2        1.0  0.3204500000000001  0.1167  0.59116  1.0000
  H   H3        1.0  0.78304  0.8025  0.3673100000000001  1.0000
  H   H4        1.0  0.47208999999999995  0.7810199999999998  0.52426  1.0000
  H   H5        1.0  0.54371  0.5621099999999999  0.59175  1.0000
  H   H6        1.0  0.94044  0.8087599999999998  0.3858  1.0000
  H   H7        1.0  0.7856800000000004  0.31249  0.8594700000000001  1.0000
  H   H8        1.0  0.5771  0.13174  0.19135000000000005  1.0000
  H   H9        1.0  0.5278799999999999  0.052129999999999975  0.30895  1.0000
  H   H10       1.0  0.32289  0.62617  0.08338000000000001  1.0000
  H   H11       1.0  0.26857  0.7466599999999998  0.34992  1.0000
  H   H12       1.0  0.6333600000000003  0.34216  0.44628  1.0000
  H   H13       1.0  0.3910199999999999  0.5099299999999999  0.48444  1.0000
  H   H14       1.0  0.5477599999999999  0.9780999999999997  0.56963  1.0000
  H   H15       1.0  0.4312700000000001  0.4729399999999999  0.6830200000000001  1.0000
  H   H16       1.0  0.6008500000000002  0.03894000000000006  0.5619200000000001  1.0000
  H   H17       1.0  0.25680999999999987  0.3089999999999999  0.78107  1.0000
  H   H18       1.0  0.059540000000000044  0.4453599999999999  0.8681900000000001  1.0000
  H   H19       1.0  0.67693  0.76045  0.3032  1.0000
  H   H20       1.0  0.9744000000000003  0.4843199999999999  0.09322  1.0000
  H   H21       1.0  0.94047  0.55464  0.13181  1.0000
  H   H22       1.0  0.7867700000000001  0.7909699999999996  0.26245  1.0000
  H   H23       1.0  0.5427899999999999  0.9166299999999998  0.23952000000000007  1.0000
  H   H24       1.0  0.47142999999999996  0.9957499999999998  0.20897000000000002  1.0000
  H   H25       1.0  0.4744800000000001  0.20379  0.88327  1.0000
  H   H26       1.0  0.5916600000000002  0.56974  0.02195  1.0000
  H   H27       1.0  0.05955999999999999  0.19122999999999996  0.6142  1.0000
  H   H28       1.0  0.02982999999999994  0.5919199999999999  0.04831  1.0000
  H   H29       1.0  0.7314300000000002  0.25334  0.65008  1.0000
  H   H30       1.0  0.10053999999999999  0.8189999999999998  0.53821  1.0000
  H   H31       1.0  0.4229  0.8682599999999998  0.80864  1.0000
  H   H32       1.0  0.7900200000000001  0.041690000000000026  0.47295000000000004  1.0000
  H   H33       1.0  0.6771100000000002  0.37383000000000005  0.9166200000000001  1.0000
  H   H34       1.0  0.39098000000000005  0.9065599999999999  0.88088  1.0000
  H   H35       1.0  0.9701699999999999  0.4080799999999999  0.95169  1.0000
  H   H36       1.0  0.6793000000000001  0.27064  0.7961400000000002  1.0000
  H   H37       1.0  0.57001  0.09931000000000005  0.9653000000000002  1.0000
  H   H38       1.0  0.8958100000000002  0.5536999999999999  0.18709000000000006  1.0000
  H   H39       1.0  0.13422  0.03468000000000001  0.60473  1.0000
  H   H40       1.0  0.71918  0.28162  0.18099  1.0000
  H   H41       1.0  0.21322999999999992  0.20902999999999988  0.73755  1.0000
  H   H42       1.0  0.60902  0.09342999999999999  0.11912000000000003  1.0000
  H   H43       1.0  0.89946  0.18099999999999997  0.46179  1.0000
  H   H44       1.0  0.52123  0.09744999999999994  0.42375  1.0000
  H   H45       1.0  0.7533700000000002  0.53394  0.37392  1.0000
  H   H46       1.0  0.8657900000000001  0.9653200000000001  0.3952600000000001  1.0000
  H   H47       1.0  0.56873  0.52706  0.31697  1.0000
  H   H48       1.0  0.45721  0.08337  0.76048  1.0000
  H   H49       1.0  0.7191500000000002  0.5382199999999999  0.43768  1.0000
  H   H50       1.0  0.56486  0.3674299999999999  0.58426  1.0000
  H   H51       1.0  0.5686900000000003  0.25167  0.041650000000000006  1.0000
  H   H52       1.0  0.47154000000000007  0.26247999999999994  0.47569000000000006  1.0000
  H   H53       1.0  0.52847  0.73752  0.52431  1.0000
  H   H54       1.0  0.83989  0.21945999999999996  0.46602  1.0000
  H   H55       1.0  0.3666199999999999  0.8128999999999997  0.70862  1.0000
  H   H56       1.0  0.52296  0.5618299999999998  0.96109  1.0000
  H   H57       1.0  0.63339  0.1871  0.29138  1.0000
  H   H58       1.0  0.4354000000000001  0.54907  0.8863700000000001  1.0000
  H   H59       1.0  0.7832099999999999  0.41573999999999994  0.98058  1.0000
  H   H60       1.0  0.4228899999999999  0.6141699999999998  0.55461  1.0000
  H   H61       1.0  0.4744499999999999  0.5911299999999998  0.27073  1.0000
  H   H62       1.0  0.56461  0.45092999999999994  0.11362  1.0000
  H   H63       1.0  0.13415999999999995  0.5292999999999998  0.09919  1.0000
  H   H64       1.0  0.7868799999999999  0.5243299999999997  0.99581  1.0000
  H   H65       1.0  0.3230699999999999  0.23953999999999992  0.6968  1.0000
  H   H66       1.0  0.45625  0.04811  0.018250000000000002  1.0000
  H   H67       1.0  0.3666400000000001  0.6578399999999998  0.5537200000000001  1.0000
  H   H68       1.0  0.4787699999999999  0.9025499999999997  0.57625  1.0000
  H   H69       1.0  0.5648499999999999  0.9805799999999998  0.19747000000000006  1.0000
  H   H70       1.0  0.7431899999999999  0.6909899999999998  0.21893  1.0000
  H   H71       1.0  0.2169600000000001  0.19749000000000005  0.6326800000000001  1.0000
  H   H72       1.0  0.39679999999999993  0.65016  0.91871  1.0000
  H   H73       1.0  0.43000000000000005  0.9006799999999998  0.03470000000000001  1.0000
  H   H74       1.0  0.16014999999999993  0.6262099999999999  0.37954  1.0000
  H   H75       1.0  0.28086  0.46177  0.56232  1.0000
  H   H76       1.0  0.89582  0.70878  0.34210000000000007  1.0000
  H   H77       1.0  0.2141  0.07374  0.5267  1.0000
  H   H78       1.0  0.9703000000000005  0.018150000000000006  0.56199  1.0000
  H   H79       1.0  0.74324  0.52424  0.05208  1.0000
  H   H80       1.0  0.33723  0.8863299999999997  0.4509300000000001  1.0000
  H   H81       1.0  0.2567599999999999  0.4757599999999999  0.94792  1.0000
  H   H82       1.0  0.52556  0.40885999999999995  0.72926  1.0000
  H   H83       1.0  0.6032  0.34984  0.08129000000000002  1.0000
  H   H84       1.0  0.39671000000000006  0.47807999999999995  0.7465700000000001  1.0000
  H   H85       1.0  0.4529800000000002  0.14046000000000006  0.9262000000000002  1.0000
  H   H86       1.0  0.2100300000000001  0.68299  0.25169  1.0000
  H   H87       1.0  0.4563  0.43789  0.40825  1.0000
  H   H88       1.0  0.025619999999999993  0.11920999999999997  0.51017  1.0000
  H   H89       1.0  0.6627700000000002  0.11366000000000001  0.5490600000000001  1.0000
  H   H90       1.0  0.16011999999999985  0.7805399999999998  0.53398  1.0000
  H   H91       1.0  0.21680000000000002  0.58425  0.01942  1.0000
  H   H92       1.0  0.10419000000000009  0.44629000000000013  0.8129000000000002  1.0000
  H   H93       1.0  0.5255199999999998  0.7962099999999998  0.11672  1.0000
  H   H94       1.0  0.43131000000000014  0.7483199999999998  0.95835  1.0000
  H   H95       1.0  0.24662999999999996  0.62032  0.7805500000000001  1.0000
  H   H96       1.0  0.39916  0.9610499999999997  0.43808  1.0000
  H   H97       1.0  0.4572099999999999  0.6966699999999998  0.37387000000000004  1.0000
  H   H98       1.0  0.10054000000000003  0.56234  0.28146  1.0000
  H   H99       1.0  0.029699999999999817  0.9818499999999997  0.438  1.0000
  H   H100      1.0  0.45224  0.02188999999999999  0.43037  1.0000
  H   H101      1.0  0.7533700000000002  0.3796799999999999  0.21945000000000003  1.0000
  H   H102      1.0  0.6033  0.52192  0.25343  1.0000
  H   H103      1.0  0.45296  0.5267  0.31255  1.0000
  H   H104      1.0  0.47704  0.43816999999999995  0.0389  1.0000
  H   H105      1.0  0.78997  0.31701  0.7483  1.0000
  H   H106      1.0  0.2808299999999999  0.7183699999999997  0.81901  1.0000
  H   H107      1.0  0.97438  0.8807899999999999  0.48983  1.0000
  H   H108      1.0  0.54279  0.30331999999999987  0.62613  1.0000
  H   H109      1.0  0.6089800000000001  0.49007000000000006  0.5155600000000001  1.0000
  H   H110      1.0  0.3262  0.4237499999999999  0.90251  1.0000
  H   H111      1.0  0.67956  0.88329  0.40884  1.0000
  H   H112      1.0  0.40834  0.4302499999999999  0.97805  1.0000
  H   H113      1.0  0.6738  0.57625  0.09749  1.0000
  H   H114      1.0  0.52858  0.004250000000000035  0.79103  1.0000
  H   H115      1.0  0.52792  0.21898000000000004  0.4757300000000001  1.0000
  H   H116      1.0  0.4351500000000001  0.019420000000000034  0.80253  1.0000
  H   H117      1.0  0.54375  0.9518899999999999  0.98175  1.0000
  H   H118      1.0  0.8398599999999999  0.3737799999999999  0.62046  1.0000
  H   H119      1.0  0.56991  0.6047999999999998  0.47058  1.0000
  H   H120      1.0  0.21311999999999995  0.4756599999999999  0.00419  1.0000
  H   H121      1.0  0.20998999999999998  0.9582999999999999  0.52704  1.0000
  H   H122      1.0  0.10419000000000003  0.2912100000000001  0.6579000000000002  1.0000
  H   H123      1.0  0.8658400000000003  0.4706999999999998  0.90081  1.0000
  H   H124      1.0  0.8994600000000001  0.43764999999999993  0.7185300000000001  1.0000
  H   H125      1.0  0.43514  0.63256  0.41574  1.0000
  H   H126      1.0  0.47212  0.94787  0.69105  1.0000
  H   H127      1.0  0.5470299999999999  0.8595399999999999  0.0738  1.0000
  H   H128      1.0  0.24662999999999996  0.4660499999999999  0.62608  1.0000
  H   H129      1.0  0.7315000000000003  0.08131000000000001  0.4780400000000001  1.0000
  H   H130      1.0  0.2685  0.9186899999999998  0.52196  1.0000
  H   H131      1.0  0.54704  0.4732899999999999  0.68745  1.0000
  H   H132      1.0  0.3207  0.72936  0.20385  1.0000
  H   H133      1.0  0.7859  0.9262600000000001  0.4732900000000001  1.0000
  H   H134      1.0  0.4301  0.39519999999999994  0.52942  1.0000
  H   H135      1.0  0.21431999999999993  0.6874999999999998  0.14053  1.0000
  H   H136      1.0  0.025599999999999977  0.51567  0.90678  1.0000
  C   C1        1.0  0.41964  0.95013  0.46951  1.0000
  C   C2        1.0  0.41617  0.8772  0.6941200000000001  1.0000
  C   C3        1.0  0.40227999999999997  0.85469  0.72731  1.0000
  C   C4        1.0  0.9444099999999999  0.5327499999999997  0.9772  1.0000
  C   C5        1.0  0.56866  0.9595499999999999  0.10802  1.0000
  C   C6        1.0  0.7602699999999999  0.3839199999999999  0.9403  1.0000
  C   C7        1.0  0.89179  0.86292  0.35349  1.0000
  C   C8        1.0  0.23981  0.18009  0.62372  1.0000
  C   C9        1.0  0.8726599999999999  0.72738  0.32506  1.0000
  C   C10       1.0  0.5948800000000001  0.07407  0.07705  1.0000
  C   C11       1.0  0.35835  0.46701  0.61842  1.0000
  C   C12       1.0  0.40739999999999993  0.8968899999999999  0.95486  1.0000
  C   C13       1.0  0.70266  0.30237  0.83654  1.0000
  C   C14       1.0  0.54396  0.34064999999999995  0.63921  1.0000
  C   C15       1.0  0.86286  0.3972899999999999  0.7034800000000001  1.0000
  C   C16       1.0  0.5564  0.37638999999999995  0.61605  1.0000
  C   C17       1.0  0.45606000000000024  0.09530000000000005  0.7966400000000002  1.0000
  C   C18       1.0  0.3708  0.45372999999999997  0.91713  1.0000
  C   C19       1.0  0.43344999999999995  0.6506299999999999  0.54796  1.0000
  C   C20       1.0  0.30616  0.4655299999999999  0.60267  1.0000
  C   C21       1.0  0.15138  0.8912399999999998  0.53293  1.0000
  C   C22       1.0  0.8515700000000003  0.8919300000000001  0.46066000000000007  1.0000
  C   C23       1.0  0.42256999999999995  0.9804799999999998  0.9456900000000001  1.0000
  C   C24       1.0  0.47924  0.6727999999999998  0.53925  1.0000
  C   C25       1.0  0.7615900000000001  0.32552000000000003  0.8717200000000002  1.0000
  C   C26       1.0  0.82988  0.18088000000000004  0.4679200000000001  1.0000
  C   C27       1.0  0.41740000000000005  0.45788  0.95952  1.0000
  C   C28       1.0  0.64163  0.26012  0.10871  1.0000
  C   C29       1.0  0.88145  0.08639999999999996  0.46312  1.0000
  C   C30       1.0  0.08716999999999994  0.5044099999999998  0.07725000000000001  1.0000
  C   C31       1.0  0.51971  0.022580000000000024  0.49712  1.0000
  C   C32       1.0  0.0028799999999999343  0.5208799999999998  0.9261  1.0000
  C   C33       1.0  0.5826100000000002  0.5421199999999999  0.04048  1.0000
  C   C34       1.0  0.70247  0.42932  0.17563000000000004  1.0000
  C   C35       1.0  0.49054  0.028940000000000007  0.13711000000000004  1.0000
  C   C36       1.0  0.4423800000000001  0.0756999999999999  0.86704  1.0000
  C   C37       1.0  0.23840999999999993  0.6744799999999997  0.12828  1.0000
  C   C38       1.0  0.45379000000000014  0.12821000000000005  0.8898700000000003  1.0000
  C   C39       1.0  0.4805800000000002  0.5304399999999999  0.9501500000000003  1.0000
  C   C40       1.0  0.79133  0.3666299999999999  0.92425  1.0000
  C   C41       1.0  0.2094500000000001  0.36552999999999997  0.7471100000000002  1.0000
  C   C42       1.0  0.10820999999999999  0.13706999999999997  0.64651  1.0000
  C   C43       1.0  0.89186  0.53839  0.029060000000000002  1.0000
  C   C44       1.0  0.5555900000000003  0.58835  0.5326200000000001  1.0000
  C   C45       1.0  0.21765999999999988  0.6901099999999998  0.37034  1.0000
  C   C46       1.0  0.44181999999999994  0.4412499999999999  0.43612  1.0000
  C   C47       1.0  0.5576299999999998  0.9242999999999999  0.13296  1.0000
  C   C48       1.0  0.3842799999999999  0.9080399999999997  0.47627  1.0000
  C   C49       1.0  0.005289999999999913  0.5640299999999998  0.00592  1.0000
  C   C50       1.0  0.4675900000000001  0.004140000000000014  0.08854000000000002  1.0000
  C   C51       1.0  0.0901999999999999  0.9323399999999996  0.54143  1.0000
  C   C52       1.0  0.9653  0.9455799999999998  0.5231  1.0000
  C   C53       1.0  0.59484  0.5179799999999999  0.52078  1.0000
  C   C54       1.0  0.4657899999999999  0.5996099999999999  0.30244  1.0000
  C   C55       1.0  0.58036  0.04986999999999994  0.53049  1.0000
  C   C56       1.0  0.81053  0.5308099999999999  0.03765000000000001  1.0000
  C   C57       1.0  0.57744  0.01952  0.05431  1.0000
  C   C58       1.0  0.54625  0.43616  0.6744  1.0000
  C   C59       1.0  0.47985  0.68573  0.29468  1.0000
  C   C60       1.0  0.002909999999999974  0.07712999999999998  0.4822  1.0000
  C   C61       1.0  0.42705999999999994  0.92264  0.00968  1.0000
  C   C62       1.0  0.31971  0.4724  0.69001  1.0000
  C   C63       1.0  0.23972999999999997  0.61608  0.05969  1.0000
  C   C64       1.0  0.50946  0.9710599999999998  0.8628900000000002  1.0000
  C   C65       1.0  0.11857  0.58159  0.20481  1.0000
  C   C66       1.0  0.4906800000000001  0.35348000000000007  0.4617100000000001  1.0000
  C   C67       1.0  0.81047  0.7728499999999998  0.27966  1.0000
  C   C68       1.0  0.6938500000000002  0.2966299999999999  0.15942000000000003  1.0000
  C   C69       1.0  0.19907999999999998  0.6709  0.27975  1.0000
  C   C70       1.0  0.6802700000000003  0.37039  0.15269  1.0000
  C   C71       1.0  0.54622  0.87178  0.11012000000000001  1.0000
  C   C72       1.0  0.4931300000000001  0.7203  0.53079  1.0000
  C   C73       1.0  0.4932199999999999  0.9623999999999998  0.77286  1.0000
  C   C74       1.0  0.9098000000000002  0.06766  0.45857  1.0000
  C   C75       1.0  0.03470000000000002  0.05441000000000001  0.47689  1.0000
  C   C76       1.0  0.2092600000000001  0.46235999999999994  0.8438200000000001  1.0000
  C   C77       1.0  0.91284  0.4955799999999999  0.92275  1.0000
  C   C78       1.0  0.44176000000000004  0.005729999999999998  0.0004200000000000001  1.0000
  C   C79       1.0  0.3815500000000001  0.74705  0.5377100000000001  1.0000
  C   C80       1.0  0.5774000000000002  0.52324  0.55787  1.0000
  C   C81       1.0  0.9652599999999999  0.4419999999999999  0.01933  1.0000
  C   C82       1.0  0.37197999999999987  0.4746399999999998  0.7062200000000001  1.0000
  C   C83       1.0  0.10269000000000006  0.21714  0.6506800000000001  1.0000
  C   C84       1.0  0.40743  0.45237999999999995  0.51054  1.0000
  C   C85       1.0  0.42467  0.011349999999999996  0.91533  1.0000
  C   C86       1.0  0.76175  0.8898999999999999  0.43614  1.0000
  C   C87       1.0  0.5576600000000002  0.42476  0.6333000000000001  1.0000
  C   C88       1.0  0.89736  0.54799  0.11456000000000002  1.0000
  C   C89       1.0  0.76841  0.10264  0.47462  1.0000
  C   C90       1.0  0.82986  0.36188  0.64903  1.0000
  C   C91       1.0  0.7129  0.5320599999999998  0.36196  1.0000
  C   C92       1.0  0.11855999999999993  0.9135899999999998  0.53688  1.0000
  C   C93       1.0  0.55818  0.55874  0.56388  1.0000
  C   C94       1.0  0.47450000000000003  0.49707999999999997  0.9774200000000001  1.0000
  C   C95       1.0  0.055599999999999955  0.4672399999999999  0.022790000000000005  1.0000
  C   C96       1.0  0.9419400000000001  0.04518000000000005  0.4525300000000001  1.0000
  C   C97       1.0  0.7913700000000002  0.8670299999999999  0.42468  1.0000
  C   C98       1.0  0.6291999999999999  0.5462699999999999  0.08286000000000002  1.0000
  C   C99       1.0  0.39110999999999996  0.20585999999999993  0.68572  1.0000
  C   C100      1.0  0.37674  0.4629899999999999  0.58161  1.0000
  C   C101      1.0  0.5328999999999999  0.35231999999999997  0.68017  1.0000
  C   C102      1.0  0.9154399999999999  0.9114799999999997  0.3790700000000001  1.0000
  C   C103      1.0  0.58388  0.27801  0.46104  1.0000
  C   C104      1.0  0.51942  0.46956  0.04985000000000001  1.0000
  C   C105      1.0  0.59257  0.54761  0.48946000000000006  1.0000
  C   C106      1.0  0.12732000000000007  0.4524199999999999  0.8546700000000002  1.0000
  C   C107      1.0  0.13351  0.46069999999999994  0.93994  1.0000
  C   C108      1.0  0.6088899999999999  0.5282099999999998  0.32912  1.0000
  C   C109      1.0  0.2871099999999999  0.4679399999999999  0.63803  1.0000
  C   C110      1.0  0.28711  0.64893  0.81915  1.0000
  C   C111      1.0  0.46337  0.91713  0.54627  1.0000
  C   C112      1.0  0.08456000000000005  0.08850999999999999  0.62093  1.0000
  C   C113      1.0  0.09026999999999999  0.54867  0.15768  1.0000
  C   C114      1.0  0.8169199999999999  0.6941299999999998  0.27795  1.0000
  C   C115      1.0  0.40515999999999996  0.4820199999999999  0.47922  1.0000
  C   C116      1.0  0.55824  0.99426  0.99958  1.0000
  C   C117      1.0  0.32796  0.6802099999999998  0.14733  1.0000
  C   C118      1.0  0.52067  0.05997  0.19354  1.0000
  C   C119      1.0  0.18953  0.22714999999999994  0.72033  1.0000
  C   C120      1.0  0.40225  0.67488  0.54757  1.0000
  C   C121      1.0  0.39112000000000013  0.47177999999999987  0.67087  1.0000
  C   C122      1.0  0.60889  0.7941400000000001  0.31428  1.0000
  C   C123      1.0  0.53229  0.6209399999999998  0.5364  1.0000
  C   C124      1.0  0.6184500000000002  0.15616  0.36551000000000006  1.0000
  C   C125      1.0  0.4443199999999999  0.9770799999999997  0.03262  1.0000
  C   C126      1.0  0.53287  0.8526499999999998  0.1806  1.0000
  C   C127      1.0  0.99472  0.43596000000000007  0.9940800000000001  1.0000
  C   C128      1.0  0.43134  0.040449999999999986  0.89198  1.0000
  C   C129      1.0  0.23162  0.70629  0.33426  1.0000
  C   C130      1.0  0.10813999999999994  0.4616099999999999  0.97093  1.0000
  C   C131      1.0  0.59775  0.3251099999999999  0.45243  1.0000
  C   C132      1.0  0.79074  0.53763  0.15618  1.0000
  C   C133      1.0  0.44234000000000007  0.5752299999999999  0.3666900000000001  1.0000
  C   C134      1.0  0.78627  0.53078  0.06887  1.0000
  C   C135      1.0  0.32792000000000004  0.18057000000000006  0.6476900000000001  1.0000
  C   C136      1.0  0.53806  0.06885  0.28264  1.0000
  C   C137      1.0  0.6088700000000002  0.2946  0.8147100000000002  1.0000
  C   C138      1.0  0.2315899999999999  0.8973499999999998  0.52538  1.0000
  C   C139      1.0  0.54395  0.9046999999999997  0.20336000000000007  1.0000
  C   C140      1.0  0.6157300000000002  0.09194999999999998  0.52373  1.0000
  C   C141      1.0  0.50679  0.037600000000000015  0.22714  1.0000
  C   C142      1.0  0.29865  0.63924  0.09528  1.0000
  C   C143      1.0  0.25363  0.72688  0.42928  1.0000
  C   C144      1.0  0.90405  0.9152299999999997  0.49066  1.0000
  C   C145      1.0  0.19905999999999996  0.9192999999999998  0.52819  1.0000
  C   C146      1.0  0.3909500000000001  0.45839999999999986  0.5487200000000001  1.0000
  C   C147      1.0  0.6938400000000002  0.53447  0.39733  1.0000
  C   C148      1.0  0.60904  0.15776999999999994  0.06762  1.0000
  C   C149      1.0  0.7463800000000003  0.27311  0.57072  1.0000
  C   C150      1.0  0.99712  0.4791099999999999  0.0739  1.0000
  C   C151      1.0  0.43348999999999993  0.8854899999999999  0.78278  1.0000
  C   C152      1.0  0.59772  0.14530999999999994  0.27269  1.0000
  C   C153      1.0  0.23826  0.11008999999999997  0.56386  1.0000
  C   C154      1.0  0.5324199999999999  0.9958499999999999  0.91145  1.0000
  C   C155      1.0  0.57286  0.58272  0.49548  1.0000
  C   C156      1.0  0.35837000000000013  0.73988  0.8912900000000002  1.0000
  C   C157      1.0  0.70281  0.8661899999999998  0.40038000000000007  1.0000
  C   C158      1.0  0.3061500000000001  0.70336  0.8405800000000001  1.0000
  C   C159      1.0  0.68029  0.52759  0.30999  1.0000
  C   C160      1.0  0.60885  0.27976  0.08067  1.0000
  C   C161      1.0  0.53664  0.08286999999999994  0.45373  1.0000
  C   C162      1.0  0.8973200000000002  0.78285  0.34932  1.0000
  C   C163      1.0  0.7129  0.3510699999999999  0.18085  1.0000
  C   C164      1.0  0.14847  0.60917  0.04054  1.0000
  C   C165      1.0  0.6720799999999999  0.8194199999999997  0.3523  1.0000
  C   C166      1.0  0.78235  0.30988  0.62965  1.0000
  C   C167      1.0  0.4798799999999999  0.18529000000000004  0.79416  1.0000
  C   C168      1.0  0.05809999999999993  0.5104599999999999  0.10299  1.0000
  C   C169      1.0  0.8515400000000001  0.39082000000000006  0.9594600000000001  1.0000
  C   C170      1.0  0.53421  0.4003799999999999  0.69756  1.0000
  C   C171      1.0  0.18947000000000014  0.46919000000000005  0.9623500000000003  1.0000
  C   C172      1.0  0.56825  0.47625999999999996  0.09193000000000003  1.0000
  C   C173      1.0  0.9948400000000002  0.00033999999999999244  0.55865  1.0000
  C   C174      1.0  0.4317500000000001  0.52374  0.90807  1.0000
  C   C175      1.0  0.09599000000000006  0.58678  0.01152  1.0000
  C   C176      1.0  0.9097300000000003  0.45132999999999995  0.8423200000000001  1.0000
  C   C177      1.0  0.59261  0.10309999999999998  0.04514000000000001  1.0000
  C   C178      1.0  0.14843000000000003  0.10805999999999998  0.53934  1.0000
  C   C179      1.0  0.8486300000000002  0.38156999999999985  0.7399500000000001  1.0000
  C   C180      1.0  0.20862999999999998  0.13295999999999994  0.57531  1.0000
  C   C181      1.0  0.38155  0.8438399999999998  0.63449  1.0000
  C   C182      1.0  0.7024200000000002  0.5269099999999998  0.27321  1.0000
  C   C183      1.0  0.40511999999999987  0.9259299999999998  0.92295  1.0000
  C   C184      1.0  0.08722000000000002  0.00966000000000002  0.58264  1.0000
  C   C185      1.0  0.2972000000000001  0.1338  0.59962  1.0000
  C   C186      1.0  0.18303000000000016  0.46106  0.8772000000000002  1.0000
  C   C187      1.0  0.03475000000000001  0.558  0.9806700000000002  1.0000
  C   C188      1.0  0.7013499999999999  0.3607599999999999  0.90471  1.0000
  C   C189      1.0  0.5753299999999999  0.9886499999999998  0.08467000000000001  1.0000
  C   C190      1.0  0.52015  0.3142599999999999  0.70532  1.0000
  C   C191      1.0  0.57295  0.07735999999999998  0.99032  1.0000
  C   C192      1.0  0.8009199999999999  0.3290999999999998  0.72025  1.0000
  C   C193      1.0  0.08441999999999991  0.46345999999999987  0.99574  1.0000
  C   C194      1.0  0.17012  0.81912  0.53208  1.0000
  C   C195      1.0  0.46771  0.37906  0.4636  1.0000
  C   C196      1.0  0.9127899999999999  0.9903299999999996  0.41736  1.0000
  C   C197      1.0  0.10264  0.45199999999999996  0.88544  1.0000
  C   C198      1.0  0.20866999999999994  0.6333599999999999  0.07574  1.0000
  C   C199      1.0  0.058059999999999806  0.9548099999999998  0.54746  1.0000
  C   C200      1.0  0.62802  0.52536  0.29378  1.0000
  C   C201      1.0  0.4436  0.62361  0.38395  1.0000
  C   C202      1.0  0.8169800000000002  0.53894  0.1228  1.0000
  C   C203      1.0  0.21376999999999993  0.2826499999999999  0.74457  1.0000
  C   C204      1.0  0.7683800000000001  0.29369999999999996  0.66574  1.0000
  C   C205      1.0  0.50933  0.6465099999999998  0.53829  1.0000
  C   C206      1.0  0.9040099999999999  0.41321999999999987  0.98848  1.0000
  C   C207      1.0  0.78624  0.71735  0.25543  1.0000
  C   C208      1.0  0.5686900000000003  0.46076  0.60909  1.0000
  C   C209      1.0  0.50159  0.95952  0.54206  1.0000
  C   C210      1.0  0.88144  0.4184099999999999  0.79519  1.0000
  C   C211      1.0  0.52077  0.3271899999999999  0.4607500000000001  1.0000
  C   C212      1.0  0.5255  0.50292  0.02258  1.0000
  C   C213      1.0  0.86287  0.15945  0.46554  1.0000
  C   C214      1.0  0.2975800000000001  0.47308  0.7267900000000002  1.0000
  C   C215      1.0  0.5068800000000001  0.27969999999999995  0.46921  1.0000
  C   C216      1.0  0.42714  0.41727  0.50452  1.0000
  C   C217      1.0  0.39097000000000004  0.8422299999999999  0.9323800000000001  1.0000
  C   C218      1.0  0.58383  0.12279999999999998  0.30588  1.0000
  C   C219      1.0  0.53417  0.8365799999999998  0.13385  1.0000
  C   C220      1.0  0.4161200000000001  0.72198  0.53896  1.0000
  C   C221      1.0  0.43132  0.53924  0.39091  1.0000
  C   C222      1.0  0.13354999999999997  0.19349999999999998  0.67282  1.0000
  C   C223      1.0  0.86649  0.5393  0.060060000000000016  1.0000
  C   C224      1.0  0.12735000000000002  0.27262000000000003  0.6749400000000001  1.0000
  C   C225      1.0  0.44441000000000014  0.41164  0.4673700000000001  1.0000
  C   C226      1.0  0.8726900000000002  0.5475799999999997  0.14533  1.0000
  C   C227      1.0  0.62323  0.20489  0.08635  1.0000
  C   C228      1.0  0.37678  0.7951  0.9136400000000002  1.0000
  C   C229      1.0  0.79056  0.63447  0.25288  1.0000
  C   C230      1.0  0.62797  0.33427  0.10262  1.0000
  C   C231      1.0  0.61846  0.25294  0.46228000000000014  1.0000
  C   C232      1.0  0.29753  0.57068  0.82437  1.0000
  C   C233      1.0  0.05572999999999999  0.032580000000000005  0.5883  1.0000
  C   C234      1.0  0.80094  0.0807  0.4718  1.0000
  C   C235      1.0  0.47933  0.9400299999999998  0.8064600000000002  1.0000
  C   C236      1.0  0.3197300000000002  0.6296  0.8473100000000002  1.0000
  C   C237      1.0  0.39115000000000016  0.7202300000000001  0.9193300000000002  1.0000
  C   C238      1.0  0.42468  0.50921  0.41334  1.0000
  C   C239      1.0  0.5665500000000001  0.3493599999999999  0.4520300000000001  1.0000
  C   C240      1.0  0.9155899999999999  0.5365299999999998  0.00425  1.0000
  C   C241      1.0  0.29872  0.2033699999999999  0.65944  1.0000
  C   C242      1.0  0.42261  0.4767599999999999  0.44213  1.0000
  C   C243      1.0  0.8486200000000002  0.10876  0.46706000000000003  1.0000
  C   C244      1.0  0.57533  0.4907799999999999  0.58666  1.0000
  C   C245      1.0  0.7601999999999999  0.8198999999999999  0.37628  1.0000
  C   C246      1.0  0.5201200000000002  0.81471  0.20584000000000005  1.0000
  C   C247      1.0  0.25362999999999997  0.8244299999999998  0.52691  1.0000
  C   C248      1.0  0.09595999999999996  0.08477  0.50934  1.0000
  C   C249      1.0  0.55638  0.9403099999999999  0.18007000000000004  1.0000
  C   C250      1.0  0.13713999999999993  0.84055  0.53446  1.0000
  C   C251      1.0  0.4619500000000001  0.93114  0.7173600000000001  1.0000
  C   C252      1.0  0.45374999999999993  0.5638399999999999  0.3256  1.0000
  C   C253      1.0  0.13715000000000008  0.6027099999999999  0.29652000000000006  1.0000
  C   C254      1.0  0.9419100000000006  0.48954000000000003  0.8970100000000001  1.0000
  C   C255      1.0  0.9970900000000001  0.9228599999999999  0.51779  1.0000
  C   C256      1.0  0.55568  0.022920000000000017  0.96737  1.0000
  C   C257      1.0  0.45603999999999995  0.6593499999999998  0.36079  1.0000
  C   C258      1.0  0.21760999999999991  0.8472999999999998  0.52761  1.0000
  C   C259      1.0  0.46709999999999996  0.6476799999999998  0.31982  1.0000
  C   C260      1.0  0.48029999999999995  0.9774099999999998  0.50288  1.0000
  C   C261      1.0  0.1513699999999999  0.6184199999999997  0.26004  1.0000
  C   C262      1.0  0.7824  0.15269999999999995  0.47238  1.0000
  C   C263      1.0  0.29735000000000006  0.6976300000000001  0.16346000000000002  1.0000
  C   C264      1.0  0.46713  0.14734  0.8194  1.0000
  C   C265      1.0  0.9442800000000001  0.96741  0.4117000000000001  1.0000
  C   C266      1.0  0.005160000000000028  0.9996599999999999  0.4413400000000001  1.0000
  C   C267      1.0  0.70129  0.79663  0.34056  1.0000
  C   C268      1.0  0.60905  0.5415899999999999  0.45128  1.0000
  C   C269      1.0  0.56651  0.11449999999999998  0.21722  1.0000
  C   C270      1.0  0.46583  0.16342000000000007  0.86615  1.0000
  C   C271      1.0  0.6416600000000002  0.53299  0.38158  1.0000
  C   C272      1.0  0.17015  0.63811  0.35097  1.0000
  C   C273      1.0  0.1830800000000001  0.30587000000000003  0.7220500000000001  1.0000
  C   C274      1.0  0.53813  0.25546999999999986  0.4692000000000001  1.0000
  C   C275      1.0  0.39114  0.70539  0.18529  1.0000
  C   C276      1.0  0.21372999999999992  0.4692099999999999  0.93113  1.0000
  C   C277      1.0  0.3720299999999999  0.6657299999999998  0.89738  1.0000
  C   C278      1.0  0.67205  0.3197799999999999  0.85267  1.0000
  C   C279      1.0  0.62326  0.53701  0.41838  1.0000
  C   C280      1.0  0.8664500000000003  0.8064999999999999  0.32718  1.0000
  C   C281      1.0  0.7463800000000003  0.17556999999999998  0.47309  1.0000
  C   C282      1.0  0.4618799999999999  0.7445199999999997  0.5308  1.0000
  C   C283      1.0  0.49842000000000014  0.04047000000000006  0.4579400000000001  1.0000
  C   C284      1.0  0.4436200000000001  0.05968999999999997  0.81993  1.0000
  N   N1        1.0  0.37744000000000005  0.48602  0.89152  1.0000
  N   N2        1.0  0.4054399999999999  0.8914899999999998  0.51402  1.0000
  N   N3        1.0  0.62257  0.5139799999999999  0.10848000000000002  1.0000
  N   N4        1.0  0.59457  0.10850000000000003  0.48598000000000013  1.0000
  O   O1        1.0  0.39642000000000005  0.7905999999999999  0.53101  1.0000
  O   O2        1.0  0.5155  0.3296299999999999  0.7456100000000001  1.0000
  O   O3        1.0  0.60362  0.13446  0.39413  1.0000
  O   O4        1.0  0.32967000000000013  0.47964  0.7746500000000002  1.0000
  O   O5        1.0  0.4159500000000002  0.18556000000000006  0.6705400000000002  1.0000
  O   O6        1.0  0.25957  0.4692199999999999  0.86541  1.0000
  O   O7        1.0  0.4160500000000001  0.24613999999999994  0.73071  1.0000
  O   O8        1.0  0.67034  0.52035  0.22534000000000004  1.0000
  O   O9        1.0  0.58397  0.31480999999999987  0.8298700000000001  1.0000
  O   O10       1.0  0.2949599999999999  0.8499799999999997  0.52039  1.0000
  O   O11       1.0  0.58395  0.7538599999999999  0.26928  1.0000
  O   O12       1.0  0.75959  0.21915999999999994  0.46641  1.0000
  O   O13       1.0  0.5149500000000001  0.26907999999999993  0.6849800000000001  1.0000
  O   O14       1.0  0.2597600000000001  0.39422999999999997  0.7906300000000003  1.0000
  O   O15       1.0  0.4160299999999999  0.6851799999999998  0.17012  1.0000
  O   O16       1.0  0.4159999999999999  0.7455999999999998  0.23033000000000003  1.0000
  O   O17       1.0  0.24034999999999998  0.7068599999999998  0.45956000000000014  1.0000
  O   O18       1.0  0.24726999999999988  0.4663199999999999  0.70689  1.0000
  O   O19       1.0  0.48469  0.17002  0.75395  1.0000
  O   O20       1.0  0.17932  0.38336  0.72247  1.0000
  O   O21       1.0  0.82096  0.54316  0.20415000000000005  1.0000
  O   O22       1.0  0.7596500000000002  0.29314  0.54044  1.0000
  O   O23       1.0  0.4845099999999999  0.6703699999999998  0.25438  1.0000
  O   O24       1.0  0.66091  0.20416999999999996  0.38339000000000006  1.0000
  O   O25       1.0  0.75273  0.53367  0.29311  1.0000
  O   O26       1.0  0.70508  0.22514999999999996  0.5547700000000001  1.0000
  O   O27       1.0  0.51509  0.7695799999999999  0.18558  1.0000
  O   O28       1.0  0.6704399999999999  0.4451699999999999  0.15018  1.0000
  O   O29       1.0  0.75278  0.45967  0.21923000000000006  1.0000
  O   O30       1.0  0.33909000000000006  0.79582  0.61661  1.0000
  O   O31       1.0  0.33901999999999993  0.7223699999999997  0.54314  1.0000
  O   O32       1.0  0.51531  0.82998  0.24604000000000006  1.0000
  O   O33       1.0  0.82069  0.61664  0.27753  1.0000
  O   O34       1.0  0.32956  0.5548199999999998  0.84982  1.0000
  O   O35       1.0  0.6609799999999999  0.2776199999999999  0.45686  1.0000
  O   O36       1.0  0.70504  0.15001999999999996  0.47961  1.0000
  O   O37       1.0  0.24042  0.78083  0.53359  1.0000
  O   O38       1.0  0.4850499999999999  0.7309199999999998  0.31501  1.0000
  O   O39       1.0  0.5840500000000001  0.8144299999999998  0.32946  1.0000
  O   O40       1.0  0.17905000000000001  0.4568399999999999  0.7958500000000001  1.0000
  O   O41       1.0  0.24722000000000005  0.5403299999999999  0.7807700000000002  1.0000
  O   O42       1.0  0.48492  0.23040999999999998  0.81442  1.0000
  O   O43       1.0  0.5840000000000002  0.2543900000000001  0.7696700000000002  1.0000
  O   O44       1.0  0.29492  0.7748399999999999  0.44523  1.0000
  O   O45       1.0  0.3963799999999999  0.8655399999999998  0.60586  1.0000
  O   O46       1.0  0.74043  0.53077  0.13459  1.0000
  O   O47       1.0  0.6035800000000001  0.20939000000000005  0.46899000000000013  1.0000
  O   O48       1.0  0.74024  0.6057699999999999  0.20937000000000003  1.0000
