data_image0
_chemical_formula_structural       Cd24H104C176N48O72
_chemical_formula_sum              "Cd24 H104 C176 N48 O72"
_cell_length_a       16.97113
_cell_length_b       16.97184
_cell_length_c       37.53463
_cell_angle_alpha    90.0
_cell_angle_beta     90.0
_cell_angle_gamma    101.33254

_symmetry_space_group_name_H-M    'P 1'
_symmetry_Int_Tables_number       1

loop_
  _symmetry_equiv_pos_as_xyz
  'x,y,z'

loop_
  _atom_site_type_symbol
  _atom_site_label
  _atom_site_symmetry_multiplicity
  _atom_site_fract_x
  _atom_site_fract_y
  _atom_site_fract_z
  _atom_site_occupancy
  Cd  Cd1       1.0  0.86797  0.7342  0.8500199999999999  1.0000
  Cd  Cd2       1.0  0.7559199999999998  0.07663  0.8499999999999999  1.0000
  Cd  Cd3       1.0  0.13203  0.2658  0.8500199999999999  1.0000
  Cd  Cd4       1.0  0.24408  0.92337  0.8499999999999999  1.0000
  Cd  Cd5       1.0  0.26578  0.13202  0.64998  1.0000
  Cd  Cd6       1.0  0.92336  0.24409000000000003  0.64999  1.0000
  Cd  Cd7       1.0  0.7342199999999998  0.8679799999999998  0.64998  1.0000
  Cd  Cd8       1.0  0.07664  0.75592  0.64999  1.0000
  Cd  Cd9       1.0  0.13203  0.2658  0.14998  1.0000
  Cd  Cd10      1.0  0.24408  0.92337  0.14999  1.0000
  Cd  Cd11      1.0  0.86797  0.7342  0.14998  1.0000
  Cd  Cd12      1.0  0.7559199999999998  0.07663  0.14999  1.0000
  Cd  Cd13      1.0  0.7342199999999998  0.8679799999999998  0.35002  1.0000
  Cd  Cd14      1.0  0.07664  0.75592  0.35001  1.0000
  Cd  Cd15      1.0  0.26578  0.13202  0.35002  1.0000
  Cd  Cd16      1.0  0.92336  0.24409000000000003  0.35001  1.0000
  Cd  Cd17      1.0  0.76196  0.76195  0.75  1.0000
  Cd  Cd18      1.0  0.23804  0.23805  0.75  1.0000
  Cd  Cd19      1.0  0.23804999999999998  0.23806  0.25  1.0000
  Cd  Cd20      1.0  0.76195  0.76195  0.25  1.0000
  Cd  Cd21      1.0  0.81819  0.18182  0.75  1.0000
  Cd  Cd22      1.0  0.18180999999999994  0.81818  0.75  1.0000
  Cd  Cd23      1.0  0.18180999999999994  0.81818  0.25  1.0000
  Cd  Cd24      1.0  0.81819  0.18182  0.25  1.0000
  H   H1        1.0  0.8302799999999999  0.91105  0.8768699999999999  1.0000
  H   H2        1.0  0.55843  0.55882  0.80722  1.0000
  H   H3        1.0  0.7319299999999999  0.94586  0.77651  1.0000
  H   H4        1.0  0.94164  0.16099  0.87932  1.0000
  H   H5        1.0  0.39613  0.17315  0.78074  1.0000
  H   H6        1.0  0.51404  0.11691  0.68543  1.0000
  H   H7        1.0  0.51383  0.15116  0.81702  1.0000
  H   H8        1.0  0.63182  0.09525  0.72166  1.0000
  H   H9        1.0  0.90074  0.057059999999999986  0.96635  1.0000
  H   H10       1.0  0.91852  0.88328  0.96633  1.0000
  H   H11       1.0  0.85013  0.62595  0.96641  1.0000
  H   H12       1.0  0.99934  0.2705  0.7797299999999998  1.0000
  H   H13       1.0  0.65712  0.09196  0.96642  1.0000
  H   H14       1.0  0.16972  0.08895  0.8768699999999999  1.0000
  H   H15       1.0  0.4415700000000001  0.44118  0.80722  1.0000
  H   H16       1.0  0.26807  0.05414  0.77651  1.0000
  H   H17       1.0  0.058359999999999995  0.83901  0.87932  1.0000
  H   H18       1.0  0.6038699999999999  0.82686  0.78074  1.0000
  H   H19       1.0  0.48595999999999995  0.88309  0.68543  1.0000
  H   H20       1.0  0.48617  0.84884  0.81702  1.0000
  H   H21       1.0  0.36818  0.90475  0.72166  1.0000
  H   H22       1.0  0.09925999999999996  0.94294  0.96635  1.0000
  H   H23       1.0  0.08148  0.11672  0.96633  1.0000
  H   H24       1.0  0.14986999999999995  0.37405  0.96641  1.0000
  H   H25       1.0  0.0006599999999999854  0.7295  0.7797299999999998  1.0000
  H   H26       1.0  0.34288  0.90804  0.96642  1.0000
  H   H27       1.0  0.08893  0.16972  0.6231199999999999  1.0000
  H   H28       1.0  0.44117999999999996  0.44157  0.6927799999999998  1.0000
  H   H29       1.0  0.054129999999999984  0.26808999999999994  0.7234899999999999  1.0000
  H   H30       1.0  0.83901  0.05838  0.62068  1.0000
  H   H31       1.0  0.82686  0.60386  0.71926  1.0000
  H   H32       1.0  0.88308  0.48594  0.81456  1.0000
  H   H33       1.0  0.8488499999999998  0.48617000000000005  0.6829699999999999  1.0000
  H   H34       1.0  0.90475  0.36817  0.77834  1.0000
  H   H35       1.0  0.9429399999999999  0.09928  0.53365  1.0000
  H   H36       1.0  0.11670999999999997  0.08148  0.53366  1.0000
  H   H37       1.0  0.37405999999999995  0.14987  0.53359  1.0000
  H   H38       1.0  0.72952  0.00067  0.72026  1.0000
  H   H39       1.0  0.90804  0.34288999999999986  0.53357  1.0000
  H   H40       1.0  0.9110699999999999  0.83028  0.6231199999999999  1.0000
  H   H41       1.0  0.55882  0.55843  0.6927799999999998  1.0000
  H   H42       1.0  0.94587  0.7319099999999998  0.7234899999999999  1.0000
  H   H43       1.0  0.16099  0.94162  0.62068  1.0000
  H   H44       1.0  0.17314  0.3961399999999999  0.71926  1.0000
  H   H45       1.0  0.11691999999999995  0.5140599999999997  0.81456  1.0000
  H   H46       1.0  0.15114999999999998  0.5138299999999998  0.6829699999999999  1.0000
  H   H47       1.0  0.09524999999999993  0.6318299999999998  0.77834  1.0000
  H   H48       1.0  0.05705999999999996  0.9007199999999997  0.53365  1.0000
  H   H49       1.0  0.88329  0.91852  0.53366  1.0000
  H   H50       1.0  0.62594  0.85013  0.53359  1.0000
  H   H51       1.0  0.27048  0.99933  0.72026  1.0000
  H   H52       1.0  0.09196  0.65711  0.53357  1.0000
  H   H53       1.0  0.16972  0.08895  0.12312  1.0000
  H   H54       1.0  0.4415700000000001  0.44118  0.19278  1.0000
  H   H55       1.0  0.26807  0.05414  0.22348999999999997  1.0000
  H   H56       1.0  0.058359999999999995  0.83901  0.12067999999999998  1.0000
  H   H57       1.0  0.6038699999999999  0.82686  0.21925  1.0000
  H   H58       1.0  0.48595999999999995  0.88309  0.31456  1.0000
  H   H59       1.0  0.48617  0.84884  0.18296999999999994  1.0000
  H   H60       1.0  0.36818  0.90475  0.27834  1.0000
  H   H61       1.0  0.09925999999999996  0.94294  0.03365  1.0000
  H   H62       1.0  0.08148  0.11672  0.03367  1.0000
  H   H63       1.0  0.14986999999999995  0.37405  0.03359  1.0000
  H   H64       1.0  0.0006599999999999854  0.7295  0.22025999999999998  1.0000
  H   H65       1.0  0.34288  0.90804  0.03358  1.0000
  H   H66       1.0  0.8302899999999999  0.91105  0.12312  1.0000
  H   H67       1.0  0.55843  0.55882  0.19278  1.0000
  H   H68       1.0  0.7319299999999999  0.94586  0.22348999999999997  1.0000
  H   H69       1.0  0.94164  0.16099  0.12067999999999998  1.0000
  H   H70       1.0  0.39613  0.17315  0.21925  1.0000
  H   H71       1.0  0.51404  0.11691  0.31456  1.0000
  H   H72       1.0  0.51383  0.15116  0.18296999999999994  1.0000
  H   H73       1.0  0.63182  0.09525  0.27834  1.0000
  H   H74       1.0  0.90074  0.057059999999999986  0.03365  1.0000
  H   H75       1.0  0.91852  0.88328  0.03367  1.0000
  H   H76       1.0  0.85013  0.62595  0.03359  1.0000
  H   H77       1.0  0.99934  0.2705  0.22025999999999998  1.0000
  H   H78       1.0  0.65712  0.09196  0.03358  1.0000
  H   H79       1.0  0.9110699999999999  0.83028  0.3768699999999999  1.0000
  H   H80       1.0  0.55882  0.55843  0.30722  1.0000
  H   H81       1.0  0.94587  0.7319099999999998  0.27651  1.0000
  H   H82       1.0  0.16099  0.94162  0.37932  1.0000
  H   H83       1.0  0.17314  0.3961399999999999  0.28074  1.0000
  H   H84       1.0  0.11691999999999995  0.5140599999999997  0.18543  1.0000
  H   H85       1.0  0.15114999999999998  0.5138299999999998  0.31703  1.0000
  H   H86       1.0  0.09524999999999993  0.6318299999999998  0.22166  1.0000
  H   H87       1.0  0.05705999999999996  0.9007199999999997  0.46634999999999993  1.0000
  H   H88       1.0  0.88329  0.91852  0.46633  1.0000
  H   H89       1.0  0.62594  0.85013  0.46641  1.0000
  H   H90       1.0  0.27048  0.99933  0.27973  1.0000
  H   H91       1.0  0.09196  0.65711  0.46642  1.0000
  H   H92       1.0  0.08893  0.16972  0.3768699999999999  1.0000
  H   H93       1.0  0.44117999999999996  0.44157  0.30722  1.0000
  H   H94       1.0  0.054129999999999984  0.26808999999999994  0.27651  1.0000
  H   H95       1.0  0.83901  0.05838  0.37932  1.0000
  H   H96       1.0  0.82686  0.60386  0.28074  1.0000
  H   H97       1.0  0.88308  0.48594  0.18543  1.0000
  H   H98       1.0  0.8488499999999998  0.48617000000000005  0.31703  1.0000
  H   H99       1.0  0.90475  0.36817  0.22166  1.0000
  H   H100      1.0  0.9429399999999999  0.09928  0.46634999999999993  1.0000
  H   H101      1.0  0.11672  0.08148  0.46633  1.0000
  H   H102      1.0  0.37405999999999995  0.14987  0.46641  1.0000
  H   H103      1.0  0.72952  0.00067  0.27973  1.0000
  H   H104      1.0  0.90804  0.34288999999999986  0.46642  1.0000
  C   C1        1.0  0.8086999999999999  0.90265  0.84967  1.0000
  C   C2        1.0  0.57982  0.12227999999999999  0.77154  1.0000
  C   C3        1.0  0.53228  0.53241  0.78246  1.0000
  C   C4        1.0  0.75983  0.92082  0.7985799999999998  1.0000
  C   C5        1.0  0.9378899999999998  0.18173  0.85214  1.0000
  C   C6        1.0  0.88242  0.7535299999999998  0.9231799999999999  1.0000
  C   C7        1.0  0.8848999999999999  0.7544499999999997  0.9628099999999999  1.0000
  C   C8        1.0  0.6487099999999999  0.10814999999999997  0.7935299999999998  1.0000
  C   C9        1.0  0.44753  0.15548  0.7679999999999999  1.0000
  C   C10       1.0  0.51512  0.12462000000000001  0.7141799999999999  1.0000
  C   C11       1.0  0.5130299999999998  0.14385  0.78824  1.0000
  C   C12       1.0  0.58051  0.11292999999999997  0.7344099999999999  1.0000
  C   C13       1.0  0.4480699999999999  0.14549  0.73087  1.0000
  C   C14       1.0  0.8478499999999999  0.06419999999999997  0.98144  1.0000
  C   C15       1.0  0.90483  0.82753  0.98142  1.0000
  C   C16       1.0  0.8657  0.6815699999999998  0.9814699999999998  1.0000
  C   C17       1.0  0.7788599999999998  0.07446  0.9627499999999999  1.0000
  C   C18       1.0  0.37682  0.15255  0.7086  1.0000
  C   C19       1.0  0.9672499999999999  0.23696  0.80158  1.0000
  C   C20       1.0  0.77807  0.0747  0.92307  1.0000
  C   C21       1.0  0.7098399999999998  0.0843  0.98146  1.0000
  C   C22       1.0  0.1913  0.09735  0.84967  1.0000
  C   C23       1.0  0.42018  0.8777199999999997  0.77154  1.0000
  C   C24       1.0  0.46771999999999997  0.46759  0.78246  1.0000
  C   C25       1.0  0.24017  0.07918  0.7985799999999998  1.0000
  C   C26       1.0  0.06210999999999994  0.8182799999999998  0.85214  1.0000
  C   C27       1.0  0.11758000000000002  0.24647  0.9231799999999999  1.0000
  C   C28       1.0  0.11509999999999998  0.24554999999999996  0.9628099999999999  1.0000
  C   C29       1.0  0.35128999999999994  0.8918499999999998  0.7935299999999998  1.0000
  C   C30       1.0  0.55247  0.84452  0.7679999999999999  1.0000
  C   C31       1.0  0.4848799999999999  0.87538  0.7141799999999999  1.0000
  C   C32       1.0  0.48697000000000007  0.8561499999999997  0.78824  1.0000
  C   C33       1.0  0.41949  0.88707  0.7344099999999999  1.0000
  C   C34       1.0  0.5519299999999999  0.85451  0.73087  1.0000
  C   C35       1.0  0.15215  0.9358  0.98144  1.0000
  C   C36       1.0  0.09517  0.17248  0.98142  1.0000
  C   C37       1.0  0.1343  0.31843  0.9814699999999998  1.0000
  C   C38       1.0  0.22114  0.92554  0.9627499999999999  1.0000
  C   C39       1.0  0.62318  0.84745  0.7086  1.0000
  C   C40       1.0  0.032749999999999946  0.7630399999999998  0.80158  1.0000
  C   C41       1.0  0.22193  0.9253  0.92307  1.0000
  C   C42       1.0  0.29016  0.9157  0.98146  1.0000
  C   C43       1.0  0.09733  0.1913  0.65033  1.0000
  C   C44       1.0  0.87772  0.4201799999999999  0.72845  1.0000
  C   C45       1.0  0.4675899999999999  0.46772  0.71753  1.0000
  C   C46       1.0  0.07917  0.24018  0.70142  1.0000
  C   C47       1.0  0.81828  0.06212999999999999  0.64785  1.0000
  C   C48       1.0  0.24646999999999997  0.11758999999999997  0.57681  1.0000
  C   C49       1.0  0.24553999999999998  0.1151  0.5371899999999998  1.0000
  C   C50       1.0  0.89185  0.35129  0.70647  1.0000
  C   C51       1.0  0.8445199999999998  0.55246  0.732  1.0000
  C   C52       1.0  0.87537  0.48486999999999997  0.78581  1.0000
  C   C53       1.0  0.85616  0.48695999999999995  0.71177  1.0000
  C   C54       1.0  0.88708  0.41948  0.7656  1.0000
  C   C55       1.0  0.85451  0.5519  0.76913  1.0000
  C   C56       1.0  0.9357999999999997  0.15216  0.51856  1.0000
  C   C57       1.0  0.17246999999999998  0.09517  0.5185699999999999  1.0000
  C   C58       1.0  0.31843  0.13429999999999995  0.51852  1.0000
  C   C59       1.0  0.9255499999999998  0.22114999999999996  0.53725  1.0000
  C   C60       1.0  0.84745  0.62316  0.7913999999999999  1.0000
  C   C61       1.0  0.76306  0.03276  0.69841  1.0000
  C   C62       1.0  0.9253  0.22194  0.57693  1.0000
  C   C63       1.0  0.91571  0.29017  0.51854  1.0000
  C   C64       1.0  0.90267  0.8087  0.65033  1.0000
  C   C65       1.0  0.12228000000000001  0.57982  0.72845  1.0000
  C   C66       1.0  0.53241  0.53228  0.71753  1.0000
  C   C67       1.0  0.92083  0.75982  0.70142  1.0000
  C   C68       1.0  0.18172  0.93787  0.64785  1.0000
  C   C69       1.0  0.75353  0.88242  0.57681  1.0000
  C   C70       1.0  0.75446  0.8849  0.5371899999999998  1.0000
  C   C71       1.0  0.10815  0.64871  0.70647  1.0000
  C   C72       1.0  0.15547999999999998  0.44753999999999994  0.732  1.0000
  C   C73       1.0  0.12463  0.51513  0.78581  1.0000
  C   C74       1.0  0.14384  0.51304  0.71177  1.0000
  C   C75       1.0  0.11291999999999995  0.5805199999999998  0.7656  1.0000
  C   C76       1.0  0.14548999999999995  0.4481  0.76913  1.0000
  C   C77       1.0  0.06419999999999997  0.8478399999999998  0.51856  1.0000
  C   C78       1.0  0.8275299999999997  0.9048299999999998  0.5185699999999999  1.0000
  C   C79       1.0  0.68157  0.8657  0.51852  1.0000
  C   C80       1.0  0.07446  0.77885  0.53725  1.0000
  C   C81       1.0  0.15254999999999996  0.37684  0.7913999999999999  1.0000
  C   C82       1.0  0.23694  0.96724  0.69841  1.0000
  C   C83       1.0  0.0747  0.77806  0.57693  1.0000
  C   C84       1.0  0.08429000000000002  0.70983  0.51854  1.0000
  C   C85       1.0  0.1913  0.09735  0.15033  1.0000
  C   C86       1.0  0.42018  0.8777199999999997  0.22845  1.0000
  C   C87       1.0  0.46771999999999997  0.46759  0.21753  1.0000
  C   C88       1.0  0.24017  0.07919  0.20141999999999996  1.0000
  C   C89       1.0  0.06211999999999995  0.8182799999999998  0.14785  1.0000
  C   C90       1.0  0.11758000000000002  0.24647  0.07681999999999999  1.0000
  C   C91       1.0  0.11509999999999998  0.24554999999999996  0.037189999999999994  1.0000
  C   C92       1.0  0.35128999999999994  0.8918499999999998  0.20646  1.0000
  C   C93       1.0  0.55247  0.84452  0.232  1.0000
  C   C94       1.0  0.4848799999999999  0.87538  0.28581  1.0000
  C   C95       1.0  0.48697000000000007  0.8561499999999997  0.21176  1.0000
  C   C96       1.0  0.41949  0.88707  0.26558999999999994  1.0000
  C   C97       1.0  0.5519299999999999  0.85451  0.26912  1.0000
  C   C98       1.0  0.15215  0.9358  0.01856  1.0000
  C   C99       1.0  0.09517  0.17248  0.01857  1.0000
  C   C100      1.0  0.1343  0.31843  0.01852  1.0000
  C   C101      1.0  0.22114  0.92554  0.03724999999999999  1.0000
  C   C102      1.0  0.62318  0.84745  0.2914  1.0000
  C   C103      1.0  0.032749999999999946  0.7630399999999998  0.19841  1.0000
  C   C104      1.0  0.22193  0.9253  0.07693  1.0000
  C   C105      1.0  0.29016  0.9157  0.01854  1.0000
  C   C106      1.0  0.8086999999999999  0.90265  0.15033  1.0000
  C   C107      1.0  0.57982  0.12227999999999999  0.22845  1.0000
  C   C108      1.0  0.53228  0.53241  0.21753  1.0000
  C   C109      1.0  0.75983  0.92082  0.20141999999999996  1.0000
  C   C110      1.0  0.9378899999999998  0.18173  0.14785  1.0000
  C   C111      1.0  0.88242  0.7535299999999998  0.07681999999999999  1.0000
  C   C112      1.0  0.8848999999999999  0.7544499999999997  0.037189999999999994  1.0000
  C   C113      1.0  0.6487099999999999  0.10814999999999997  0.20646  1.0000
  C   C114      1.0  0.44753  0.15548  0.232  1.0000
  C   C115      1.0  0.51512  0.12462000000000001  0.28581  1.0000
  C   C116      1.0  0.5130299999999998  0.14385  0.21176  1.0000
  C   C117      1.0  0.58051  0.11292999999999997  0.26558999999999994  1.0000
  C   C118      1.0  0.4480699999999999  0.14549  0.26912  1.0000
  C   C119      1.0  0.8478499999999999  0.06419999999999997  0.01856  1.0000
  C   C120      1.0  0.90483  0.82753  0.01857  1.0000
  C   C121      1.0  0.8657  0.6815699999999998  0.01852  1.0000
  C   C122      1.0  0.7788599999999998  0.07446  0.03724999999999999  1.0000
  C   C123      1.0  0.37682  0.15255  0.2914  1.0000
  C   C124      1.0  0.9672499999999999  0.23696  0.19841  1.0000
  C   C125      1.0  0.77807  0.0747  0.07693  1.0000
  C   C126      1.0  0.7098399999999998  0.0843  0.01854  1.0000
  C   C127      1.0  0.90267  0.8087  0.34967  1.0000
  C   C128      1.0  0.12228000000000001  0.57982  0.27154999999999996  1.0000
  C   C129      1.0  0.53241  0.53228  0.28247  1.0000
  C   C130      1.0  0.92083  0.75982  0.29858  1.0000
  C   C131      1.0  0.18172  0.93787  0.35214  1.0000
  C   C132      1.0  0.75353  0.88242  0.42318  1.0000
  C   C133      1.0  0.75446  0.8849  0.46281  1.0000
  C   C134      1.0  0.10815  0.64871  0.29353  1.0000
  C   C135      1.0  0.15547999999999998  0.44753999999999994  0.268  1.0000
  C   C136      1.0  0.12463  0.51513  0.21419  1.0000
  C   C137      1.0  0.14384  0.51304  0.28822999999999993  1.0000
  C   C138      1.0  0.11292  0.58053  0.2344  1.0000
  C   C139      1.0  0.14548999999999995  0.4481  0.23086999999999996  1.0000
  C   C140      1.0  0.06419999999999997  0.8478399999999998  0.48144  1.0000
  C   C141      1.0  0.8275299999999997  0.9048299999999998  0.48143  1.0000
  C   C142      1.0  0.68157  0.8657  0.48147999999999996  1.0000
  C   C143      1.0  0.07446  0.77885  0.46274999999999994  1.0000
  C   C144      1.0  0.15254999999999996  0.37684  0.2086  1.0000
  C   C145      1.0  0.23694  0.96724  0.30157999999999996  1.0000
  C   C146      1.0  0.0747  0.77806  0.42306999999999995  1.0000
  C   C147      1.0  0.08429000000000002  0.70983  0.48145999999999994  1.0000
  C   C148      1.0  0.09733  0.1913  0.34967  1.0000
  C   C149      1.0  0.87772  0.4201799999999999  0.27154999999999996  1.0000
  C   C150      1.0  0.4675899999999999  0.46772  0.28247  1.0000
  C   C151      1.0  0.07917  0.24018  0.29858  1.0000
  C   C152      1.0  0.81828  0.06212999999999999  0.35214  1.0000
  C   C153      1.0  0.24646999999999997  0.11758999999999997  0.42318  1.0000
  C   C154      1.0  0.24553999999999998  0.1151  0.46281  1.0000
  C   C155      1.0  0.89185  0.35129  0.29353  1.0000
  C   C156      1.0  0.8445199999999998  0.55246  0.268  1.0000
  C   C157      1.0  0.87537  0.48486999999999997  0.21419  1.0000
  C   C158      1.0  0.85616  0.48695999999999995  0.28822999999999993  1.0000
  C   C159      1.0  0.88708  0.41947  0.2344  1.0000
  C   C160      1.0  0.85451  0.5519  0.23086999999999996  1.0000
  C   C161      1.0  0.9357999999999997  0.15216  0.48144  1.0000
  C   C162      1.0  0.17246999999999998  0.09517  0.48143  1.0000
  C   C163      1.0  0.31843  0.13429999999999995  0.48147999999999996  1.0000
  C   C164      1.0  0.9255499999999998  0.22114999999999996  0.46274999999999994  1.0000
  C   C165      1.0  0.84745  0.62316  0.2086  1.0000
  C   C166      1.0  0.76306  0.03276  0.30157999999999996  1.0000
  C   C167      1.0  0.9253  0.22194  0.42306999999999995  1.0000
  C   C168      1.0  0.91571  0.29017  0.48145999999999994  1.0000
  C   C169      1.0  0.6342099999999999  0.6342  0.75  1.0000
  C   C170      1.0  0.56499  0.56499  0.75  1.0000
  C   C171      1.0  0.36579  0.3658  0.75  1.0000
  C   C172      1.0  0.4350099999999999  0.43501  0.75  1.0000
  C   C173      1.0  0.36579  0.3658  0.25  1.0000
  C   C174      1.0  0.4350099999999999  0.43501  0.25  1.0000
  C   C175      1.0  0.6342099999999999  0.6342  0.25  1.0000
  C   C176      1.0  0.56499  0.56499  0.25  1.0000
  N   N1        1.0  0.77541  0.95606  0.83089  1.0000
  N   N2        1.0  0.9989499999999999  0.22835  0.83397  1.0000
  N   N3        1.0  0.81312  0.83787  0.83017  1.0000
  N   N4        1.0  0.7820099999999998  0.8497299999999998  0.7971599999999998  1.0000
  N   N5        1.0  0.87168  0.16245999999999997  0.83224  1.0000
  N   N6        1.0  0.89074  0.19816  0.79957  1.0000
  N   N7        1.0  0.22459  0.04394  0.83089  1.0000
  N   N8        1.0  0.0010499999999999863  0.77165  0.83397  1.0000
  N   N9        1.0  0.18688  0.16213  0.83017  1.0000
  N   N10       1.0  0.21798999999999993  0.15027  0.7971599999999998  1.0000
  N   N11       1.0  0.12831999999999993  0.8375399999999997  0.83224  1.0000
  N   N12       1.0  0.10925999999999993  0.8018399999999998  0.79957  1.0000
  N   N13       1.0  0.04393  0.2246  0.66911  1.0000
  N   N14       1.0  0.77166  0.00106  0.66603  1.0000
  N   N15       1.0  0.16211  0.18687999999999996  0.66983  1.0000
  N   N16       1.0  0.15025  0.21799  0.70284  1.0000
  N   N17       1.0  0.83753  0.12834  0.6677499999999998  1.0000
  N   N18       1.0  0.80184  0.10926999999999998  0.70042  1.0000
  N   N19       1.0  0.9560699999999999  0.7754  0.66911  1.0000
  N   N20       1.0  0.2283399999999999  0.99894  0.66603  1.0000
  N   N21       1.0  0.8378899999999999  0.81312  0.66983  1.0000
  N   N22       1.0  0.84975  0.78201  0.70284  1.0000
  N   N23       1.0  0.16246999999999998  0.8716699999999997  0.6677499999999998  1.0000
  N   N24       1.0  0.19815999999999995  0.89073  0.70042  1.0000
  N   N25       1.0  0.22459  0.04394  0.16911  1.0000
  N   N26       1.0  0.0010499999999999863  0.77165  0.16602999999999998  1.0000
  N   N27       1.0  0.18688  0.16213  0.16983  1.0000
  N   N28       1.0  0.21798999999999993  0.15027  0.20284  1.0000
  N   N29       1.0  0.12831999999999993  0.8375399999999997  0.16776  1.0000
  N   N30       1.0  0.10925999999999993  0.8018399999999998  0.20043  1.0000
  N   N31       1.0  0.77541  0.95606  0.16911  1.0000
  N   N32       1.0  0.9989499999999999  0.22835  0.16602999999999998  1.0000
  N   N33       1.0  0.81312  0.83787  0.16983  1.0000
  N   N34       1.0  0.7820099999999998  0.8497299999999998  0.20284  1.0000
  N   N35       1.0  0.87168  0.16245999999999997  0.16776  1.0000
  N   N36       1.0  0.89074  0.19816  0.20043  1.0000
  N   N37       1.0  0.9560699999999999  0.7754  0.3308899999999999  1.0000
  N   N38       1.0  0.22832999999999998  0.99894  0.33396999999999993  1.0000
  N   N39       1.0  0.8378899999999999  0.81312  0.33016999999999996  1.0000
  N   N40       1.0  0.84975  0.78201  0.29716  1.0000
  N   N41       1.0  0.16246999999999998  0.8716699999999997  0.33225  1.0000
  N   N42       1.0  0.19815999999999995  0.89073  0.29957  1.0000
  N   N43       1.0  0.04393  0.2246  0.3308899999999999  1.0000
  N   N44       1.0  0.77167  0.00106  0.33396999999999993  1.0000
  N   N45       1.0  0.16211  0.18687999999999996  0.33016999999999996  1.0000
  N   N46       1.0  0.15025  0.21799  0.29716  1.0000
  N   N47       1.0  0.83753  0.12832999999999994  0.33225  1.0000
  N   N48       1.0  0.80184  0.10926999999999998  0.29957  1.0000
  O   O1        1.0  0.71606  0.10263  0.7784  1.0000
  O   O2        1.0  0.30733  0.14332  0.72321  1.0000
  O   O3        1.0  0.38823  0.16241  0.6751399999999999  1.0000
  O   O4        1.0  0.6508  0.67633  0.7782899999999998  1.0000
  O   O5        1.0  0.90479  0.81808  0.90545  1.0000
  O   O6        1.0  0.83736  0.059169999999999986  0.90545  1.0000
  O   O7        1.0  0.63892  0.09948  0.82688  1.0000
  O   O8        1.0  0.85695  0.68637  0.9070899999999998  1.0000
  O   O9        1.0  0.71599  0.09076  0.90699  1.0000
  O   O10       1.0  0.28394  0.89737  0.7784  1.0000
  O   O11       1.0  0.69267  0.85668  0.72321  1.0000
  O   O12       1.0  0.61177  0.8375899999999997  0.6751399999999999  1.0000
  O   O13       1.0  0.3492  0.32367  0.7782899999999998  1.0000
  O   O14       1.0  0.09521  0.18192  0.90545  1.0000
  O   O15       1.0  0.16264  0.94083  0.90545  1.0000
  O   O16       1.0  0.36108999999999997  0.90052  0.82688  1.0000
  O   O17       1.0  0.14305  0.31364  0.9070899999999998  1.0000
  O   O18       1.0  0.28401  0.90924  0.90699  1.0000
  O   O19       1.0  0.89738  0.28394  0.7215899999999998  1.0000
  O   O20       1.0  0.8566799999999998  0.69263  0.77679  1.0000
  O   O21       1.0  0.83759  0.61175  0.82486  1.0000
  O   O22       1.0  0.32366  0.3492  0.7217  1.0000
  O   O23       1.0  0.18192  0.09521  0.59454  1.0000
  O   O24       1.0  0.9408299999999999  0.16265  0.59454  1.0000
  O   O25       1.0  0.9005199999999997  0.36109  0.67311  1.0000
  O   O26       1.0  0.31364  0.14306  0.5929  1.0000
  O   O27       1.0  0.9092399999999998  0.28401  0.593  1.0000
  O   O28       1.0  0.10263  0.71606  0.7215899999999998  1.0000
  O   O29       1.0  0.14332  0.3073699999999999  0.77679  1.0000
  O   O30       1.0  0.16241  0.38825  0.82486  1.0000
  O   O31       1.0  0.67634  0.6508  0.7217  1.0000
  O   O32       1.0  0.8180799999999997  0.90479  0.59454  1.0000
  O   O33       1.0  0.05916999999999994  0.8373499999999998  0.59454  1.0000
  O   O34       1.0  0.09948  0.63891  0.67311  1.0000
  O   O35       1.0  0.6863699999999999  0.8569399999999998  0.5929  1.0000
  O   O36       1.0  0.09076000000000002  0.71599  0.593  1.0000
  O   O37       1.0  0.28394  0.89737  0.22159999999999996  1.0000
  O   O38       1.0  0.69267  0.85668  0.2767899999999999  1.0000
  O   O39       1.0  0.61177  0.8375899999999997  0.32486  1.0000
  O   O40       1.0  0.3492  0.32368  0.22169999999999998  1.0000
  O   O41       1.0  0.09521  0.18192  0.09455  1.0000
  O   O42       1.0  0.16264  0.94083  0.09454  1.0000
  O   O43       1.0  0.36108999999999997  0.90052  0.17312  1.0000
  O   O44       1.0  0.14305  0.31364  0.0929  1.0000
  O   O45       1.0  0.28401  0.90924  0.093  1.0000
  O   O46       1.0  0.71606  0.10263  0.22159999999999996  1.0000
  O   O47       1.0  0.30734  0.14332  0.2767899999999999  1.0000
  O   O48       1.0  0.38823  0.16241  0.32486  1.0000
  O   O49       1.0  0.6508  0.67632  0.22169999999999998  1.0000
  O   O50       1.0  0.90479  0.81808  0.09454  1.0000
  O   O51       1.0  0.83736  0.059169999999999986  0.09454  1.0000
  O   O52       1.0  0.63892  0.09948  0.17312  1.0000
  O   O53       1.0  0.85695  0.68636  0.0929  1.0000
  O   O54       1.0  0.71599  0.09076  0.093  1.0000
  O   O55       1.0  0.10263  0.71606  0.2784  1.0000
  O   O56       1.0  0.14332  0.3073699999999999  0.22321  1.0000
  O   O57       1.0  0.16241  0.38825  0.17514  1.0000
  O   O58       1.0  0.6763299999999998  0.6508  0.27829  1.0000
  O   O59       1.0  0.8180799999999997  0.90479  0.40545  1.0000
  O   O60       1.0  0.05916999999999994  0.8373499999999998  0.40545999999999993  1.0000
  O   O61       1.0  0.09948  0.63891  0.32689  1.0000
  O   O62       1.0  0.6863699999999999  0.8569399999999998  0.40709999999999996  1.0000
  O   O63       1.0  0.09076000000000002  0.71599  0.40699  1.0000
  O   O64       1.0  0.89738  0.28394  0.2784  1.0000
  O   O65       1.0  0.8566799999999998  0.69263  0.22321  1.0000
  O   O66       1.0  0.83759  0.61175  0.17514  1.0000
  O   O67       1.0  0.32367  0.3492  0.27829  1.0000
  O   O68       1.0  0.18192  0.09521  0.40545  1.0000
  O   O69       1.0  0.9408299999999999  0.16265  0.40545999999999993  1.0000
  O   O70       1.0  0.9005199999999997  0.36109  0.32689  1.0000
  O   O71       1.0  0.31363  0.14306  0.40709999999999996  1.0000
  O   O72       1.0  0.9092399999999998  0.28401  0.40699  1.0000
