data_image0
_chemical_formula_structural       Cd8H128C192S8N32O48
_chemical_formula_sum              "Cd8 H128 C192 S8 N32 O48"
_cell_length_a       14.43524
_cell_length_b       20.04373
_cell_length_c       20.4893
_cell_angle_alpha    90.00965000000001
_cell_angle_beta     94.38242
_cell_angle_gamma    90.15993999999999

_space_group_name_H-M_alt    "P 1"
_space_group_IT_number       1

loop_
  _space_group_symop_operation_xyz
  'x, y, z'

loop_
  _atom_site_type_symbol
  _atom_site_label
  _atom_site_symmetry_multiplicity
  _atom_site_fract_x
  _atom_site_fract_y
  _atom_site_fract_z
  _atom_site_occupancy
  Cd  Cd1       1.0  0.3782799999999998  0.4569  0.6658999999999999  1.0000
  Cd  Cd2       1.0  0.13751  0.54478  0.67026  1.0000
  Cd  Cd3       1.0  0.1208  0.95594  0.33415  1.0000
  Cd  Cd4       1.0  0.36155000000000004  0.04378  0.32973  1.0000
  Cd  Cd5       1.0  0.6217299999999998  0.5431  0.33409  1.0000
  Cd  Cd6       1.0  0.8625  0.45522  0.32973  1.0000
  Cd  Cd7       1.0  0.87921  0.04406  0.6658499999999999  1.0000
  Cd  Cd8       1.0  0.63845  0.95622  0.67026  1.0000
  H   H1        1.0  0.3913  0.52858  0.33597  1.0000
  H   H2        1.0  0.33718  0.41216  0.00185  1.0000
  H   H3        1.0  0.09578999999999999  0.47140999999999994  0.33834999999999993  1.0000
  H   H4        1.0  0.17189999999999994  0.58225  0.01269  1.0000
  H   H5        1.0  0.34757  0.56589  0.24444  1.0000
  H   H6        1.0  0.36089999999999994  0.5901099999999999  0.12701  1.0000
  H   H7        1.0  0.38379  0.37969  0.08799999999999997  1.0000
  H   H8        1.0  0.36596999999999996  0.3556  0.20483  1.0000
  H   H9        1.0  0.40536  0.56396  0.55589  1.0000
  H   H10       1.0  0.39993000000000006  0.5775399999999999  0.43503  1.0000
  H   H11       1.0  0.32363  0.36951  0.41715  1.0000
  H   H12       1.0  0.3306599999999999  0.36469  0.5392399999999999  1.0000
  H   H13       1.0  0.4237299999999999  0.55207  0.78776  1.0000
  H   H14       1.0  0.41339999999999993  0.55962  0.9088099999999999  1.0000
  H   H15       1.0  0.31964  0.35471  0.9032399999999999  1.0000
  H   H16       1.0  0.33146  0.35654  0.78218  1.0000
  H   H17       1.0  0.11900999999999999  0.64321  0.20692  1.0000
  H   H18       1.0  0.10489  0.6177099999999999  0.08783  1.0000
  H   H19       1.0  0.12097  0.40778  0.13177  1.0000
  H   H20       1.0  0.12961999999999996  0.433  0.25038  1.0000
  H   H21       1.0  0.16545999999999994  0.63765  0.54542  1.0000
  H   H22       1.0  0.16540999999999997  0.63176  0.42351  1.0000
  H   H23       1.0  0.09338  0.4233199999999999  0.43743999999999994  1.0000
  H   H24       1.0  0.09414999999999997  0.43805999999999995  0.5577299999999998  1.0000
  H   H25       1.0  0.19906999999999994  0.6398199999999999  0.7959399999999999  1.0000
  H   H26       1.0  0.20044999999999996  0.64023  0.9179299999999999  1.0000
  H   H27       1.0  0.09636999999999997  0.43802  0.9066299999999999  1.0000
  H   H28       1.0  0.09835999999999995  0.44645999999999997  0.7851299999999998  1.0000
  H   H29       1.0  0.24674  0.71117  0.6625  1.0000
  H   H30       1.0  0.31707  0.83307  0.66221  1.0000
  H   H31       1.0  0.26764  0.29013999999999995  0.65943  1.0000
  H   H32       1.0  0.19645  0.16859  0.6584599999999999  1.0000
  H   H33       1.0  0.11017  0.029429999999999998  0.66399  1.0000
  H   H34       1.0  0.1646  0.9121999999999999  0.9985  1.0000
  H   H35       1.0  0.4036799999999999  0.97278  0.6619099999999999  1.0000
  H   H36       1.0  0.32721  0.08317  0.98737  1.0000
  H   H37       1.0  0.15207  0.06644999999999998  0.75626  1.0000
  H   H38       1.0  0.13730000000000003  0.08978  0.87372  1.0000
  H   H39       1.0  0.11545999999999998  0.879  0.9113499999999999  1.0000
  H   H40       1.0  0.13432  0.85581  0.7943699999999999  1.0000
  H   H41       1.0  0.09381  0.06391  0.44391999999999987  1.0000
  H   H42       1.0  0.10053  0.07796  0.5647  1.0000
  H   H43       1.0  0.17651  0.8702599999999999  0.58295  1.0000
  H   H44       1.0  0.16833  0.86494  0.46089  1.0000
  H   H45       1.0  0.07579999999999998  0.051989999999999995  0.21203999999999998  1.0000
  H   H46       1.0  0.08626  0.05899  0.09105  1.0000
  H   H47       1.0  0.1804  0.85461  0.09736  1.0000
  H   H48       1.0  0.16833999999999996  0.8568899999999999  0.21836  1.0000
  H   H49       1.0  0.38062999999999986  0.14474  0.7929299999999998  1.0000
  H   H50       1.0  0.39489  0.11937  0.91206  1.0000
  H   H51       1.0  0.3784999999999999  0.9093399999999999  0.86806  1.0000
  H   H52       1.0  0.3695799999999999  0.9345199999999999  0.7494899999999999  1.0000
  H   H53       1.0  0.33439999999999986  0.1375  0.4539999999999999  1.0000
  H   H54       1.0  0.33445  0.13241  0.57603  1.0000
  H   H55       1.0  0.40635999999999994  0.9241599999999999  0.56322  1.0000
  H   H56       1.0  0.4053499999999999  0.93806  0.44276999999999994  1.0000
  H   H57       1.0  0.30087  0.1396  0.20468999999999998  1.0000
  H   H58       1.0  0.29958  0.14081  0.08268999999999999  1.0000
  H   H59       1.0  0.4035799999999999  0.93899  0.09273999999999999  1.0000
  H   H60       1.0  0.4013199999999999  0.9465899999999999  0.21429  1.0000
  H   H61       1.0  0.25229  0.20965999999999999  0.3374  1.0000
  H   H62       1.0  0.18286  0.33151  0.33785  1.0000
  H   H63       1.0  0.23445999999999997  0.78818  0.34045999999999993  1.0000
  H   H64       1.0  0.30672  0.6672399999999999  0.34138  1.0000
  H   H65       1.0  0.60871  0.47142  0.66403  1.0000
  H   H66       1.0  0.66282  0.5878499999999999  0.9981499999999999  1.0000
  H   H67       1.0  0.90422  0.52859  0.6616399999999999  1.0000
  H   H68       1.0  0.8281  0.41776  0.98731  1.0000
  H   H69       1.0  0.6524299999999998  0.43411999999999995  0.75556  1.0000
  H   H70       1.0  0.6390999999999999  0.40989  0.8729899999999998  1.0000
  H   H71       1.0  0.61622  0.62031  0.912  1.0000
  H   H72       1.0  0.6340299999999998  0.64441  0.79517  1.0000
  H   H73       1.0  0.59464  0.43605  0.4441099999999999  1.0000
  H   H74       1.0  0.60007  0.42245999999999995  0.56496  1.0000
  H   H75       1.0  0.67637  0.63049  0.58285  1.0000
  H   H76       1.0  0.66934  0.63532  0.46075999999999995  1.0000
  H   H77       1.0  0.5762799999999998  0.44792999999999994  0.21223  1.0000
  H   H78       1.0  0.58661  0.44039  0.09119  1.0000
  H   H79       1.0  0.68036  0.64529  0.09676  1.0000
  H   H80       1.0  0.66855  0.64346  0.21781999999999999  1.0000
  H   H81       1.0  0.8809899999999998  0.35678999999999994  0.7930799999999998  1.0000
  H   H82       1.0  0.89512  0.3823  0.9121699999999998  1.0000
  H   H83       1.0  0.87904  0.59222  0.86823  1.0000
  H   H84       1.0  0.8703799999999998  0.567  0.74962  1.0000
  H   H85       1.0  0.83454  0.36234999999999995  0.45457999999999993  1.0000
  H   H86       1.0  0.8345899999999998  0.36825  0.57649  1.0000
  H   H87       1.0  0.9066199999999998  0.57668  0.5625499999999999  1.0000
  H   H88       1.0  0.9058499999999998  0.5619499999999998  0.4422699999999999  1.0000
  H   H89       1.0  0.80093  0.36019  0.20406  1.0000
  H   H90       1.0  0.7995499999999999  0.35977999999999993  0.08207  1.0000
  H   H91       1.0  0.90363  0.56198  0.09337  1.0000
  H   H92       1.0  0.90164  0.55355  0.21487  1.0000
  H   H93       1.0  0.7532599999999998  0.28884  0.33749  1.0000
  H   H94       1.0  0.68294  0.16692999999999997  0.33779  1.0000
  H   H95       1.0  0.73236  0.7098599999999999  0.34056999999999993  1.0000
  H   H96       1.0  0.80356  0.8314099999999999  0.34153  1.0000
  H   H97       1.0  0.8898299999999998  0.97058  0.33601  1.0000
  H   H98       1.0  0.8354  0.08781  0.00149  1.0000
  H   H99       1.0  0.59632  0.02723  0.33809  1.0000
  H   H100      1.0  0.6727899999999998  0.9168399999999999  0.012619999999999998  1.0000
  H   H101      1.0  0.84794  0.93356  0.24373999999999998  1.0000
  H   H102      1.0  0.8627  0.9102199999999999  0.12628  1.0000
  H   H103      1.0  0.8845499999999997  0.121  0.08864999999999998  1.0000
  H   H104      1.0  0.8656799999999998  0.1442  0.20563  1.0000
  H   H105      1.0  0.90619  0.9361  0.55608  1.0000
  H   H106      1.0  0.8994799999999997  0.9220399999999999  0.43529999999999996  1.0000
  H   H107      1.0  0.8234999999999998  0.12973999999999997  0.4170499999999999  1.0000
  H   H108      1.0  0.8316699999999999  0.13506  0.53911  1.0000
  H   H109      1.0  0.9242099999999998  0.9480199999999998  0.78796  1.0000
  H   H110      1.0  0.91374  0.94101  0.90895  1.0000
  H   H111      1.0  0.8196  0.1454  0.90263  1.0000
  H   H112      1.0  0.83166  0.14312  0.7816299999999999  1.0000
  H   H113      1.0  0.61937  0.85527  0.20706999999999998  1.0000
  H   H114      1.0  0.6051199999999998  0.88064  0.08794  1.0000
  H   H115      1.0  0.6215  0.09066  0.13194  1.0000
  H   H116      1.0  0.6304199999999998  0.06548999999999999  0.25051  1.0000
  H   H117      1.0  0.66561  0.8625  0.546  1.0000
  H   H118      1.0  0.66555  0.86759  0.42397  1.0000
  H   H119      1.0  0.5936499999999999  0.07585  0.43677  1.0000
  H   H120      1.0  0.59465  0.06195  0.55722  1.0000
  H   H121      1.0  0.6991299999999997  0.8603999999999998  0.7953099999999999  1.0000
  H   H122      1.0  0.70042  0.8591899999999999  0.9173099999999998  1.0000
  H   H123      1.0  0.5964199999999998  0.06101  0.90726  1.0000
  H   H124      1.0  0.59869  0.05341999999999999  0.7856999999999998  1.0000
  H   H125      1.0  0.7477199999999998  0.7903399999999998  0.66259  1.0000
  H   H126      1.0  0.8171399999999998  0.6685  0.6621499999999999  1.0000
  H   H127      1.0  0.76554  0.21182  0.65954  1.0000
  H   H128      1.0  0.6932799999999999  0.33277  0.65862  1.0000
  C   C1        1.0  0.33939  0.43777999999999995  0.30071999999999993  1.0000
  C   C2        1.0  0.3759199999999999  0.50725  0.02905  1.0000
  C   C3        1.0  0.35505999999999993  0.45841  0.2321  1.0000
  C   C4        1.0  0.35478  0.5248199999999998  0.21048  1.0000
  C   C5        1.0  0.36164  0.53889  0.14445999999999998  1.0000
  C   C6        1.0  0.3695499999999999  0.48736  0.09884  1.0000
  C   C7        1.0  0.37273  0.42093  0.12111999999999998  1.0000
  C   C8        1.0  0.36489  0.40669999999999995  0.18692  1.0000
  C   C9        1.0  0.38601  0.52235  0.52364  1.0000
  C   C10       1.0  0.3833299999999999  0.5297799999999999  0.45646999999999993  1.0000
  C   C11       1.0  0.36036999999999997  0.4746  0.4158899999999999  1.0000
  C   C12       1.0  0.34114  0.41356999999999994  0.4461899999999999  1.0000
  C   C13       1.0  0.34513  0.41103999999999996  0.51414  1.0000
  C   C14       1.0  0.3999399999999999  0.5097399999999999  0.8152799999999999  1.0000
  C   C15       1.0  0.39525  0.51396  0.8825799999999999  1.0000
  C   C16       1.0  0.36602  0.4576199999999999  0.9161599999999998  1.0000
  C   C17       1.0  0.34295  0.39967  0.87951  1.0000
  C   C18       1.0  0.34909  0.40031  0.8122199999999999  1.0000
  C   C19       1.0  0.14430999999999994  0.56219  0.30615  1.0000
  C   C20       1.0  0.11632999999999998  0.49064  0.03183  1.0000
  C   C21       1.0  0.12689  0.54054  0.23626999999999998  1.0000
  C   C22       1.0  0.11925999999999998  0.5919399999999999  0.18954  1.0000
  C   C23       1.0  0.11373999999999997  0.57714  0.12308  1.0000
  C   C24       1.0  0.11693999999999997  0.5104799999999999  0.10201  1.0000
  C   C25       1.0  0.12037999999999997  0.45918  0.14867  1.0000
  C   C26       1.0  0.12502  0.47386  0.21532  1.0000
  C   C27       1.0  0.1499  0.5910299999999999  0.51947  1.0000
  C   C28       1.0  0.15006  0.58793  0.45169999999999993  1.0000
  C   C29       1.0  0.13017000000000004  0.52644  0.42036  1.0000
  C   C30       1.0  0.11038999999999997  0.47147  0.45971  1.0000
  C   C31       1.0  0.11114999999999998  0.47956  0.52672  1.0000
  C   C32       1.0  0.17723  0.5960899999999999  0.82247  1.0000
  C   C33       1.0  0.17733999999999994  0.5960899999999999  0.89027  1.0000
  C   C34       1.0  0.14762  0.5387  0.92247  1.0000
  C   C35       1.0  0.11969999999999997  0.4832299999999999  0.8839999999999998  1.0000
  C   C36       1.0  0.12164999999999997  0.48793  0.81653  1.0000
  C   C37       1.0  0.3778  0.60099  0.67033  1.0000
  C   C38       1.0  0.9972000000000001  0.15605999999999998  0.66703  1.0000
  C   C39       1.0  0.3888999999999998  0.6740099999999999  0.66839  1.0000
  C   C40       1.0  0.32054  0.7228699999999999  0.66446  1.0000
  C   C41       1.0  0.35842  0.7878399999999999  0.66411  1.0000
  C   C42       1.0  0.45497  0.78774  0.66782  1.0000
  C   C43       1.0  0.13823  0.40071999999999997  0.6698  1.0000
  C   C44       1.0  0.5185299999999999  0.84551  0.6697599999999999  1.0000
  C   C45       1.0  0.12732  0.32764  0.66732  1.0000
  C   C46       1.0  0.19428999999999993  0.27861  0.66211  1.0000
  C   C47       1.0  0.15567  0.21378999999999998  0.6614199999999999  1.0000
  C   C48       1.0  0.060059999999999975  0.21411  0.6659999999999999  1.0000
  C   C49       1.0  0.16173  0.93872  0.69921  1.0000
  C   C50       1.0  0.12197999999999998  0.00628  0.97101  1.0000
  C   C51       1.0  0.14532  0.9588699999999999  0.76787  1.0000
  C   C52       1.0  0.14493  0.02512  0.78994  1.0000
  C   C53       1.0  0.13722999999999996  0.03865999999999999  0.8559799999999997  1.0000
  C   C54       1.0  0.12927999999999998  0.98677  0.9012099999999998  1.0000
  C   C55       1.0  0.12671  0.92047  0.8785  1.0000
  C   C56       1.0  0.13523  0.90678  0.81265  1.0000
  C   C57       1.0  0.11332999999999997  0.02245  0.47617  1.0000
  C   C58       1.0  0.11676  0.03015  0.54334  1.0000
  C   C59       1.0  0.14008  0.9752399999999999  0.58406  1.0000
  C   C60       1.0  0.15874  0.91413  0.55383  1.0000
  C   C61       1.0  0.15404  0.91132  0.4858899999999999  1.0000
  C   C62       1.0  0.09967999999999998  0.009599999999999997  0.18476  1.0000
  C   C63       1.0  0.10456  0.013569999999999999  0.11746999999999999  1.0000
  C   C64       1.0  0.13392  0.9572699999999998  0.08404  1.0000
  C   C65       1.0  0.15706  0.8995799999999999  0.1209  1.0000
  C   C66       1.0  0.15069  0.90043  0.18814999999999996  1.0000
  C   C67       1.0  0.3553899999999999  0.06344  0.6937899999999999  1.0000
  C   C68       1.0  0.38335999999999987  0.9920799999999999  0.96802  1.0000
  C   C69       1.0  0.37269999999999986  0.04202  0.7636699999999997  1.0000
  C   C70       1.0  0.38036  0.09347999999999998  0.8103699999999999  1.0000
  C   C71       1.0  0.38588  0.07873  0.8768299999999998  1.0000
  C   C72       1.0  0.3826199999999999  0.012039999999999999  0.8978699999999998  1.0000
  C   C73       1.0  0.37907999999999986  0.96074  0.85119  1.0000
  C   C74       1.0  0.37442  0.9753799999999998  0.78457  1.0000
  C   C75       1.0  0.34979  0.09111  0.48025  1.0000
  C   C76       1.0  0.34967  0.08844999999999999  0.54804  1.0000
  C   C77       1.0  0.36944999999999995  0.0272  0.57968  1.0000
  C   C78       1.0  0.38929  0.97207  0.54064  1.0000
  C   C79       1.0  0.3884199999999999  0.9796999999999999  0.47358  1.0000
  C   C80       1.0  0.32256999999999997  0.09611999999999998  0.17787  1.0000
  C   C81       1.0  0.32251  0.09656  0.11006999999999997  1.0000
  C   C82       1.0  0.3520999999999999  0.03947  0.07752  1.0000
  C   C83       1.0  0.38013999999999987  0.9839199999999999  0.11566  1.0000
  C   C84       1.0  0.37807  0.9881599999999999  0.18314999999999995  1.0000
  C   C85       1.0  0.11986999999999999  0.09953  0.32966  1.0000
  C   C86       1.0  0.5058  0.6561099999999999  0.33294999999999997  1.0000
  C   C87       1.0  0.10964  0.17257  0.33149  1.0000
  C   C88       1.0  0.17852  0.22132999999999997  0.33546  1.0000
  C   C89       1.0  0.14112  0.28632  0.33589  1.0000
  C   C90       1.0  0.04455999999999999  0.28636  0.3322  1.0000
  C   C91       1.0  0.36291  0.90006  0.33005  1.0000
  C   C92       1.0  0.9811199999999998  0.34404  0.33026  1.0000
  C   C93       1.0  0.37481  0.8269599999999999  0.33263999999999994  1.0000
  C   C94       1.0  0.3079999999999999  0.77744  0.33777  1.0000
  C   C95       1.0  0.34687  0.7128499999999999  0.3384199999999999  1.0000
  C   C96       1.0  0.44238  0.71364  0.33389  1.0000
  C   C97       1.0  0.6606099999999998  0.56222  0.69928  1.0000
  C   C98       1.0  0.62409  0.49275  0.9709499999999998  1.0000
  C   C99       1.0  0.64494  0.54159  0.7679  1.0000
  C   C100      1.0  0.6452299999999997  0.47518  0.78952  1.0000
  C   C101      1.0  0.63836  0.46111  0.8555399999999999  1.0000
  C   C102      1.0  0.63045  0.51264  0.9011499999999999  1.0000
  C   C103      1.0  0.6272699999999998  0.57907  0.87887  1.0000
  C   C104      1.0  0.63511  0.59331  0.81308  1.0000
  C   C105      1.0  0.6139899999999999  0.47765  0.47634999999999994  1.0000
  C   C106      1.0  0.61668  0.47023  0.54353  1.0000
  C   C107      1.0  0.6396299999999998  0.5254  0.58411  1.0000
  C   C108      1.0  0.6588699999999998  0.5864399999999999  0.55381  1.0000
  C   C109      1.0  0.65487  0.58896  0.4858599999999999  1.0000
  C   C110      1.0  0.60006  0.49026  0.18472  1.0000
  C   C111      1.0  0.60475  0.48604  0.11742  1.0000
  C   C112      1.0  0.63398  0.54238  0.08384  1.0000
  C   C113      1.0  0.65705  0.60034  0.12048999999999997  1.0000
  C   C114      1.0  0.65092  0.5996999999999999  0.18778  1.0000
  C   C115      1.0  0.8556899999999998  0.43781999999999993  0.69385  1.0000
  C   C116      1.0  0.88367  0.50936  0.9681699999999999  1.0000
  C   C117      1.0  0.87311  0.45946  0.76373  1.0000
  C   C118      1.0  0.8807399999999997  0.40807  0.81046  1.0000
  C   C119      1.0  0.88626  0.42285999999999996  0.8769199999999998  1.0000
  C   C120      1.0  0.8830599999999997  0.48951999999999996  0.89798  1.0000
  C   C121      1.0  0.87962  0.5408199999999999  0.8513199999999999  1.0000
  C   C122      1.0  0.87498  0.52614  0.7846799999999999  1.0000
  C   C123      1.0  0.8500999999999997  0.40896999999999994  0.48053  1.0000
  C   C124      1.0  0.84994  0.41206999999999994  0.54829  1.0000
  C   C125      1.0  0.86984  0.47356  0.57963  1.0000
  C   C126      1.0  0.8896199999999999  0.52853  0.54028  1.0000
  C   C127      1.0  0.8888499999999999  0.52045  0.4732799999999999  1.0000
  C   C128      1.0  0.82277  0.40391  0.17753  1.0000
  C   C129      1.0  0.8226599999999998  0.40391  0.10972999999999998  1.0000
  C   C130      1.0  0.85238  0.46131  0.07753  1.0000
  C   C131      1.0  0.8802999999999997  0.51677  0.11599  1.0000
  C   C132      1.0  0.8783499999999999  0.51208  0.18347  1.0000
  C   C133      1.0  0.62221  0.39901  0.32967  1.0000
  C   C134      1.0  0.0027999999999999995  0.8439399999999999  0.33296  1.0000
  C   C135      1.0  0.6110999999999999  0.32599  0.33161  1.0000
  C   C136      1.0  0.67946  0.27712999999999993  0.33554  1.0000
  C   C137      1.0  0.64158  0.21216999999999997  0.33589  1.0000
  C   C138      1.0  0.54503  0.21226999999999996  0.33217999999999986  1.0000
  C   C139      1.0  0.86177  0.59928  0.3302  1.0000
  C   C140      1.0  0.48147  0.1545  0.33023  1.0000
  C   C141      1.0  0.87268  0.6723699999999999  0.3326799999999999  1.0000
  C   C142      1.0  0.80572  0.7213899999999999  0.33788  1.0000
  C   C143      1.0  0.84433  0.78622  0.33857999999999994  1.0000
  C   C144      1.0  0.93994  0.7858899999999999  0.334  1.0000
  C   C145      1.0  0.83827  0.06128  0.30077999999999994  1.0000
  C   C146      1.0  0.8780299999999999  0.99372  0.02899  1.0000
  C   C147      1.0  0.8546799999999998  0.04112999999999999  0.23212999999999995  1.0000
  C   C148      1.0  0.85507  0.97488  0.21006  1.0000
  C   C149      1.0  0.8627699999999999  0.96134  0.14402  1.0000
  C   C150      1.0  0.87072  0.013239999999999998  0.09879  1.0000
  C   C151      1.0  0.8733  0.07953  0.12149999999999998  1.0000
  C   C152      1.0  0.8647699999999998  0.09321999999999998  0.18735  1.0000
  C   C153      1.0  0.8866699999999997  0.9775499999999999  0.52382  1.0000
  C   C154      1.0  0.8832399999999999  0.9698499999999999  0.45665  1.0000
  C   C155      1.0  0.85992  0.02476  0.41593999999999987  1.0000
  C   C156      1.0  0.84126  0.08586999999999999  0.4461699999999999  1.0000
  C   C157      1.0  0.84596  0.08868  0.5140999999999999  1.0000
  C   C158      1.0  0.9003199999999996  0.9904  0.8152399999999999  1.0000
  C   C159      1.0  0.89544  0.98643  0.88252  1.0000
  C   C160      1.0  0.86608  0.04273  0.9159599999999998  1.0000
  C   C161      1.0  0.8429399999999999  0.10043  0.8790999999999999  1.0000
  C   C162      1.0  0.8493199999999997  0.09957  0.8118499999999998  1.0000
  C   C163      1.0  0.64461  0.93657  0.30621  1.0000
  C   C164      1.0  0.6166399999999997  0.00792  0.03197  1.0000
  C   C165      1.0  0.62731  0.9579799999999998  0.23632999999999998  1.0000
  C   C166      1.0  0.61964  0.9065199999999999  0.18963  1.0000
  C   C167      1.0  0.6141199999999998  0.92127  0.12315999999999999  1.0000
  C   C168      1.0  0.61739  0.98796  0.10212999999999997  1.0000
  C   C169      1.0  0.62093  0.03927  0.1488  1.0000
  C   C170      1.0  0.6255899999999998  0.02463  0.21541999999999997  1.0000
  C   C171      1.0  0.65022  0.90889  0.51975  1.0000
  C   C172      1.0  0.65033  0.91155  0.45196  1.0000
  C   C173      1.0  0.6305499999999998  0.9727999999999999  0.42031999999999997  1.0000
  C   C174      1.0  0.6107199999999998  0.027939999999999996  0.45935999999999994  1.0000
  C   C175      1.0  0.61158  0.02031  0.5264099999999999  1.0000
  C   C176      1.0  0.6774299999999998  0.90388  0.82213  1.0000
  C   C177      1.0  0.6774899999999998  0.90344  0.88993  1.0000
  C   C178      1.0  0.6479  0.96054  0.92248  1.0000
  C   C179      1.0  0.61987  0.01609  0.8843399999999998  1.0000
  C   C180      1.0  0.6219299999999998  0.011849999999999998  0.8168499999999997  1.0000
  C   C181      1.0  0.88013  0.90048  0.6703399999999999  1.0000
  C   C182      1.0  0.4942  0.34389  0.66705  1.0000
  C   C183      1.0  0.89036  0.82743  0.66851  1.0000
  C   C184      1.0  0.82148  0.7786699999999999  0.66454  1.0000
  C   C185      1.0  0.85889  0.71369  0.66411  1.0000
  C   C186      1.0  0.9554399999999997  0.7136499999999999  0.6678  1.0000
  C   C187      1.0  0.6371  0.09994999999999998  0.66994  1.0000
  C   C188      1.0  0.018879999999999994  0.65597  0.6697399999999999  1.0000
  C   C189      1.0  0.62519  0.17305  0.66735  1.0000
  C   C190      1.0  0.692  0.22255999999999998  0.6622199999999999  1.0000
  C   C191      1.0  0.65313  0.28714999999999996  0.6615699999999999  1.0000
  C   C192      1.0  0.55762  0.28637  0.6660999999999999  1.0000
  S   S1        1.0  0.017020000000000014  0.29413999999999996  0.67094  1.0000
  S   S2        1.0  0.49959  0.70786  0.6712  1.0000
  S   S3        1.0  0.4852  0.7939399999999999  0.32907  1.0000
  S   S4        1.0  0.9992699999999999  0.20646  0.32875999999999994  1.0000
  S   S5        1.0  0.9829899999999998  0.70586  0.32905999999999996  1.0000
  S   S6        1.0  0.50041  0.29214  0.32878999999999997  1.0000
  S   S7        1.0  0.51481  0.20606999999999998  0.67093  1.0000
  S   S8        1.0  0.0007299999999999899  0.79354  0.67124  1.0000
  N   N1        1.0  0.3597999999999999  0.48461999999999994  0.34863999999999995  1.0000
  N   N2        1.0  0.36676  0.46409999999999996  0.55297  1.0000
  N   N3        1.0  0.35926  0.45608  0.98373  1.0000
  N   N4        1.0  0.37708999999999987  0.45461999999999997  0.7800499999999998  1.0000
  N   N5        1.0  0.12734  0.51578  0.35312  1.0000
  N   N6        1.0  0.13115  0.53821  0.55714  1.0000
  N   N7        1.0  0.14693  0.53984  0.9905299999999999  1.0000
  N   N8        1.0  0.1497699999999999  0.5428399999999999  0.7854999999999999  1.0000
  N   N9        1.0  0.14153  0.9855099999999999  0.65132  1.0000
  N   N10       1.0  0.13216  0.9641199999999999  0.44693  1.0000
  N   N11       1.0  0.14087999999999995  0.9556299999999999  0.01647  1.0000
  N   N12       1.0  0.12245  0.95468  0.22014999999999996  1.0000
  N   N13       1.0  0.37207  0.0169  0.64695  1.0000
  N   N14       1.0  0.3683299999999999  0.03808  0.44286  1.0000
  N   N15       1.0  0.35256  0.04093  0.00945  1.0000
  N   N16       1.0  0.34983  0.04272  0.21450999999999998  1.0000
  N   N17       1.0  0.6401999999999999  0.51539  0.65136  1.0000
  N   N18       1.0  0.6332399999999999  0.5359  0.44703  1.0000
  N   N19       1.0  0.64075  0.54393  0.01627  1.0000
  N   N20       1.0  0.62291  0.54538  0.21995  1.0000
  N   N21       1.0  0.87266  0.48421999999999993  0.64688  1.0000
  N   N22       1.0  0.86885  0.4618  0.44286  1.0000
  N   N23       1.0  0.8530699999999998  0.46017  0.00947  1.0000
  N   N24       1.0  0.8502299999999998  0.45717  0.21449999999999997  1.0000
  N   N25       1.0  0.8584699999999997  0.014499999999999997  0.34867999999999993  1.0000
  N   N26       1.0  0.86785  0.03588  0.55307  1.0000
  N   N27       1.0  0.8591199999999997  0.04438  0.9835199999999997  1.0000
  N   N28       1.0  0.87755  0.04533  0.7798399999999998  1.0000
  N   N29       1.0  0.62793  0.9831  0.35305  1.0000
  N   N30       1.0  0.63168  0.96193  0.55714  1.0000
  N   N31       1.0  0.64744  0.95907  0.99055  1.0000
  N   N32       1.0  0.6501799999999999  0.9572799999999999  0.78549  1.0000
  O   O1        1.0  0.30752  0.3816999999999999  0.31135  1.0000
  O   O2        1.0  0.3933699999999999  0.5651899999999999  0.01304  1.0000
  O   O3        1.0  0.17538999999999996  0.61888  0.3184899999999999  1.0000
  O   O4        1.0  0.09248  0.43423999999999996  0.012659999999999998  1.0000
  O   O5        1.0  0.21777999999999997  0.42782999999999993  0.6657099999999999  1.0000
  O   O6        1.0  0.06483  0.4352599999999999  0.67539  1.0000
  O   O7        1.0  0.9100999999999998  0.16518999999999998  0.6687899999999998  1.0000
  O   O8        1.0  0.03282999999999999  0.0974  0.6658799999999999  1.0000
  O   O9        1.0  0.29678  0.57506  0.6689899999999999  1.0000
  O   O10       1.0  0.45163  0.56548  0.6727499999999998  1.0000
  O   O11       1.0  0.60597  0.8354399999999998  0.67204  1.0000
  O   O12       1.0  0.4832699999999999  0.9043499999999999  0.6690999999999998  1.0000
  O   O13       1.0  0.19393  0.88285  0.68859  1.0000
  O   O14       1.0  0.10200999999999998  0.06371  0.9869099999999997  1.0000
  O   O15       1.0  0.3247  0.12006999999999998  0.6813699999999999  1.0000
  O   O16       1.0  0.4075399999999999  0.9358399999999999  0.98717  1.0000
  O   O17       1.0  0.28267  0.92587  0.33404  1.0000
  O   O18       1.0  0.4355099999999999  0.9358799999999998  0.32451  1.0000
  O   O19       1.0  0.5925499999999999  0.66652  0.33118  1.0000
  O   O20       1.0  0.47119  0.59682  0.33415  1.0000
  O   O21       1.0  0.20065999999999995  0.07348  0.33097999999999994  1.0000
  O   O22       1.0  0.04589  0.06404  0.32742  1.0000
  O   O23       1.0  0.89379  0.33369  0.32797  1.0000
  O   O24       1.0  0.016159999999999987  0.40316999999999986  0.33088999999999996  1.0000
  O   O25       1.0  0.6924799999999999  0.6183  0.6886499999999998  1.0000
  O   O26       1.0  0.60663  0.43481999999999993  0.9869599999999997  1.0000
  O   O27       1.0  0.8246099999999997  0.38112999999999997  0.6814999999999999  1.0000
  O   O28       1.0  0.9075199999999999  0.56577  0.9873399999999998  1.0000
  O   O29       1.0  0.78222  0.57217  0.3342899999999999  1.0000
  O   O30       1.0  0.93518  0.56475  0.3246099999999999  1.0000
  O   O31       1.0  0.08989999999999998  0.83481  0.3312  1.0000
  O   O32       1.0  0.9671799999999999  0.9026  0.33411999999999986  1.0000
  O   O33       1.0  0.7032299999999999  0.42495  0.33100999999999997  1.0000
  O   O34       1.0  0.54838  0.43451999999999996  0.32725  1.0000
  O   O35       1.0  0.39403  0.16456  0.32796  1.0000
  O   O36       1.0  0.5167299999999999  0.09565  0.33088999999999996  1.0000
  O   O37       1.0  0.80608  0.11716  0.31141  1.0000
  O   O38       1.0  0.8979899999999998  0.9362899999999997  0.01308  1.0000
  O   O39       1.0  0.6752999999999998  0.87993  0.31863  1.0000
  O   O40       1.0  0.59247  0.06415999999999998  0.01283  1.0000
  O   O41       1.0  0.7173299999999998  0.07412999999999999  0.6659499999999999  1.0000
  O   O42       1.0  0.5645  0.06413  0.67549  1.0000
  O   O43       1.0  0.40746  0.33348  0.6688099999999998  1.0000
  O   O44       1.0  0.52882  0.40319  0.6658499999999999  1.0000
  O   O45       1.0  0.79934  0.92652  0.6690199999999998  1.0000
  O   O46       1.0  0.95411  0.93596  0.6725799999999998  1.0000
  O   O47       1.0  0.10621  0.6663099999999998  0.67203  1.0000
  O   O48       1.0  0.98384  0.59684  0.6691099999999999  1.0000
