data_image0
_chemical_formula_structural       Cd24H96C144N144O96
_chemical_formula_sum              "Cd24 H96 C144 N144 O96"
_cell_length_a       26.8839
_cell_length_b       26.882609999999996
_cell_length_c       26.882510000000003
_cell_angle_alpha    109.50118
_cell_angle_beta     109.51534
_cell_angle_gamma    109.51526

_symmetry_space_group_name_H-M    'P 1'
_symmetry_Int_Tables_number       1

loop_
  _symmetry_equiv_pos_as_xyz
  'x,y,z'

loop_
  _atom_site_type_symbol
  _atom_site_label
  _atom_site_symmetry_multiplicity
  _atom_site_fract_x
  _atom_site_fract_y
  _atom_site_fract_z
  _atom_site_occupancy
  Cd  Cd1       1.0  0.70939  0.8546200000000002  0.35467000000000004  1.0000
  Cd  Cd2       1.0  0.2906100000000001  0.6453300000000002  0.14538  1.0000
  Cd  Cd3       1.0  0.5000000000000002  0.3547400000000001  0.6452600000000001  1.0000
  Cd  Cd4       1.0  0.5000000000000001  0.14532000000000012  0.8546800000000001  1.0000
  Cd  Cd5       1.0  0.14539  0.29062  0.64534  1.0000
  Cd  Cd6       1.0  0.35467000000000015  0.70938  0.8546100000000001  1.0000
  Cd  Cd7       1.0  0.85468  0.50001  0.14533  1.0000
  Cd  Cd8       1.0  0.6452600000000001  0.49999  0.35473  1.0000
  Cd  Cd9       1.0  0.1453200000000001  0.8546700000000003  0.49999000000000005  1.0000
  Cd  Cd10      1.0  0.35474  0.64527  0.5000100000000001  1.0000
  Cd  Cd11      1.0  0.64533  0.14539  0.29062  1.0000
  Cd  Cd12      1.0  0.85461  0.35466  0.7093800000000001  1.0000
  Cd  Cd13      1.0  0.2906100000000001  0.14538000000000015  0.6453300000000001  1.0000
  Cd  Cd14      1.0  0.70939  0.3546700000000001  0.8546200000000002  1.0000
  Cd  Cd15      1.0  0.5000000000000002  0.6452600000000002  0.35474000000000006  1.0000
  Cd  Cd16      1.0  0.5000000000000002  0.8546800000000002  0.14532  1.0000
  Cd  Cd17      1.0  0.85461  0.70938  0.35466  1.0000
  Cd  Cd18      1.0  0.64533  0.29062  0.14539  1.0000
  Cd  Cd19      1.0  0.14532000000000003  0.49999000000000005  0.8546800000000001  1.0000
  Cd  Cd20      1.0  0.35474  0.49999999999999994  0.64528  1.0000
  Cd  Cd21      1.0  0.8546800000000003  0.1453300000000001  0.5000100000000001  1.0000
  Cd  Cd22      1.0  0.6452600000000001  0.35473  0.5  1.0000
  Cd  Cd23      1.0  0.35467000000000015  0.8546100000000001  0.7093800000000001  1.0000
  Cd  Cd24      1.0  0.14539  0.64534  0.29062  1.0000
  H   H1        1.0  0.64512  0.8914000000000002  0.44649  1.0000
  H   H2        1.0  0.7724500000000001  0.9363900000000002  0.5155  1.0000
  H   H3        1.0  0.35494  0.80136  0.2462  1.0000
  H   H4        1.0  0.22752999999999998  0.7430599999999999  0.16396  1.0000
  H   H5        1.0  0.44484  0.19865  0.55359  1.0000
  H   H6        1.0  0.4207400000000001  0.25681000000000004  0.48436000000000007  1.0000
  H   H7        1.0  0.55508  0.10856999999999996  0.75371  1.0000
  H   H8        1.0  0.5792300000000001  0.06369000000000007  0.8361100000000001  1.0000
  H   H9        1.0  0.24621  0.35494  0.80137  1.0000
  H   H10       1.0  0.16397  0.22753  0.74305  1.0000
  H   H11       1.0  0.4465  0.64512  0.89141  1.0000
  H   H12       1.0  0.5154900000000001  0.7724500000000002  0.9364100000000001  1.0000
  H   H13       1.0  0.7536900000000001  0.55508  0.10857  1.0000
  H   H14       1.0  0.8361000000000001  0.57922  0.06369  1.0000
  H   H15       1.0  0.55357  0.44484  0.19864000000000004  1.0000
  H   H16       1.0  0.4843600000000001  0.42075  0.25682  1.0000
  H   H17       1.0  0.10856000000000002  0.75369  0.5550800000000001  1.0000
  H   H18       1.0  0.0636900000000001  0.8361000000000001  0.57923  1.0000
  H   H19       1.0  0.19864  0.55357  0.44485  1.0000
  H   H20       1.0  0.25681000000000004  0.48436000000000007  0.42074  1.0000
  H   H21       1.0  0.8013700000000002  0.24621000000000007  0.35493  1.0000
  H   H22       1.0  0.74305  0.16396  0.22754000000000002  1.0000
  H   H23       1.0  0.8914100000000003  0.44650000000000006  0.6451300000000001  1.0000
  H   H24       1.0  0.9364  0.51549  0.77245  1.0000
  H   H25       1.0  0.35488  0.55351  0.1086  1.0000
  H   H26       1.0  0.22755000000000006  0.48449999999999993  0.06361  1.0000
  H   H27       1.0  0.6450600000000001  0.7538000000000002  0.19864000000000004  1.0000
  H   H28       1.0  0.77246  0.83604  0.25694  1.0000
  H   H29       1.0  0.5551600000000001  0.44642000000000004  0.8013500000000001  1.0000
  H   H30       1.0  0.57926  0.51564  0.74319  1.0000
  H   H31       1.0  0.4449200000000001  0.24630000000000002  0.8914300000000001  1.0000
  H   H32       1.0  0.4207700000000001  0.16390000000000002  0.93631  1.0000
  H   H33       1.0  0.7537900000000002  0.19863000000000008  0.6450600000000001  1.0000
  H   H34       1.0  0.83603  0.2569500000000001  0.7724700000000001  1.0000
  H   H35       1.0  0.5535  0.10859000000000005  0.35488  1.0000
  H   H36       1.0  0.4845100000000002  0.06359999999999999  0.22755  1.0000
  H   H37       1.0  0.2463100000000001  0.89143  0.44492  1.0000
  H   H38       1.0  0.16390000000000013  0.9363100000000002  0.42078  1.0000
  H   H39       1.0  0.44643  0.80136  0.55516  1.0000
  H   H40       1.0  0.51564  0.7431800000000001  0.57925  1.0000
  H   H41       1.0  0.89144  0.4449200000000001  0.24631000000000003  1.0000
  H   H42       1.0  0.9363  0.42077000000000003  0.1639  1.0000
  H   H43       1.0  0.80136  0.55515  0.44643  1.0000
  H   H44       1.0  0.7431900000000004  0.5792600000000001  0.51564  1.0000
  H   H45       1.0  0.19863  0.64507  0.75379  1.0000
  H   H46       1.0  0.2569500000000001  0.7724600000000003  0.8360400000000001  1.0000
  H   H47       1.0  0.10858999999999999  0.35488  0.5535  1.0000
  H   H48       1.0  0.0636  0.22755  0.48451  1.0000
  H   H49       1.0  0.35488  0.10860000000000002  0.55351  1.0000
  H   H50       1.0  0.22755  0.06360000000000002  0.48451  1.0000
  H   H51       1.0  0.64506  0.19864000000000007  0.7538  1.0000
  H   H52       1.0  0.77246  0.25694000000000017  0.8360400000000001  1.0000
  H   H53       1.0  0.55516  0.80135  0.44642  1.0000
  H   H54       1.0  0.57926  0.74319  0.51564  1.0000
  H   H55       1.0  0.44492000000000004  0.89143  0.2463  1.0000
  H   H56       1.0  0.4207700000000002  0.9363100000000002  0.1639  1.0000
  H   H57       1.0  0.7537900000000001  0.64506  0.19863  1.0000
  H   H58       1.0  0.83603  0.7724700000000001  0.25695  1.0000
  H   H59       1.0  0.5535  0.35488  0.10859  1.0000
  H   H60       1.0  0.48451  0.22755  0.06360000000000002  1.0000
  H   H61       1.0  0.2463100000000001  0.4449200000000001  0.8914400000000001  1.0000
  H   H62       1.0  0.1639000000000001  0.42078  0.93632  1.0000
  H   H63       1.0  0.44643  0.55516  0.80136  1.0000
  H   H64       1.0  0.51564  0.57925  0.74319  1.0000
  H   H65       1.0  0.89144  0.24631000000000006  0.44493000000000005  1.0000
  H   H66       1.0  0.9363  0.16390000000000002  0.42077  1.0000
  H   H67       1.0  0.80136  0.44643  0.5551500000000001  1.0000
  H   H68       1.0  0.74319  0.51564  0.57926  1.0000
  H   H69       1.0  0.19863000000000017  0.7537900000000002  0.6450700000000001  1.0000
  H   H70       1.0  0.2569500000000001  0.8360400000000001  0.7724700000000001  1.0000
  H   H71       1.0  0.10858999999999999  0.5535  0.35488  1.0000
  H   H72       1.0  0.06360000000000006  0.4845100000000001  0.22755  1.0000
  H   H73       1.0  0.64512  0.44649000000000005  0.8914  1.0000
  H   H74       1.0  0.77245  0.51549  0.9364  1.0000
  H   H75       1.0  0.35494  0.2462  0.80136  1.0000
  H   H76       1.0  0.22753000000000007  0.16396  0.74306  1.0000
  H   H77       1.0  0.44484  0.55358  0.19865  1.0000
  H   H78       1.0  0.4207400000000001  0.48436000000000007  0.25681  1.0000
  H   H79       1.0  0.55508  0.7537  0.10857  1.0000
  H   H80       1.0  0.5792300000000001  0.8361000000000001  0.06369  1.0000
  H   H81       1.0  0.24621000000000012  0.8013700000000002  0.35494  1.0000
  H   H82       1.0  0.16397  0.74305  0.22753  1.0000
  H   H83       1.0  0.44650000000000006  0.8914100000000001  0.64512  1.0000
  H   H84       1.0  0.51549  0.9364  0.77246  1.0000
  H   H85       1.0  0.7536900000000001  0.10856000000000006  0.5550800000000001  1.0000
  H   H86       1.0  0.8361000000000001  0.06369  0.57922  1.0000
  H   H87       1.0  0.55357  0.19864000000000007  0.4448400000000001  1.0000
  H   H88       1.0  0.48436000000000007  0.25682  0.42075  1.0000
  H   H89       1.0  0.10856000000000011  0.5550700000000002  0.7537000000000001  1.0000
  H   H90       1.0  0.0636900000000001  0.5792300000000001  0.8361100000000001  1.0000
  H   H91       1.0  0.19864000000000015  0.4448500000000001  0.5535700000000001  1.0000
  H   H92       1.0  0.2568100000000001  0.42074000000000006  0.48436000000000007  1.0000
  H   H93       1.0  0.8013700000000002  0.3549300000000001  0.24621000000000004  1.0000
  H   H94       1.0  0.74305  0.22753  0.16396  1.0000
  H   H95       1.0  0.8914099999999999  0.64512  0.4465  1.0000
  H   H96       1.0  0.9364  0.77245  0.51549  1.0000
  C   C1        1.0  0.6251  0.84229  0.4222  1.0000
  C   C2        1.0  0.7855000000000001  0.9680600000000001  0.49959  1.0000
  C   C3        1.0  0.3749400000000001  0.7971  0.21715  1.0000
  C   C4        1.0  0.21450000000000008  0.71411  0.18258000000000002  1.0000
  C   C5        1.0  0.42004  0.20291000000000003  0.57784  1.0000
  C   C6        1.0  0.46836  0.2857900000000001  0.50029  1.0000
  C   C7        1.0  0.57991  0.15768999999999994  0.78281  1.0000
  C   C8        1.0  0.5316  0.03199000000000007  0.8174600000000001  1.0000
  C   C9        1.0  0.21715  0.37494  0.79711  1.0000
  C   C10       1.0  0.18258000000000008  0.21450000000000008  0.7141000000000001  1.0000
  C   C11       1.0  0.4222100000000001  0.6251  0.8423000000000002  1.0000
  C   C12       1.0  0.49958  0.7855  0.96807  1.0000
  C   C13       1.0  0.7828000000000003  0.57991  0.15769  1.0000
  C   C14       1.0  0.8174599999999999  0.53159  0.031990000000000005  1.0000
  C   C15       1.0  0.5778300000000001  0.42004  0.2029  1.0000
  C   C16       1.0  0.5002900000000001  0.46837  0.28580000000000005  1.0000
  C   C17       1.0  0.15769000000000005  0.7828  0.57991  1.0000
  C   C18       1.0  0.03199000000000001  0.81746  0.5316  1.0000
  C   C19       1.0  0.2029  0.57783  0.42005  1.0000
  C   C20       1.0  0.2858  0.50029  0.46837  1.0000
  C   C21       1.0  0.79711  0.21715  0.37494  1.0000
  C   C22       1.0  0.7141000000000002  0.18258000000000002  0.2145  1.0000
  C   C23       1.0  0.8423  0.4222100000000001  0.62511  1.0000
  C   C24       1.0  0.9680600000000001  0.4995800000000001  0.7855000000000001  1.0000
  C   C25       1.0  0.37489000000000006  0.5778  0.15771  1.0000
  C   C26       1.0  0.2145  0.50041  0.03194  1.0000
  C   C27       1.0  0.62506  0.7828500000000003  0.2029  1.0000
  C   C28       1.0  0.7855000000000001  0.8174200000000003  0.28589  1.0000
  C   C29       1.0  0.5799600000000001  0.42216000000000004  0.7970900000000001  1.0000
  C   C30       1.0  0.53164  0.4997100000000001  0.71421  1.0000
  C   C31       1.0  0.42009  0.21720000000000006  0.84231  1.0000
  C   C32       1.0  0.4684  0.1825400000000001  0.96801  1.0000
  C   C33       1.0  0.78285  0.20289000000000004  0.62506  1.0000
  C   C34       1.0  0.8174200000000001  0.2859000000000001  0.7855000000000001  1.0000
  C   C35       1.0  0.5777900000000001  0.15770000000000003  0.37490000000000007  1.0000
  C   C36       1.0  0.5004200000000001  0.03193000000000002  0.2145  1.0000
  C   C37       1.0  0.21720000000000003  0.84231  0.42009  1.0000
  C   C38       1.0  0.1825400000000001  0.9680100000000001  0.46841000000000005  1.0000
  C   C39       1.0  0.42217000000000005  0.7971  0.57996  1.0000
  C   C40       1.0  0.4997100000000001  0.7142  0.53163  1.0000
  C   C41       1.0  0.8423100000000002  0.4200900000000001  0.2172  1.0000
  C   C42       1.0  0.9680100000000003  0.4684  0.18254  1.0000
  C   C43       1.0  0.7971  0.57995  0.42217000000000005  1.0000
  C   C44       1.0  0.7142  0.53163  0.49971000000000004  1.0000
  C   C45       1.0  0.20289000000000007  0.6250600000000001  0.7828500000000002  1.0000
  C   C46       1.0  0.2859  0.7855  0.81743  1.0000
  C   C47       1.0  0.15770000000000003  0.3749  0.57779  1.0000
  C   C48       1.0  0.03194000000000001  0.2145  0.50042  1.0000
  C   C49       1.0  0.37489000000000006  0.15771000000000002  0.5778000000000001  1.0000
  C   C50       1.0  0.21449999999999997  0.03194000000000002  0.50041  1.0000
  C   C51       1.0  0.62506  0.20290000000000008  0.78286  1.0000
  C   C52       1.0  0.7855000000000001  0.2858900000000001  0.81743  1.0000
  C   C53       1.0  0.57996  0.79709  0.42217000000000005  1.0000
  C   C54       1.0  0.53164  0.7142  0.49971000000000004  1.0000
  C   C55       1.0  0.42009  0.8423  0.2172  1.0000
  C   C56       1.0  0.4684  0.968  0.18254  1.0000
  C   C57       1.0  0.78285  0.62506  0.20289000000000001  1.0000
  C   C58       1.0  0.81742  0.7855000000000001  0.28590000000000004  1.0000
  C   C59       1.0  0.5777899999999999  0.3749  0.1577  1.0000
  C   C60       1.0  0.50042  0.2145  0.03193  1.0000
  C   C61       1.0  0.21720000000000006  0.4200900000000001  0.84231  1.0000
  C   C62       1.0  0.18254000000000004  0.46841  0.96801  1.0000
  C   C63       1.0  0.42217000000000005  0.57996  0.7971000000000001  1.0000
  C   C64       1.0  0.49971000000000015  0.5316300000000002  0.7142000000000001  1.0000
  C   C65       1.0  0.8423100000000004  0.21720000000000006  0.42009  1.0000
  C   C66       1.0  0.9680100000000003  0.18254000000000004  0.4684  1.0000
  C   C67       1.0  0.7971000000000001  0.4221700000000001  0.57996  1.0000
  C   C68       1.0  0.7142  0.4997100000000001  0.53164  1.0000
  C   C69       1.0  0.20289000000000001  0.78284  0.62507  1.0000
  C   C70       1.0  0.28590000000000015  0.8174200000000003  0.7855000000000001  1.0000
  C   C71       1.0  0.15770000000000006  0.57779  0.37490000000000007  1.0000
  C   C72       1.0  0.03194000000000002  0.50042  0.2145  1.0000
  C   C73       1.0  0.6251  0.4222000000000002  0.8422900000000002  1.0000
  C   C74       1.0  0.7855000000000001  0.49959  0.96806  1.0000
  C   C75       1.0  0.3749400000000001  0.21714000000000008  0.7971000000000001  1.0000
  C   C76       1.0  0.21449999999999997  0.18256999999999995  0.71411  1.0000
  C   C77       1.0  0.42004  0.57783  0.20291000000000003  1.0000
  C   C78       1.0  0.46836  0.50029  0.28580000000000005  1.0000
  C   C79       1.0  0.5799099999999999  0.7827999999999998  0.1577  1.0000
  C   C80       1.0  0.5316  0.81746  0.031990000000000005  1.0000
  C   C81       1.0  0.21715  0.79711  0.37494  1.0000
  C   C82       1.0  0.18258000000000008  0.7141000000000002  0.2145  1.0000
  C   C83       1.0  0.4222100000000001  0.84229  0.6251  1.0000
  C   C84       1.0  0.49958  0.9680700000000002  0.7855000000000001  1.0000
  C   C85       1.0  0.7828000000000003  0.15769  0.57991  1.0000
  C   C86       1.0  0.81746  0.03199000000000007  0.53159  1.0000
  C   C87       1.0  0.5778300000000002  0.2029  0.42004  1.0000
  C   C88       1.0  0.50029  0.28580000000000005  0.46837  1.0000
  C   C89       1.0  0.15769000000000008  0.5799100000000003  0.7828  1.0000
  C   C90       1.0  0.031990000000000074  0.5316000000000001  0.8174600000000001  1.0000
  C   C91       1.0  0.20290000000000008  0.4200400000000002  0.5778300000000001  1.0000
  C   C92       1.0  0.2858  0.46837  0.50029  1.0000
  C   C93       1.0  0.79711  0.37493000000000004  0.21716  1.0000
  C   C94       1.0  0.7141000000000002  0.2145  0.18258000000000002  1.0000
  C   C95       1.0  0.8423  0.6251  0.42221  1.0000
  C   C96       1.0  0.96806  0.7855  0.4995800000000001  1.0000
  C   C97       1.0  0.6070500000000001  0.7546200000000001  0.36168  1.0000
  C   C98       1.0  0.3929400000000001  0.7546100000000002  0.14757  1.0000
  C   C99       1.0  0.39295000000000013  0.24538000000000007  0.63832  1.0000
  C   C100      1.0  0.6070500000000002  0.2453900000000001  0.8524300000000001  1.0000
  C   C101      1.0  0.14757  0.39294  0.75461  1.0000
  C   C102      1.0  0.36167000000000005  0.6070400000000002  0.75462  1.0000
  C   C103      1.0  0.85243  0.60706  0.24539  1.0000
  C   C104      1.0  0.63832  0.39295000000000013  0.24538000000000001  1.0000
  C   C105      1.0  0.24539  0.85243  0.60706  1.0000
  C   C106      1.0  0.24538000000000007  0.63832  0.39295  1.0000
  C   C107      1.0  0.75461  0.14757  0.39295  1.0000
  C   C108      1.0  0.7546200000000001  0.36167  0.60705  1.0000
  C   C109      1.0  0.39295000000000013  0.63832  0.24538000000000001  1.0000
  C   C110      1.0  0.6070500000000001  0.85243  0.24539  1.0000
  C   C111      1.0  0.6070500000000001  0.36168  0.75462  1.0000
  C   C112      1.0  0.3929400000000001  0.14757  0.75461  1.0000
  C   C113      1.0  0.85243  0.24539  0.60706  1.0000
  C   C114      1.0  0.6383200000000001  0.24538000000000004  0.39296000000000003  1.0000
  C   C115      1.0  0.14757000000000012  0.7546100000000002  0.39295  1.0000
  C   C116      1.0  0.36167000000000005  0.7546200000000001  0.60705  1.0000
  C   C117      1.0  0.75461  0.39294  0.14757  1.0000
  C   C118      1.0  0.7546200000000003  0.6070500000000002  0.36168  1.0000
  C   C119      1.0  0.2453900000000001  0.6070500000000002  0.8524300000000001  1.0000
  C   C120      1.0  0.24538000000000004  0.39295000000000013  0.63833  1.0000
  C   C121      1.0  0.79589  0.0  0.43869  1.0000
  C   C122      1.0  0.20411000000000007  0.6428000000000001  0.20411000000000004  1.0000
  C   C123      1.0  0.56135  0.35723  0.56135  1.0000
  C   C124      1.0  0.43869000000000014  0.9999899999999999  0.7959  1.0000
  C   C125      1.0  0.20411  0.20411  0.6428  1.0000
  C   C126      1.0  0.43869000000000014  0.7958900000000001  0.0  1.0000
  C   C127      1.0  0.79589  0.43869  0.0  1.0000
  C   C128      1.0  0.56135  0.56135  0.35723  1.0000
  C   C129      1.0  6.607511705519848e-17  0.7958900000000001  0.43869  1.0000
  C   C130      1.0  0.35723000000000005  0.5613500000000001  0.56135  1.0000
  C   C131      1.0  0.6428  0.20411  0.20411000000000004  1.0000
  C   C132      1.0  0.0  0.43869  0.7959  1.0000
  C   C133      1.0  0.20411  0.56131  0.0  1.0000
  C   C134      1.0  0.79589  0.7958900000000001  0.3572  1.0000
  C   C135      1.0  0.4386500000000001  0.43865  0.64277  1.0000
  C   C136      1.0  0.56131  0.20411  0.0  1.0000
  C   C137      1.0  0.79589  0.3572000000000001  0.79589  1.0000
  C   C138      1.0  0.56131  1.7526420036331734e-17  0.20411000000000004  1.0000
  C   C139      1.0  0.20411000000000007  7.010568014532693e-17  0.5613100000000001  1.0000
  C   C140      1.0  0.43865000000000015  0.6427700000000001  0.43865000000000004  1.0000
  C   C141      1.0  0.0  0.56131  0.20411000000000004  1.0000
  C   C142      1.0  0.6427700000000001  0.43865000000000004  0.43865000000000004  1.0000
  C   C143      1.0  0.35720000000000024  0.7958900000000001  0.79589  1.0000
  C   C144      1.0  8.25938963189981e-17  0.2041100000000001  0.5613100000000001  1.0000
  N   N1        1.0  0.64191  0.81475  0.38358  1.0000
  N   N2        1.0  0.7720900000000003  0.9482900000000001  0.4405800000000001  1.0000
  N   N3        1.0  0.3580900000000002  0.7416000000000001  0.17277000000000003  1.0000
  N   N4        1.0  0.2278900000000001  0.6685300000000001  0.17625  1.0000
  N   N5        1.0  0.4311500000000001  0.2584000000000001  0.6164700000000001  1.0000
  N   N6        1.0  0.50771  0.33146  0.55935  1.0000
  N   N7        1.0  0.56884  0.18525  0.82716  1.0000
  N   N8        1.0  0.4923600000000001  0.051720000000000016  0.82379  1.0000
  N   N9        1.0  0.17277000000000003  0.3581  0.74161  1.0000
  N   N10       1.0  0.17625000000000002  0.22789000000000004  0.66853  1.0000
  N   N11       1.0  0.38358000000000003  0.6419000000000002  0.81474  1.0000
  N   N12       1.0  0.4405700000000002  0.7720900000000003  0.9483000000000003  1.0000
  N   N13       1.0  0.82716  0.56884  0.18525000000000003  1.0000
  N   N14       1.0  0.82379  0.49236  0.05172  1.0000
  N   N15       1.0  0.61647  0.43114  0.25839  1.0000
  N   N16       1.0  0.55936  0.50771  0.33146000000000003  1.0000
  N   N17       1.0  0.18525  0.82716  0.56884  1.0000
  N   N18       1.0  0.05172000000000006  0.82379  0.49236  1.0000
  N   N19       1.0  0.2583900000000001  0.61647  0.43115000000000003  1.0000
  N   N20       1.0  0.33146  0.55936  0.50771  1.0000
  N   N21       1.0  0.7416000000000001  0.17277  0.3581  1.0000
  N   N22       1.0  0.66853  0.17625  0.22790000000000002  1.0000
  N   N23       1.0  0.81475  0.38358000000000003  0.6419100000000001  1.0000
  N   N24       1.0  0.9482900000000002  0.4405700000000001  0.7720900000000002  1.0000
  N   N25       1.0  0.35809  0.61642  0.18525000000000003  1.0000
  N   N26       1.0  0.22791000000000006  0.55942  0.05171  1.0000
  N   N27       1.0  0.6419  0.82723  0.2584  1.0000
  N   N28       1.0  0.77211  0.8237500000000002  0.33147  1.0000
  N   N29       1.0  0.5688500000000001  0.38353  0.7416  1.0000
  N   N30       1.0  0.49229000000000006  0.44065000000000004  0.66854  1.0000
  N   N31       1.0  0.43116000000000004  0.17284000000000002  0.81475  1.0000
  N   N32       1.0  0.5076400000000001  0.17621000000000012  0.9482800000000001  1.0000
  N   N33       1.0  0.8272300000000001  0.2583900000000001  0.6419  1.0000
  N   N34       1.0  0.82375  0.33147  0.77211  1.0000
  N   N35       1.0  0.61642  0.18526  0.35809  1.0000
  N   N36       1.0  0.55943  0.05171  0.22791  1.0000
  N   N37       1.0  0.17284  0.81475  0.43116  1.0000
  N   N38       1.0  0.17621000000000014  0.9482800000000001  0.50765  1.0000
  N   N39       1.0  0.38353  0.7416100000000001  0.56886  1.0000
  N   N40       1.0  0.44064  0.66854  0.49229  1.0000
  N   N41       1.0  0.8147499999999999  0.43116  0.17284  1.0000
  N   N42       1.0  0.94828  0.50764  0.17621  1.0000
  N   N43       1.0  0.74161  0.5688500000000002  0.38353000000000004  1.0000
  N   N44       1.0  0.6685400000000002  0.49229  0.44064000000000003  1.0000
  N   N45       1.0  0.25840000000000013  0.6419000000000002  0.82723  1.0000
  N   N46       1.0  0.33147  0.7721  0.82375  1.0000
  N   N47       1.0  0.18525000000000003  0.3580900000000001  0.61642  1.0000
  N   N48       1.0  0.05171000000000005  0.22791000000000003  0.55943  1.0000
  N   N49       1.0  0.35809  0.18525  0.61642  1.0000
  N   N50       1.0  0.22791000000000006  0.05170000000000002  0.55942  1.0000
  N   N51       1.0  0.6419  0.2584000000000001  0.82724  1.0000
  N   N52       1.0  0.77211  0.33147  0.82375  1.0000
  N   N53       1.0  0.5688500000000001  0.7416000000000003  0.38353000000000004  1.0000
  N   N54       1.0  0.49229000000000006  0.66854  0.4406500000000001  1.0000
  N   N55       1.0  0.43116000000000004  0.81475  0.17284  1.0000
  N   N56       1.0  0.5076400000000001  0.9482800000000001  0.17621  1.0000
  N   N57       1.0  0.8272300000000001  0.6419000000000002  0.25839  1.0000
  N   N58       1.0  0.82375  0.7721  0.33148000000000005  1.0000
  N   N59       1.0  0.61642  0.3580900000000001  0.18526  1.0000
  N   N60       1.0  0.5594300000000002  0.22791000000000003  0.05171  1.0000
  N   N61       1.0  0.17284  0.43116  0.81475  1.0000
  N   N62       1.0  0.17621000000000003  0.5076400000000001  0.9482800000000001  1.0000
  N   N63       1.0  0.38353  0.56885  0.74161  1.0000
  N   N64       1.0  0.44064000000000003  0.49228000000000005  0.66854  1.0000
  N   N65       1.0  0.81475  0.17284000000000002  0.43116  1.0000
  N   N66       1.0  0.94828  0.17621  0.50764  1.0000
  N   N67       1.0  0.7416100000000001  0.38353000000000004  0.5688500000000001  1.0000
  N   N68       1.0  0.6685400000000002  0.44064  0.49229  1.0000
  N   N69       1.0  0.25839999999999996  0.82723  0.6419100000000001  1.0000
  N   N70       1.0  0.33147  0.8237500000000002  0.7721  1.0000
  N   N71       1.0  0.18524999999999997  0.61642  0.35809  1.0000
  N   N72       1.0  0.05171  0.55943  0.22791  1.0000
  N   N73       1.0  0.64191  0.38358  0.81475  1.0000
  N   N74       1.0  0.7720900000000003  0.44058000000000014  0.9483000000000003  1.0000
  N   N75       1.0  0.35809  0.17276000000000008  0.7416  1.0000
  N   N76       1.0  0.22789000000000004  0.17624999999999993  0.66853  1.0000
  N   N77       1.0  0.43115000000000003  0.61647  0.2584  1.0000
  N   N78       1.0  0.5077100000000002  0.55935  0.33146000000000003  1.0000
  N   N79       1.0  0.56884  0.82716  0.18525000000000003  1.0000
  N   N80       1.0  0.4923600000000001  0.82379  0.05172  1.0000
  N   N81       1.0  0.17277000000000006  0.7416100000000001  0.3581  1.0000
  N   N82       1.0  0.17625000000000005  0.6685200000000002  0.22790000000000002  1.0000
  N   N83       1.0  0.38358000000000003  0.8147400000000002  0.6419100000000001  1.0000
  N   N84       1.0  0.4405700000000001  0.9482900000000001  0.7720900000000002  1.0000
  N   N85       1.0  0.82716  0.18525  0.56884  1.0000
  N   N86       1.0  0.82379  0.051720000000000016  0.49236  1.0000
  N   N87       1.0  0.61647  0.25839000000000006  0.43115000000000003  1.0000
  N   N88       1.0  0.55936  0.33146  0.50772  1.0000
  N   N89       1.0  0.18525000000000005  0.56884  0.82716  1.0000
  N   N90       1.0  0.05172000000000003  0.49236  0.82379  1.0000
  N   N91       1.0  0.2583900000000002  0.43115000000000003  0.6164700000000001  1.0000
  N   N92       1.0  0.33146  0.50771  0.55936  1.0000
  N   N93       1.0  0.7416000000000001  0.3581  0.17277000000000003  1.0000
  N   N94       1.0  0.66853  0.2279  0.17625  1.0000
  N   N95       1.0  0.8147400000000001  0.6419100000000001  0.38358  1.0000
  N   N96       1.0  0.9482900000000002  0.7720900000000002  0.44057  1.0000
  N   N97       1.0  0.60914  0.7088  0.318  1.0000
  N   N98       1.0  0.3908  0.70879  0.09965  1.0000
  N   N99       1.0  0.39086000000000004  0.29120000000000007  0.6820000000000002  1.0000
  N   N100      1.0  0.6091899999999999  0.29121  0.9003600000000002  1.0000
  N   N101      1.0  0.09964000000000006  0.39080000000000004  0.70879  1.0000
  N   N102      1.0  0.31799  0.60914  0.70879  1.0000
  N   N103      1.0  0.9003600000000003  0.60919  0.29122  1.0000
  N   N104      1.0  0.6820100000000001  0.39086  0.29121  1.0000
  N   N105      1.0  0.2912200000000001  0.90036  0.6092000000000001  1.0000
  N   N106      1.0  0.29121  0.68201  0.39086  1.0000
  N   N107      1.0  0.7087800000000001  0.09964000000000005  0.39081  1.0000
  N   N108      1.0  0.70879  0.31799000000000005  0.6091400000000001  1.0000
  N   N109      1.0  0.39086  0.682  0.2912  1.0000
  N   N110      1.0  0.60919  0.90035  0.29121  1.0000
  N   N111      1.0  0.60914  0.318  0.7088  1.0000
  N   N112      1.0  0.3907999999999999  0.09963999999999994  0.70879  1.0000
  N   N113      1.0  0.9003600000000004  0.29121000000000014  0.6092000000000001  1.0000
  N   N114      1.0  0.6820100000000001  0.29121  0.39086  1.0000
  N   N115      1.0  0.09964000000000003  0.70878  0.39081  1.0000
  N   N116      1.0  0.31799000000000016  0.70879  0.6091400000000001  1.0000
  N   N117      1.0  0.7087800000000001  0.39081  0.09964000000000003  1.0000
  N   N118      1.0  0.7087900000000004  0.6091400000000001  0.31799000000000005  1.0000
  N   N119      1.0  0.2912100000000002  0.6091900000000002  0.9003700000000002  1.0000
  N   N120      1.0  0.29121  0.39086  0.68201  1.0000
  N   N121      1.0  0.79338  0.99998  0.385  1.0000
  N   N122      1.0  0.20661000000000004  0.59163  0.20661000000000002  1.0000
  N   N123      1.0  0.6151  0.40848  0.61509  1.0000
  N   N124      1.0  0.3850000000000003  0.99997  0.7933800000000001  1.0000
  N   N125      1.0  0.20661000000000004  0.20661000000000002  0.59164  1.0000
  N   N126      1.0  0.385  0.79337  0.99997  1.0000
  N   N127      1.0  0.79338  0.3850100000000001  0.9999900000000002  1.0000
  N   N128      1.0  0.6151  0.61509  0.40848  1.0000
  N   N129      1.0  0.99997  0.79337  0.385  1.0000
  N   N130      1.0  0.4084800000000001  0.6150900000000001  0.6151000000000001  1.0000
  N   N131      1.0  0.5916400000000003  0.20661000000000004  0.20661000000000002  1.0000
  N   N132      1.0  0.9999800000000002  0.38500000000000006  0.7933800000000001  1.0000
  N   N133      1.0  0.20662000000000003  0.61499  1.0000000000000003e-05  1.0000
  N   N134      1.0  0.7933900000000004  0.79338  0.40837  1.0000
  N   N135      1.0  0.38490000000000013  0.38491  0.59152  1.0000
  N   N136      1.0  0.615  0.20663  4.000000000000001e-05  1.0000
  N   N137      1.0  0.7933900000000003  0.40836  0.79339  1.0000
  N   N138      1.0  0.615  3.0000000000006838e-05  0.20663000000000004  1.0000
  N   N139      1.0  0.20662000000000008  2.000000000006298e-05  0.6150000000000001  1.0000
  N   N140      1.0  0.38490000000000013  0.59152  0.38491  1.0000
  N   N141      1.0  2.000000000002219e-05  0.615  0.20662  1.0000
  N   N142      1.0  0.59152  0.38491  0.3849  1.0000
  N   N143      1.0  0.40836000000000006  0.79339  0.79339  1.0000
  N   N144      1.0  3.000000000007458e-05  0.20662000000000008  0.6150000000000001  1.0000
  O   O1        1.0  0.5743100000000001  0.6541700000000001  0.29966  1.0000
  O   O2        1.0  0.8177100000000003  0.050279999999999964  0.38784  1.0000
  O   O3        1.0  0.42565  0.72537  0.07993  1.0000
  O   O4        1.0  0.18231000000000008  0.5700900000000002  0.23254  1.0000
  O   O5        1.0  0.3545700000000001  0.27462  0.7002900000000001  1.0000
  O   O6        1.0  0.6625900000000001  0.4300300000000001  0.6123500000000001  1.0000
  O   O7        1.0  0.6454800000000002  0.34585  0.92015  1.0000
  O   O8        1.0  0.33746000000000015  0.94967  0.7674100000000001  1.0000
  O   O9        1.0  0.07992000000000009  0.4256400000000001  0.7253600000000001  1.0000
  O   O10       1.0  0.2325400000000001  0.18231000000000008  0.5701000000000002  1.0000
  O   O11       1.0  0.29964  0.57431  0.65416  1.0000
  O   O12       1.0  0.38784  0.81771  0.05028  1.0000
  O   O13       1.0  0.92016  0.6454800000000002  0.34586  1.0000
  O   O14       1.0  0.76741  0.33747  0.94968  1.0000
  O   O15       1.0  0.70029  0.35457  0.27464000000000005  1.0000
  O   O16       1.0  0.61235  0.66259  0.43003000000000013  1.0000
  O   O17       1.0  0.34586  0.92016  0.64549  1.0000
  O   O18       1.0  0.9496700000000001  0.76741  0.33747  1.0000
  O   O19       1.0  0.27464000000000005  0.7003  0.35457000000000005  1.0000
  O   O20       1.0  0.4300300000000001  0.6123400000000001  0.6625900000000001  1.0000
  O   O21       1.0  0.7253600000000001  0.07990999999999997  0.42565  1.0000
  O   O22       1.0  0.5701  0.23254  0.18231  1.0000
  O   O23       1.0  0.65416  0.29965  0.57431  1.0000
  O   O24       1.0  0.05028  0.38784  0.81771  1.0000
  O   O25       1.0  0.4256900000000001  0.70034  0.34583  1.0000
  O   O26       1.0  0.18229000000000015  0.6121600000000003  0.9497300000000002  1.0000
  O   O27       1.0  0.57435  0.92007  0.27463  1.0000
  O   O28       1.0  0.8176900000000001  0.76746  0.42991  1.0000
  O   O29       1.0  0.64543  0.29972  0.72538  1.0000
  O   O30       1.0  0.3374100000000001  0.38765  0.56997  1.0000
  O   O31       1.0  0.35451000000000016  0.07985000000000013  0.6541500000000001  1.0000
  O   O32       1.0  0.6625300000000002  0.23259000000000005  0.05032000000000001  1.0000
  O   O33       1.0  0.92008  0.27464  0.57436  1.0000
  O   O34       1.0  0.76746  0.4299000000000001  0.81769  1.0000
  O   O35       1.0  0.7003500000000003  0.34584  0.42569  1.0000
  O   O36       1.0  0.61216  0.94972  0.18229  1.0000
  O   O37       1.0  0.07984000000000001  0.65414  0.35452000000000006  1.0000
  O   O38       1.0  0.23259  0.05031999999999998  0.66253  1.0000
  O   O39       1.0  0.2997  0.72536  0.64543  1.0000
  O   O40       1.0  0.38765  0.56997  0.33742  1.0000
  O   O41       1.0  0.65414  0.35452000000000006  0.07984  1.0000
  O   O42       1.0  0.05032999999999997  0.66254  0.23259  1.0000
  O   O43       1.0  0.7253600000000001  0.64544  0.2997  1.0000
  O   O44       1.0  0.56997  0.33741  0.38766  1.0000
  O   O45       1.0  0.27464000000000005  0.5743500000000001  0.9200900000000001  1.0000
  O   O46       1.0  0.4299  0.81769  0.76746  1.0000
  O   O47       1.0  0.34584000000000004  0.42569000000000007  0.7003600000000001  1.0000
  O   O48       1.0  0.94972  0.18229  0.61216  1.0000
  O   O49       1.0  0.4256900000000001  0.34583  0.70035  1.0000
  O   O50       1.0  0.18229000000000012  0.94972  0.61217  1.0000
  O   O51       1.0  0.5743500000000002  0.27463  0.92008  1.0000
  O   O52       1.0  0.8176900000000002  0.4299000000000001  0.76746  1.0000
  O   O53       1.0  0.64543  0.72537  0.29972  1.0000
  O   O54       1.0  0.3374100000000001  0.5699600000000001  0.38765000000000005  1.0000
  O   O55       1.0  0.35451000000000005  0.65415  0.07985000000000002  1.0000
  O   O56       1.0  0.66254  0.050329999999999986  0.23259  1.0000
  O   O57       1.0  0.92008  0.57436  0.27465  1.0000
  O   O58       1.0  0.76746  0.81769  0.4299  1.0000
  O   O59       1.0  0.7003500000000003  0.42568000000000006  0.34584000000000004  1.0000
  O   O60       1.0  0.6121600000000003  0.18229000000000015  0.9497300000000002  1.0000
  O   O61       1.0  0.07984000000000009  0.3545200000000001  0.6541500000000001  1.0000
  O   O62       1.0  0.23259000000000005  0.66253  0.05032000000000001  1.0000
  O   O63       1.0  0.2997  0.64543  0.7253600000000001  1.0000
  O   O64       1.0  0.38765  0.33741  0.56997  1.0000
  O   O65       1.0  0.65414  0.07984000000000002  0.35452000000000006  1.0000
  O   O66       1.0  0.05033000000000002  0.23259000000000007  0.66254  1.0000
  O   O67       1.0  0.7253600000000001  0.2997  0.64544  1.0000
  O   O68       1.0  0.56997  0.38765  0.33741000000000004  1.0000
  O   O69       1.0  0.2746400000000002  0.9200900000000002  0.5743500000000001  1.0000
  O   O70       1.0  0.4299  0.76746  0.81769  1.0000
  O   O71       1.0  0.34584000000000004  0.7003500000000001  0.42569  1.0000
  O   O72       1.0  0.9497200000000001  0.6121600000000001  0.18229  1.0000
  O   O73       1.0  0.57431  0.29965000000000014  0.65417  1.0000
  O   O74       1.0  0.8177  0.38783000000000006  0.05028  1.0000
  O   O75       1.0  0.42565000000000014  0.07993000000000006  0.72537  1.0000
  O   O76       1.0  0.18231000000000008  0.23254000000000002  0.5701000000000002  1.0000
  O   O77       1.0  0.3545700000000001  0.7002800000000001  0.27463  1.0000
  O   O78       1.0  0.6625900000000002  0.6123500000000001  0.43003000000000013  1.0000
  O   O79       1.0  0.6454800000000002  0.92015  0.34585  1.0000
  O   O80       1.0  0.3374600000000001  0.76741  0.94968  1.0000
  O   O81       1.0  0.07992000000000009  0.72535  0.4256400000000001  1.0000
  O   O82       1.0  0.23253999999999997  0.5701  0.18231  1.0000
  O   O83       1.0  0.2996400000000001  0.65416  0.5743200000000002  1.0000
  O   O84       1.0  0.38784  0.05027  0.81771  1.0000
  O   O85       1.0  0.92016  0.34586000000000006  0.64548  1.0000
  O   O86       1.0  0.76741  0.94968  0.33747  1.0000
  O   O87       1.0  0.70029  0.27464000000000005  0.35457000000000005  1.0000
  O   O88       1.0  0.61235  0.4300300000000001  0.6625900000000001  1.0000
  O   O89       1.0  0.3458600000000002  0.6454800000000003  0.9201600000000001  1.0000
  O   O90       1.0  0.9496700000000001  0.3374600000000001  0.7674100000000001  1.0000
  O   O91       1.0  0.27464000000000005  0.3545600000000001  0.7003000000000001  1.0000
  O   O92       1.0  0.4300300000000001  0.6625900000000001  0.6123500000000001  1.0000
  O   O93       1.0  0.7253600000000001  0.42565  0.07991  1.0000
  O   O94       1.0  0.5701  0.18231  0.23254  1.0000
  O   O95       1.0  0.65416  0.57431  0.29965  1.0000
  O   O96       1.0  0.05028000000000001  0.81771  0.38784  1.0000
