data_image0
_chemical_formula_structural       Fe24Si8H192C256O120
_chemical_formula_sum              "Fe24 Si8 H192 C256 O120"
_cell_length_a       23.27967
_cell_length_b       24.19646
_cell_length_c       24.83253
_cell_angle_alpha    104.27399999999999
_cell_angle_beta     90.0
_cell_angle_gamma    90.0

_space_group_name_H-M_alt    "P 1"
_space_group_IT_number       1

loop_
  _space_group_symop_operation_xyz
  'x, y, z'

loop_
  _atom_site_type_symbol
  _atom_site_label
  _atom_site_symmetry_multiplicity
  _atom_site_fract_x
  _atom_site_fract_y
  _atom_site_fract_z
  _atom_site_occupancy
  Fe  Fe1       1.0  0.2074  0.76147  0.5376  1.0000
  Fe  Fe2       1.0  0.76612  0.29871  0.9781599999999999  1.0000
  Fe  Fe3       1.0  0.21083  0.65275  0.13333  1.0000
  Fe  Fe4       1.0  0.69055  0.7696400000000001  0.59952  1.0000
  Fe  Fe5       1.0  0.92748  0.25209  0.5292  1.0000
  Fe  Fe6       1.0  0.23027999999999998  0.55515  0.02083  1.0000
  Fe  Fe7       1.0  0.7924  0.23832000000000003  0.46189  1.0000
  Fe  Fe8       1.0  0.30946  0.23037  0.4005  1.0000
  Fe  Fe9       1.0  0.19072  0.73039  0.4004599999999999  1.0000
  Fe  Fe10      1.0  0.73389  0.7981700000000002  0.97827  1.0000
  Fe  Fe11      1.0  0.73023  0.94488  0.97906  1.0000
  Fe  Fe12      1.0  0.71139  0.84719  0.86691  1.0000
  Fe  Fe13      1.0  0.80957  0.26961  0.59948  1.0000
  Fe  Fe14      1.0  0.26617  0.20174  0.02176  1.0000
  Fe  Fe15      1.0  0.2698  0.05484  0.020729999999999995  1.0000
  Fe  Fe16      1.0  0.57254  0.75213  0.52923  1.0000
  Fe  Fe17      1.0  0.76989  0.44496  0.9792  1.0000
  Fe  Fe18      1.0  0.78856  0.34697000000000006  0.8667899999999998  1.0000
  Fe  Fe19      1.0  0.7075299999999999  0.73837  0.46203999999999995  1.0000
  Fe  Fe20      1.0  0.4274299999999999  0.24778999999999995  0.47073999999999994  1.0000
  Fe  Fe21      1.0  0.2337  0.70207  0.02219  1.0000
  Fe  Fe22      1.0  0.29245  0.26159  0.53795  1.0000
  Fe  Fe23      1.0  0.2887  0.15271  0.13297  1.0000
  Fe  Fe24      1.0  0.07246  0.74782  0.4708699999999999  1.0000
  Si  Si1       1.0  0.50291  0.46431  0.23751  1.0000
  Si  Si2       1.0  0.49754  0.53547  0.7624899999999999  1.0000
  Si  Si3       1.0  0.00702  0.40618  0.24965  1.0000
  Si  Si4       1.0  0.00259  0.03560000000000001  0.7625199999999999  1.0000
  Si  Si5       1.0  0.9929199999999999  0.59375  0.75027  1.0000
  Si  Si6       1.0  0.49315999999999993  0.90627  0.24978  1.0000
  Si  Si7       1.0  0.50724  0.09385000000000004  0.75039  1.0000
  Si  Si8       1.0  0.9973099999999999  0.9644900000000001  0.23748  1.0000
  H   H1        1.0  0.45268  0.43341  0.12484  1.0000
  H   H2        1.0  0.10573  0.90078  0.23090999999999995  1.0000
  H   H3        1.0  0.94115  0.84922  0.18333  1.0000
  H   H4        1.0  0.29672  0.57871  0.42086999999999997  1.0000
  H   H5        1.0  0.79669  0.92114  0.57912  1.0000
  H   H6        1.0  0.022839999999999996  0.28001  0.55405  1.0000
  H   H7        1.0  0.8366  0.9044799999999998  0.7680999999999998  1.0000
  H   H8        1.0  0.54313  0.00208  0.33356  1.0000
  H   H9        1.0  0.83069  0.64055  0.58991  1.0000
  H   H10       1.0  0.92694  0.20719000000000004  0.83362  1.0000
  H   H11       1.0  0.04655999999999999  0.38979  0.36123  1.0000
  H   H12       1.0  0.14006  0.34569  0.47269  1.0000
  H   H13       1.0  0.55329  0.40601  0.31959  1.0000
  H   H14       1.0  0.6512  0.93529  0.7075  1.0000
  H   H15       1.0  0.00679  0.40318  0.61641  1.0000
  H   H16       1.0  0.37115  0.67961  0.89323  1.0000
  H   H17       1.0  0.99831  0.65199  0.56771  1.0000
  H   H18       1.0  0.6185  0.8071399999999999  0.09707  1.0000
  H   H19       1.0  0.23863  0.9681300000000003  0.95747  1.0000
  H   H20       1.0  0.07313  0.48100000000000004  0.09705999999999998  1.0000
  H   H21       1.0  0.011989999999999999  0.157  0.62568  1.0000
  H   H22       1.0  0.85313  0.16295  0.7146  1.0000
  H   H23       1.0  0.88715  0.4876  0.11523  1.0000
  H   H24       1.0  0.95341  0.61023  0.63872  1.0000
  H   H25       1.0  0.66349  0.40445  0.76798  1.0000
  H   H26       1.0  0.98775  0.84307  0.37424  1.0000
  H   H27       1.0  0.27308  0.75467  0.96017  1.0000
  H   H28       1.0  0.49926  0.3936200000000001  0.57288  1.0000
  H   H29       1.0  0.69034  0.09850999999999997  0.5224299999999998  1.0000
  H   H30       1.0  0.40947  0.011580000000000009  0.16867  1.0000
  H   H31       1.0  0.04297  0.49783  0.66642  1.0000
  H   H32       1.0  0.61371  0.52333  0.25698  1.0000
  H   H33       1.0  0.43938999999999995  0.29073  0.09444999999999999  1.0000
  H   H34       1.0  0.63393  0.18825  0.91196  1.0000
  H   H35       1.0  0.55895  0.34909  0.18329  1.0000
  H   H36       1.0  0.1693  0.35945  0.41001  1.0000
  H   H37       1.0  0.8900399999999999  0.36176  0.26599999999999996  1.0000
  H   H38       1.0  0.13112  0.008690000000000005  0.91436  1.0000
  H   H39       1.0  0.49829  0.8479600000000002  0.43229  1.0000
  H   H40       1.0  0.77268  0.74547  0.03963  1.0000
  H   H41       1.0  0.00078  0.89369  0.573  1.0000
  H   H42       1.0  0.22728  0.25443  0.96046  1.0000
  H   H43       1.0  0.84878  0.4353  0.70747  1.0000
  H   H44       1.0  0.34875  0.06476  0.29254  1.0000
  H   H45       1.0  0.62893  0.32034  0.10673  1.0000
  H   H46       1.0  0.44679  0.5939500000000001  0.68042  1.0000
  H   H47       1.0  0.85988  0.65433  0.52734  1.0000
  H   H48       1.0  0.16791  0.26609  0.24212  1.0000
  H   H49       1.0  0.41002  0.82967  0.28753  1.0000
  H   H50       1.0  0.04645  0.50125  0.80358  1.0000
  H   H51       1.0  0.95343  0.49865  0.19603999999999996  1.0000
  H   H52       1.0  0.60998  0.86179  0.26599  1.0000
  H   H53       1.0  0.06016  0.97928  0.8389999999999999  1.0000
  H   H54       1.0  0.59064  0.98828  0.83134  1.0000
  H   H55       1.0  0.134  0.31197  0.08821999999999999  1.0000
  H   H56       1.0  0.9090999999999999  0.48793  0.83137  1.0000
  H   H57       1.0  0.00171  0.348  0.43222  1.0000
  H   H58       1.0  0.08992  0.51075  0.16844  1.0000
  H   H59       1.0  0.35317  0.33704000000000006  0.28542  1.0000
  H   H60       1.0  0.38724  0.3372  0.13221  1.0000
  H   H61       1.0  0.4412  0.6506  0.8165099999999997  1.0000
  H   H62       1.0  0.95785  0.96845  0.64827  1.0000
  H   H63       1.0  0.11256  0.5121  0.8845999999999998  1.0000
  H   H64       1.0  0.70334  0.42111  0.57918  1.0000
  H   H65       1.0  0.38443999999999995  0.9689  0.24237  1.0000
  H   H66       1.0  0.39421  0.40079  0.2309  1.0000
  H   H67       1.0  0.151  0.56473  0.29252  1.0000
  H   H68       1.0  0.26118  0.46973  0.95832  1.0000
  H   H69       1.0  0.84568  0.32184  0.33879999999999993  1.0000
  H   H70       1.0  0.64022  0.15446  0.52736  1.0000
  H   H71       1.0  0.05984  0.79202  0.09448  1.0000
  H   H72       1.0  0.61274  0.9878600000000001  0.11525  1.0000
  H   H73       1.0  0.88441  0.53103  0.75757  1.0000
  H   H74       1.0  0.64682  0.6629899999999999  0.7146  1.0000
  H   H75       1.0  0.65647  0.59677  0.3333499999999999  1.0000
  H   H76       1.0  0.1902  0.40163  0.47762  1.0000
  H   H77       1.0  0.55604  0.12493999999999995  0.86697  1.0000
  H   H78       1.0  0.58131  0.43942  0.72328  1.0000
  H   H79       1.0  0.37089  0.46866  0.07962  1.0000
  H   H80       1.0  0.9467100000000002  0.90609  0.31947  1.0000
  H   H81       1.0  0.52271  0.22004  0.44588  1.0000
  H   H82       1.0  0.82019  0.89063  0.50898  1.0000
  H   H83       1.0  0.1565  0.9033100000000001  0.6666999999999998  1.0000
  H   H84       1.0  0.10987  0.63821  0.73404  1.0000
  H   H85       1.0  0.44463  0.8753  0.13331  1.0000
  H   H86       1.0  0.3873  0.012199999999999942  0.8846399999999998  1.0000
  H   H87       1.0  0.83213  0.73401  0.75785  1.0000
  H   H88       1.0  0.67987  0.3905  0.50897  1.0000
  H   H89       1.0  0.51213  0.343  0.3744  1.0000
  H   H90       1.0  0.45357  0.0012499999999999781  0.8037  1.0000
  H   H91       1.0  0.9441799999999999  0.62487  0.86683  1.0000
  H   H92       1.0  0.8435299999999999  0.09674999999999999  0.33337999999999995  1.0000
  H   H93       1.0  0.0717  0.79426  0.16657  1.0000
  H   H94       1.0  0.11187  0.8381  0.13198  1.0000
  H   H95       1.0  0.64299  0.37542  0.56702  1.0000
  H   H96       1.0  0.04757  0.93358  0.12451  1.0000
  H   H97       1.0  0.73889  0.69322  0.36968999999999996  1.0000
  H   H98       1.0  0.44832999999999995  0.18381999999999996  0.8234799999999999  1.0000
  H   H99       1.0  0.48789999999999994  0.65698  0.62569  1.0000
  H   H100      1.0  0.62982  0.53106  0.92031  1.0000
  H   H101      1.0  0.65437  0.8218  0.33877999999999997  1.0000
  H   H102      1.0  0.34556999999999993  0.17815  0.66125  1.0000
  H   H103      1.0  0.87107  0.8204  0.10671999999999997  1.0000
  H   H104      1.0  0.05583  0.37514  0.13319  1.0000
  H   H105      1.0  0.61284  0.6629  0.8677699999999999  1.0000
  H   H106      1.0  0.49309  0.9032600000000001  0.61642  1.0000
  H   H107      1.0  0.86881  0.9913  0.08555999999999998  1.0000
  H   H108      1.0  0.4274899999999999  0.2934  0.16651  1.0000
  H   H109      1.0  0.9524199999999999  0.06639999999999999  0.8755499999999999  1.0000
  H   H110      1.0  0.9398099999999999  0.02074  0.16092  1.0000
  H   H111      1.0  0.9388799999999999  0.21008  0.9056999999999998  1.0000
  H   H112      1.0  0.14665  0.837  0.28541  1.0000
  H   H113      1.0  0.36601  0.81236  0.08823  1.0000
  H   H114      1.0  0.12887  0.17961  0.89319  1.0000
  H   H115      1.0  0.73892  0.53204  0.0426  1.0000
  H   H116      1.0  0.50079  0.60637  0.42701  1.0000
  H   H117      1.0  0.95695  0.5019299999999998  0.33344  1.0000
  H   H118      1.0  0.63125  0.49119  0.08555  1.0000
  H   H119      1.0  0.5517  0.8162500000000001  0.17648  1.0000
  H   H120      1.0  0.33203  0.7663600000000002  0.24222999999999997  1.0000
  H   H121      1.0  0.45697  0.9979800000000001  0.6664699999999999  1.0000
  H   H122      1.0  0.90967  0.67046  0.7124599999999999  1.0000
  H   H123      1.0  0.99296  0.59663  0.38351999999999997  1.0000
  H   H124      1.0  0.45785999999999993  0.53153  0.35177  1.0000
  H   H125      1.0  0.04406  0.54768  0.13348  1.0000
  H   H126      1.0  0.50696  0.09687999999999998  0.38369999999999993  1.0000
  H   H127      1.0  0.54668  0.11020000000000002  0.63876  1.0000
  H   H128      1.0  0.05170999999999999  0.6836399999999999  0.82343  1.0000
  H   H129      1.0  0.09028  0.32953  0.28747  1.0000
  H   H130      1.0  0.92557  0.51823  0.90329  1.0000
  H   H131      1.0  0.59063  0.17064999999999997  0.7125499999999999  1.0000
  H   H132      1.0  0.66931  0.14055  0.58997  1.0000
  H   H133      1.0  0.36899  0.50865  0.91432  1.0000
  H   H134      1.0  0.72806  0.24552  0.03917  1.0000
  H   H135      1.0  0.11844  0.69281  0.9029599999999998  1.0000
  H   H136      1.0  0.08123  0.06041  0.27666  1.0000
  H   H137      1.0  0.33687  0.59526  0.23156  1.0000
  H   H138      1.0  0.04219  0.03156000000000001  0.35179  1.0000
  H   H139      1.0  0.50176  0.15198  0.56764  1.0000
  H   H140      1.0  0.12965  0.96883  0.07964  1.0000
  H   H141      1.0  0.33074  0.85949  0.41009  1.0000
  H   H142      1.0  0.56069  0.70948  0.90555  1.0000
  H   H143      1.0  0.97748  0.71999  0.44583  1.0000
  H   H144      1.0  0.54484  0.95142  0.86627  1.0000
  H   H145      1.0  0.6679  0.23425  0.75808  1.0000
  H   H146      1.0  0.45341  0.88984  0.3613  1.0000
  H   H147      1.0  0.43987999999999994  0.47935  0.8388799999999997  1.0000
  H   H148      1.0  0.41885  0.56006  0.27654  1.0000
  H   H149      1.0  0.5603  0.52073  0.16081  1.0000
  H   H150      1.0  0.57259  0.70672  0.83348  1.0000
  H   H151      1.0  0.15437  0.67811  0.66127  1.0000
  H   H152      1.0  0.14284  0.12444  0.43299  1.0000
  H   H153      1.0  0.54768  0.5663399999999998  0.8756799999999999  1.0000
  H   H154      1.0  0.31001  0.90172  0.47763999999999995  1.0000
  H   H155      1.0  0.35723  0.6242900000000001  0.43305  1.0000
  H   H156      1.0  0.23899  0.80685  0.62997  1.0000
  H   H157      1.0  0.4553  0.04844  0.13375  1.0000
  H   H158      1.0  0.80979  0.59845  0.52242  1.0000
  H   H159      1.0  0.36012  0.84591  0.47273  1.0000
  H   H160      1.0  0.60588  0.59921  0.7690599999999997  1.0000
  H   H161      1.0  0.88149  0.30712  0.09715999999999997  1.0000
  H   H162      1.0  0.3900799999999999  0.13822  0.73411  1.0000
  H   H163      1.0  0.8867  0.16336  0.86782  1.0000
  H   H164      1.0  0.76112  0.19318  0.36946  1.0000
  H   H165      1.0  0.16341  0.09549000000000002  0.23192  1.0000
  H   H166      1.0  0.4772  0.78007  0.55409  1.0000
  H   H167      1.0  0.76102  0.03167  0.04257  1.0000
  H   H168      1.0  0.11364  0.9767000000000001  0.74307  1.0000
  H   H169      1.0  0.34343  0.40326999999999996  0.6666699999999999  1.0000
  H   H170      1.0  0.38152  0.19288000000000002  0.90285  1.0000
  H   H171      1.0  0.85708  0.87553  0.56697  1.0000
  H   H172      1.0  0.86606  0.68813  0.9118099999999999  1.0000
  H   H173      1.0  0.91872  0.93957  0.72334  1.0000
  H   H174      1.0  0.8862799999999998  0.023330000000000004  0.25696  1.0000
  H   H175      1.0  0.42605  0.9815  0.09684  1.0000
  H   H176      1.0  0.57406  0.018429999999999995  0.9032099999999998  1.0000
  H   H177      1.0  0.8704  0.031089999999999948  0.9203899999999998  1.0000
  H   H178      1.0  0.54651  0.9988  0.19626  1.0000
  H   H179      1.0  0.32028  0.60918  0.49095999999999995  1.0000
  H   H180      1.0  0.05884999999999999  0.15076  0.81656  1.0000
  H   H181      1.0  0.11545  0.46896000000000004  0.24244  1.0000
  H   H182      1.0  0.99921  0.10636000000000001  0.42703  1.0000
  H   H183      1.0  0.26112  0.3069  0.63044  1.0000
  H   H184      1.0  0.8941  0.09923  0.76903  1.0000
  H   H185      1.0  0.05313  0.09403999999999997  0.68036  1.0000
  H   H186      1.0  0.6156  0.031080000000000028  0.7576  1.0000
  H   H187      1.0  0.20334  0.07877  0.42081999999999997  1.0000
  H   H188      1.0  0.17979000000000003  0.10933  0.49108  1.0000
  H   H189      1.0  0.95494  0.45120999999999994  0.86614  1.0000
  H   H190      1.0  0.94826  0.31616  0.17635  1.0000
  H   H191      1.0  0.38631  0.47673  0.74313  1.0000
  H   H192      1.0  0.54227  0.46847  0.64822  1.0000
  C   C1        1.0  0.07543  0.1189  0.8369299999999998  1.0000
  C   C2        1.0  0.85975  0.25096  0.88958  1.0000
  C   C3        1.0  0.07876  0.66799  0.61005  1.0000
  C   C4        1.0  0.48653  0.35476  0.34221  1.0000
  C   C5        1.0  0.51961  0.93084  0.6479799999999999  1.0000
  C   C6        1.0  0.88736  0.0831  0.3371  1.0000
  C   C7        1.0  0.60434  0.80527  0.43321  1.0000
  C   C8        1.0  0.47652  0.40773000000000004  0.27098  1.0000
  C   C9        1.0  0.9245100000000002  0.8811400000000001  0.16304  1.0000
  C   C10       1.0  0.9294299999999999  0.16449999999999998  0.6663499999999999  1.0000
  C   C11       1.0  0.11501999999999998  0.03960999999999997  0.8928599999999998  1.0000
  C   C12       1.0  0.65285  0.4653900000000001  0.84692  1.0000
  C   C13       1.0  0.90268  0.35624  0.62667  1.0000
  C   C14       1.0  0.42471999999999993  0.61881  0.83705  1.0000
  C   C15       1.0  0.88018  0.39681  0.10207  1.0000
  C   C16       1.0  0.43756  0.04344999999999997  0.82462  1.0000
  C   C17       1.0  0.15265  0.03473  0.15292  1.0000
  C   C18       1.0  0.3873  0.41694  0.66299  1.0000
  C   C19       1.0  0.42036  0.38744000000000006  0.26182  1.0000
  C   C20       1.0  0.8148499999999999  0.8830499999999999  0.55054  1.0000
  C   C21       1.0  0.7730999999999999  0.6817300000000001  0.54362  1.0000
  C   C22       1.0  0.27332  0.81831  0.45654  1.0000
  C   C23       1.0  0.52222  0.8515  0.39558  1.0000
  C   C24       1.0  0.84444  0.71661  0.8382999999999998  1.0000
  C   C25       1.0  0.10232  0.65118  0.88083  1.0000
  C   C26       1.0  0.6028  0.64854  0.70766  1.0000
  C   C27       1.0  0.47517  0.4120400000000001  0.61076  1.0000
  C   C28       1.0  0.63966  0.75096  0.8896299999999999  1.0000
  C   C29       1.0  0.63598  0.40438  0.09162999999999999  1.0000
  C   C30       1.0  0.90629  0.20571  0.87289  1.0000
  C   C31       1.0  0.00278  0.37407  0.35461  1.0000
  C   C32       1.0  0.024880000000000003  0.9120100000000001  0.61081  1.0000
  C   C33       1.0  0.49953  0.98432  0.67595  1.0000
  C   C34       1.0  0.57879  0.83193  0.38997  1.0000
  C   C35       1.0  0.57409  0.53187  0.8512999999999998  1.0000
  C   C36       1.0  0.18509  0.11683999999999997  0.4494399999999999  1.0000
  C   C37       1.0  0.99041  0.89031  0.3112  1.0000
  C   C38       1.0  0.4037799999999999  0.29951  0.36913  1.0000
  C   C39       1.0  0.9763599999999999  0.09221  0.72895  1.0000
  C   C40       1.0  0.49721999999999994  0.8741  0.3546999999999999  1.0000
  C   C41       1.0  0.91532  0.35858  0.30202  1.0000
  C   C42       1.0  0.9166499999999999  0.47843  0.87197  1.0000
  C   C43       1.0  0.45496  0.09195000000000005  0.80722  1.0000
  C   C44       1.0  0.43303  0.85829  0.21454  1.0000
  C   C45       1.0  0.4778899999999999  0.14852  0.60446  1.0000
  C   C46       1.0  0.97242  0.37723000000000007  0.30623999999999996  1.0000
  C   C47       1.0  0.08039  0.35179  0.15770999999999996  1.0000
  C   C48       1.0  0.64445  0.20897  0.78143  1.0000
  C   C49       1.0  0.52494  0.5879500000000001  0.38922  1.0000
  C   C50       1.0  0.05877  0.9936600000000001  0.20428  1.0000
  C   C51       1.0  0.50955  0.39034  0.31131  1.0000
  C   C52       1.0  0.7988599999999999  0.75681  0.86719  1.0000
  C   C53       1.0  0.40117  0.04926  0.87044  1.0000
  C   C54       1.0  0.98034  0.43074  0.64802  1.0000
  C   C55       1.0  0.13377  0.55285  0.11203  1.0000
  C   C56       1.0  0.57048  0.6645  0.66639  1.0000
  C   C57       1.0  0.022179999999999995  0.6485399999999999  0.6044699999999998  1.0000
  C   C58       1.0  0.84739  0.9653199999999997  0.8470299999999998  1.0000
  C   C59       1.0  0.68524  0.38299  0.55057  1.0000
  C   C60       1.0  0.5832  0.97862  0.87193  1.0000
  C   C61       1.0  0.90114  0.45058  0.12936  1.0000
  C   C62       1.0  0.15564  0.28347  0.16167  1.0000
  C   C63       1.0  0.58855  0.002789999999999987  0.72695  1.0000
  C   C64       1.0  0.38039  0.10306999999999993  0.8979599999999998  1.0000
  C   C65       1.0  0.89787  0.34859  0.11905999999999997  1.0000
  C   C66       1.0  0.8189199999999999  0.88936  0.046179999999999985  1.0000
  C   C67       1.0  0.61267  0.58309  0.3371099999999999  1.0000
  C   C68       1.0  0.09958  0.3263  0.24373  1.0000
  C   C69       1.0  0.39572  0.19476  0.56688  1.0000
  C   C70       1.0  0.9340699999999998  0.3543200000000001  0.16432  1.0000
  C   C71       1.0  0.95486  0.40804999999999997  0.19270999999999996  1.0000
  C   C72       1.0  0.5886  0.54124  0.29419  1.0000
  C   C73       1.0  0.58032  0.14861  0.84252  1.0000
  C   C74       1.0  0.61502  0.46033  0.10700999999999998  1.0000
  C   C75       1.0  0.68097  0.38931  0.04610999999999999  1.0000
  C   C76       1.0  0.16066  0.61044  0.94561  1.0000
  C   C77       1.0  0.55892  0.50619  0.7958  1.0000
  C   C78       1.0  0.29967  0.74306  0.13261  1.0000
  C   C79       1.0  0.57645  0.47711000000000003  0.15078  1.0000
  C   C80       1.0  0.9677499999999999  0.022269999999999998  0.29695  1.0000
  C   C81       1.0  0.91142  0.04126  0.29417  1.0000
  C   C82       1.0  0.7984399999999999  0.9416300000000001  0.8739199999999999  1.0000
  C   C83       1.0  0.33934  0.11075999999999998  0.9454899999999999  1.0000
  C   C84       1.0  0.47256  0.12283  0.69384  1.0000
  C   C85       1.0  0.10267  0.8515900000000001  0.29240999999999995  1.0000
  C   C86       1.0  0.42124999999999996  0.16795999999999997  0.61008  1.0000
  C   C87       1.0  0.9236699999999999  0.9770999999999999  0.15075  1.0000
  C   C88       1.0  0.92613  0.031759999999999976  0.8513299999999999  1.0000
  C   C89       1.0  0.36195  0.55935  0.20839  1.0000
  C   C90       1.0  0.11394  0.13566999999999999  0.8813799999999999  1.0000
  C   C91       1.0  0.5323  0.52219  0.29696  1.0000
  C   C92       1.0  0.90748  0.96092  0.7661  1.0000
  C   C93       1.0  0.56586  0.85437  0.1643  1.0000
  C   C94       1.0  0.9038199999999998  0.20072  0.63091  1.0000
  C   C95       1.0  0.13877  0.7497300000000001  0.11045  1.0000
  C   C96       1.0  0.5014  0.54552  0.34639999999999993  1.0000
  C   C97       1.0  0.10843  0.55085  0.30094  1.0000
  C   C98       1.0  0.38597  0.63558  0.88131  1.0000
  C   C99       1.0  0.14396  0.2908  0.21854  1.0000
  C   C100      1.0  0.013449999999999998  0.8549000000000001  0.34221999999999997  1.0000
  C   C101      1.0  0.49054  0.60963  0.68869  1.0000
  C   C102      1.0  0.86182  0.9402  0.79144  1.0000
  C   C103      1.0  0.59716  0.85625  0.62668  1.0000
  C   C104      1.0  0.36416  0.5955599999999999  0.9084999999999999  1.0000
  C   C105      1.0  0.12489999999999998  0.31658  0.13222  1.0000
  C   C106      1.0  0.92516  0.41292  0.65867  1.0000
  C   C107      1.0  0.07624  0.02293999999999996  0.8492299999999998  1.0000
  C   C108      1.0  0.34425999999999995  0.78414  0.16191  1.0000
  C   C109      1.0  0.17843  0.35871  0.45319  1.0000
  C   C110      1.0  0.85593  0.70914  0.78136  1.0000
  C   C111      1.0  0.61022  0.83654  0.3432  1.0000
  C   C112      1.0  0.4239  0.52304  0.84934  1.0000
  C   C113      1.0  0.09257999999999998  0.79552  0.12722  1.0000
  C   C114      1.0  0.67857  0.1414  0.54686  1.0000
  C   C115      1.0  0.4342599999999999  0.14570999999999995  0.8357199999999998  1.0000
  C   C116      1.0  0.22594999999999998  0.16629  0.45235  1.0000
  C   C117      1.0  0.52765  0.87732  0.30639  1.0000
  C   C118      1.0  0.54525  0.90816  0.19284  1.0000
  C   C119      1.0  0.07386  0.96827  0.14870999999999998  1.0000
  C   C120      1.0  0.08465  0.64129  0.69792  1.0000
  C   C121      1.0  0.51355  0.64524  0.65782  1.0000
  C   C122      1.0  0.92022  0.11255999999999995  0.7381  1.0000
  C   C123      1.0  0.03385  0.47891  0.28424  1.0000
  C   C124      1.0  0.39433999999999997  0.34613000000000005  0.5692999999999999  1.0000
  C   C125      1.0  0.11015999999999998  0.66348  0.65687  1.0000
  C   C126      1.0  0.59273  0.46095999999999987  0.7659599999999999  1.0000
  C   C127      1.0  0.56259  0.95662  0.17535999999999993  1.0000
  C   C128      1.0  0.01953  0.56902  0.35209  1.0000
  C   C129      1.0  0.36050999999999994  0.24907000000000004  0.11033  1.0000
  C   C130      1.0  0.39783  0.15135999999999997  0.8808399999999998  1.0000
  C   C131      1.0  0.7015699999999999  0.44151999999999997  0.8739599999999998  1.0000
  C   C132      1.0  0.58102  0.60703  0.3851499999999999  1.0000
  C   C133      1.0  0.40798999999999996  0.53915  0.23356  1.0000
  C   C134      1.0  0.91966  0.64826  0.84229  1.0000
  C   C135      1.0  0.06564  0.64559  0.8358799999999998  1.0000
  C   C136      1.0  0.94377  0.93784  0.17975  1.0000
  C   C137      1.0  0.88983  0.33657000000000004  0.34319  1.0000
  C   C138      1.0  0.40019999999999994  0.82686  0.24394999999999997  1.0000
  C   C139      1.0  0.8641299999999998  0.9044  0.09151  1.0000
  C   C140      1.0  0.99865  0.04555000000000001  0.34641  1.0000
  C   C141      1.0  0.50286  0.12588  0.64537  1.0000
  C   C142      1.0  0.44133  0.49325  0.20438999999999996  1.0000
  C   C143      1.0  0.65542  0.21711999999999998  0.8385899999999998  1.0000
  C   C144      1.0  0.60221  0.8486700000000001  0.11912  1.0000
  C   C145      1.0  0.99723  0.62584  0.64528  1.0000
  C   C146      1.0  0.57475  0.9129499999999999  0.65873  1.0000
  C   C147      1.0  0.98638  0.14533  0.65786  1.0000
  C   C148      1.0  0.99943  0.51568  0.32393  1.0000
  C   C149      1.0  0.66069  0.88918  0.05444  1.0000
  C   C150      1.0  0.46784  0.47770999999999997  0.7030899999999999  1.0000
  C   C151      1.0  0.89571  0.30527  0.43321  1.0000
  C   C152      1.0  0.62541  0.18317  0.86779  1.0000
  C   C153      1.0  0.10431  0.69467  0.56684  1.0000
  C   C154      1.0  0.61961  0.89695  0.10195999999999997  1.0000
  C   C155      1.0  0.2741  0.6663000000000001  0.4524699999999999  1.0000
  C   C156      1.0  0.9325999999999999  0.64169  0.7854899999999999  1.0000
  C   C157      1.0  0.61395  0.36422  0.11846  1.0000
  C   C158      1.0  0.39142999999999994  0.05088  0.30084  1.0000
  C   C159      1.0  0.0703  0.83552  0.33356  1.0000
  C   C160      1.0  0.29842  0.55821  0.12597  1.0000
  C   C161      1.0  0.09889  0.5491  0.8702999999999997  1.0000
  C   C162      1.0  0.42958999999999997  0.3355  0.33353  1.0000
  C   C163      1.0  0.8914599999999999  0.44901999999999986  0.6991999999999999  1.0000
  C   C164      1.0  0.08835  0.49729  0.27299  1.0000
  C   C165      1.0  0.82151  0.64135  0.54679  1.0000
  C   C166      1.0  0.6194  0.51092  0.87711  1.0000
  C   C167      1.0  0.31493  0.61681  0.4494  1.0000
  C   C168      1.0  0.83925  0.38899000000000006  0.05448  1.0000
  C   C169      1.0  0.07953  0.8873200000000001  0.26176  1.0000
  C   C170      1.0  0.10559  0.84601  0.56939  1.0000
  C   C171      1.0  0.59339  0.70536  0.8727799999999999  1.0000
  C   C172      1.0  0.36578  0.053419999999999995  0.11211  1.0000
  C   C173      1.0  0.8943800000000001  0.154  0.43068  1.0000
  C   C174      1.0  0.63413  0.9464  0.8878799999999999  1.0000
  C   C175      1.0  0.38494  0.53955  0.89277  1.0000
  C   C176      1.0  0.09685  0.64371  0.37335  1.0000
  C   C177      1.0  0.06227  0.5434300000000002  0.8247  1.0000
  C   C178      1.0  0.88602  0.86434  0.11856999999999998  1.0000
  C   C179      1.0  0.70214  0.25638  0.86699  1.0000
  C   C180      1.0  0.87503  0.68335  0.86775  1.0000
  C   C181      1.0  0.1194  0.9889  0.12293999999999998  1.0000
  C   C182      1.0  0.41535999999999995  0.14135  0.69803  1.0000
  C   C183      1.0  0.41153  0.9972  0.27303  1.0000
  C   C184      1.0  0.40281  0.14365  0.37342  1.0000
  C   C185      1.0  0.4195  0.85245  0.15797  1.0000
  C   C186      1.0  0.05616999999999999  0.062200000000000026  0.82021  1.0000
  C   C187      1.0  0.42534  0.08702999999999998  0.34118999999999994  1.0000
  C   C188      1.0  0.7262699999999999  0.33367  0.54766  1.0000
  C   C189      1.0  0.41144  0.45882  0.7058899999999999  1.0000
  C   C190      1.0  0.63818  0.44000999999999996  0.79145  1.0000
  C   C191      1.0  0.38073  0.48862  0.12299  1.0000
  C   C192      1.0  0.89717  0.14860999999999996  0.70769  1.0000
  C   C193      1.0  0.20117  0.24318999999999996  0.13281  1.0000
  C   C194      1.0  0.07458  0.587  0.34124  1.0000
  C   C195      1.0  0.22683  0.3182999999999999  0.45639  1.0000
  C   C196      1.0  0.34759  0.53463  0.15269  1.0000
  C   C197      1.0  0.92123  0.33192  0.38995  1.0000
  C   C198      1.0  0.7739  0.83369  0.54761  1.0000
  C   C199      1.0  0.50056  0.01572  0.32406  1.0000
  C   C200      1.0  0.09612  0.79961  0.36913  1.0000
  C   C201      1.0  0.49871  0.45451  0.65359  1.0000
  C   C202      1.0  0.96607  0.52097  0.7157399999999999  1.0000
  C   C203      1.0  0.13585  0.09561999999999993  0.9084399999999998  1.0000
  C   C204      1.0  0.0013999999999999998  0.95452  0.65359  1.0000
  C   C205      1.0  0.7269799999999998  0.18180000000000002  0.54374  1.0000
  C   C206      1.0  0.52363  0.59214  0.72895  1.0000
  C   C207      1.0  0.90042  0.67376  0.7562099999999999  1.0000
  C   C208      1.0  0.38978999999999997  0.16347  0.65692  1.0000
  C   C209      1.0  0.08267  0.52087  0.12804  1.0000
  C   C210      1.0  0.09247999999999999  0.03908999999999999  0.23387999999999998  1.0000
  C   C211      1.0  0.57974  0.61258  0.73815  1.0000
  C   C212      1.0  0.32165  0.85875  0.45327  1.0000
  C   C213      1.0  0.20163999999999999  0.05833  0.12597  1.0000
  C   C214      1.0  0.59891  0.95081  0.12948  1.0000
  C   C215      1.0  0.41902999999999996  0.39303  0.61494  1.0000
  C   C216      1.0  0.31891  0.6103  0.95383  1.0000
  C   C217      1.0  0.06725  0.35821  0.21441999999999994  1.0000
  C   C218      1.0  0.11264  0.9169  0.66296  1.0000
  C   C219      1.0  0.08852999999999998  0.9588200000000001  0.70581  1.0000
  C   C220      1.0  0.44391  0.5620999999999999  0.82005  1.0000
  C   C221      1.0  0.00938  0.10965000000000001  0.68864  1.0000
  C   C222      1.0  0.9750799999999998  0.08797000000000002  0.38922  1.0000
  C   C223      1.0  0.03217  0.97778  0.70311  1.0000
  C   C224      1.0  0.4067  0.29475  0.1272  1.0000
  C   C225      1.0  0.13817  0.059779999999999986  0.20853999999999995  1.0000
  C   C226      1.0  0.94112  0.00638000000000001  0.79574  1.0000
  C   C227      1.0  0.88062  0.011109999999999986  0.8771  1.0000
  C   C228      1.0  0.00039  0.48426  0.67587  1.0000
  C   C229      1.0  0.9373099999999999  0.45648  0.17533  1.0000
  C   C230      1.0  0.41684  0.02135  0.12809  1.0000
  C   C231      1.0  0.4804899999999999  0.06918999999999997  0.35209999999999997  1.0000
  C   C232      1.0  0.91898  0.10701  0.38517  1.0000
  C   C233      1.0  0.86575  0.44610000000000005  0.88773  1.0000
  C   C234      1.0  0.18102  0.11062  0.9538099999999999  1.0000
  C   C235      1.0  0.56762  0.14178999999999997  0.78564  1.0000
  C   C236      1.0  0.35657  0.7904400000000001  0.21847  1.0000
  C   C237      1.0  0.37571999999999994  0.81634  0.13207  1.0000
  C   C238      1.0  0.60854  0.94907  0.69918  1.0000
  C   C239      1.0  0.02748  0.6227699999999999  0.6937199999999999  1.0000
  C   C240      1.0  0.88493  0.96042  0.10708999999999998  1.0000
  C   C241      1.0  0.42663  0.46847  0.14862  1.0000
  C   C242      1.0  0.02349  0.9079  0.27103  1.0000
  C   C243      1.0  0.04515000000000001  0.5918499999999999  0.8070699999999998  1.0000
  C   C244      1.0  0.39722  0.35151999999999994  0.29231  1.0000
  C   C245      1.0  0.08099  0.89302  0.61489  1.0000
  C   C246      1.0  0.59954  0.17413  0.75641  1.0000
  C   C247      1.0  0.91143  0.50278  0.72687  1.0000
  C   C248      1.0  0.55637  0.43773  0.17963  1.0000
  C   C249      1.0  0.46618  0.9789900000000001  0.28422  1.0000
  C   C250      1.0  0.60563  0.65401  0.43066  1.0000
  C   C251      1.0  0.59621  0.70057  0.63088  1.0000
  C   C252      1.0  0.53394  0.02104000000000003  0.71575  1.0000
  C   C253      1.0  0.58474  0.8586100000000001  0.30206  1.0000
  C   C254      1.0  0.97778  0.35151999999999994  0.39551  1.0000
  C   C255      1.0  0.11951000000000002  0.60284  0.8980799999999999  1.0000
  C   C256      1.0  0.57563  0.38103000000000004  0.16308  1.0000
  O   O1        1.0  0.77371  0.36357  0.9433299999999999  1.0000
  O   O2        1.0  0.24982  0.79182  0.41068  1.0000
  O   O3        1.0  0.43076  0.20202  0.52926  1.0000
  O   O4        1.0  0.28868  0.7438300000000001  0.08274  1.0000
  O   O5        1.0  0.14709  0.60063  0.14571  1.0000
  O   O6        1.0  0.93585  0.3269700000000001  0.5897  1.0000
  O   O7        1.0  0.65743  0.66802  0.4257799999999999  1.0000
  O   O8        1.0  0.07122  0.82285  0.53015  1.0000
  O   O9        1.0  0.2324  0.09746  0.1569  1.0000
  O   O10       1.0  0.43651  0.17282  0.41012999999999994  1.0000
  O   O11       1.0  0.83616  0.25335  0.9364199999999998  1.0000
  O   O12       1.0  0.06944  0.7020800000000001  0.52927  1.0000
  O   O13       1.0  0.17984  0.6609  0.9630599999999998  1.0000
  O   O14       1.0  0.66378  0.75313  0.9362599999999999  1.0000
  O   O15       1.0  0.34869999999999995  0.21669000000000002  0.14278  1.0000
  O   O16       1.0  0.35262  0.15869  0.36162  1.0000
  O   O17       1.0  0.75879  0.8218  0.59328  1.0000
  O   O18       1.0  0.72613  0.86401  0.9433399999999997  1.0000
  O   O19       1.0  0.727  0.28802999999999995  0.8391999999999997  1.0000
  O   O20       1.0  0.34321  0.20782  0.57148  1.0000
  O   O21       1.0  0.7568099999999999  0.80772  0.49943  1.0000
  O   O22       1.0  0.70794  0.46085  0.92637  1.0000
  O   O23       1.0  0.85402  0.22256  0.6438  1.0000
  O   O24       1.0  0.56381  0.8270500000000001  0.5897899999999999  1.0000
  O   O25       1.0  0.34254  0.33198000000000005  0.57436  1.0000
  O   O26       1.0  0.74119  0.74006  0.01402  1.0000
  O   O27       1.0  0.8055499999999999  0.83725  0.02668999999999999  1.0000
  O   O28       1.0  0.2474  0.27493  0.60229  1.0000
  O   O29       1.0  0.9304599999999998  0.29783  0.47086  1.0000
  O   O30       1.0  0.20171999999999998  0.06853999999999992  0.9700399999999998  1.0000
  O   O31       1.0  0.6461  0.7223  0.6436  1.0000
  O   O32       1.0  0.32773  0.06713  0.96336  1.0000
  O   O33       1.0  0.33631  0.24681  0.06373  1.0000
  O   O34       1.0  0.84781  0.28301  0.85699  1.0000
  O   O35       1.0  0.2738  0.13582  0.056549999999999996  1.0000
  O   O36       1.0  0.57134  0.6772  0.46995  1.0000
  O   O37       1.0  0.74319  0.3077  0.49941  1.0000
  O   O38       1.0  0.8404599999999999  0.46907  0.93316  1.0000
  O   O39       1.0  0.20781  0.03923  0.07343  1.0000
  O   O40       1.0  0.3059  0.66249  0.9733  1.0000
  O   O41       1.0  0.34766  0.24611999999999998  0.46915999999999997  1.0000
  O   O42       1.0  0.25959  0.8138100000000001  0.5047  1.0000
  O   O43       1.0  0.74954  0.7081800000000001  0.58945  1.0000
  O   O44       1.0  0.14707  0.65891  0.36202  1.0000
  O   O45       1.0  0.32002  0.16123999999999994  0.9631799999999999  1.0000
  O   O46       1.0  0.77358  0.78857  0.8392599999999998  1.0000
  O   O47       1.0  0.56573  0.70657  0.59035  1.0000
  O   O48       1.0  0.92863  0.17725  0.46997  1.0000
  O   O49       1.0  0.22648  0.21144  0.16072  1.0000
  O   O50       1.0  0.25678  0.69214  0.50056  1.0000
  O   O51       1.0  0.76774  0.90243  0.8430099999999999  1.0000
  O   O52       1.0  0.34053  0.030900000000000004  0.06652  1.0000
  O   O53       1.0  0.25877  0.6779200000000001  0.40663999999999995  1.0000
  O   O54       1.0  0.25224  0.7747699999999998  0.60175  1.0000
  O   O55       1.0  0.82792  0.43254  0.03653  1.0000
  O   O56       1.0  0.65672  0.7920400000000001  0.4285999999999999  1.0000
  O   O57       1.0  0.29172  0.53897  0.07348  1.0000
  O   O58       1.0  0.21067  0.24189  0.08218  1.0000
  O   O59       1.0  0.00641  0.24850999999999998  0.5274099999999999  1.0000
  O   O60       1.0  0.67215  0.93283  0.03646  1.0000
  O   O61       1.0  0.1632  0.74681  0.06378  1.0000
  O   O62       1.0  0.65241  0.7538500000000001  0.53089  1.0000
  O   O63       1.0  0.23065  0.47894000000000003  0.98488  1.0000
  O   O64       1.0  0.43444  0.29351999999999995  0.40960999999999986  1.0000
  O   O65       1.0  0.49361  0.74853  0.5274099999999999  1.0000
  O   O66       1.0  0.7695  0.52271  0.01631  1.0000
  O   O67       1.0  0.7473200000000001  0.22498  0.39766999999999997  1.0000
  O   O68       1.0  0.27486  0.70995  0.15977999999999998  1.0000
  O   O69       1.0  0.78948  0.75823  0.91785  1.0000
  O   O70       1.0  0.19437  0.16274  0.97325  1.0000
  O   O71       1.0  0.99375  0.75143  0.47279  1.0000
  O   O72       1.0  0.75061  0.20818  0.58957  1.0000
  O   O73       1.0  0.65158  0.78318  0.85706  1.0000
  O   O74       1.0  0.74177  0.32189999999999996  0.59328  1.0000
  O   O75       1.0  0.84763  0.25367  0.5308999999999999  1.0000
  O   O76       1.0  0.65955  0.9692200000000002  0.93328  1.0000
  O   O77       1.0  0.7526  0.7250400000000001  0.3979  1.0000
  O   O78       1.0  0.8433299999999999  0.29203  0.42859  1.0000
  O   O79       1.0  0.25038  0.29188  0.41047  1.0000
  O   O80       1.0  0.6945499999999999  0.33728  0.02655  1.0000
  O   O81       1.0  0.68001  0.8387000000000001  0.03679  1.0000
  O   O82       1.0  0.15034  0.71722  0.14291  1.0000
  O   O83       1.0  0.15734  0.83195  0.57426  1.0000
  O   O84       1.0  0.26659  0.59596  0.15703  1.0000
  O   O85       1.0  0.64736  0.84125  0.63832  1.0000
  O   O86       1.0  0.29771  0.568  0.96935  1.0000
  O   O87       1.0  0.24105999999999997  0.76032  0.9856199999999998  1.0000
  O   O88       1.0  0.56952  0.79786  0.47083  1.0000
  O   O89       1.0  0.24108  0.17804  0.40652999999999995  1.0000
  O   O90       1.0  0.9342  0.20643  0.5902  1.0000
  O   O91       1.0  0.73218  0.40214  0.84329  1.0000
  O   O92       1.0  0.7595599999999999  0.68629  0.49541  1.0000
  O   O93       1.0  0.15668  0.7078500000000001  0.57142  1.0000
  O   O94       1.0  0.15969  0.5312  0.06671  1.0000
  O   O95       1.0  0.73059  0.02249  0.01602  1.0000
  O   O96       1.0  0.17272999999999997  0.56677  0.96337  1.0000
  O   O97       1.0  0.26941  0.9775600000000001  0.98369  1.0000
  O   O98       1.0  0.4289  0.32286  0.53016  1.0000
  O   O99       1.0  0.06567  0.79332  0.40953999999999996  1.0000
  O   O100      1.0  0.75859  0.23994000000000001  0.01281  1.0000
  O   O101      1.0  0.06342  0.67284  0.41019  1.0000
  O   O102      1.0  0.35195999999999994  0.10123000000000001  0.14561  1.0000
  O   O103      1.0  0.25892  0.25992999999999994  0.9858999999999999  1.0000
  O   O104      1.0  0.35386  0.2777300000000001  0.35624  1.0000
  O   O105      1.0  0.14617  0.77812  0.35672  1.0000
  O   O106      1.0  0.8197099999999999  0.33855  0.03693  1.0000
  O   O107      1.0  0.7404999999999999  0.18628999999999998  0.4954899999999999  1.0000
  O   O108      1.0  0.22648  0.63452  0.0565  1.0000
  O   O109      1.0  0.50646  0.2515899999999999  0.47280999999999995  1.0000
  O   O110      1.0  0.24034  0.31379999999999997  0.50467  1.0000
  O   O111      1.0  0.7016  0.43128  0.029709999999999997  1.0000
  O   O112      1.0  0.64783  0.89854  0.8544  1.0000
  O   O113      1.0  0.7107700000000001  0.25815  0.91772  1.0000
  O   O114      1.0  0.24315  0.19214999999999996  0.5005799999999999  1.0000
  O   O115      1.0  0.8425899999999998  0.16802999999999996  0.4257799999999999  1.0000
  O   O116      1.0  0.15214  0.7459399999999999  0.46906  1.0000
  O   O117      1.0  0.7922  0.9608800000000002  0.92642  1.0000
  O   O118      1.0  0.85251  0.34136  0.63845  1.0000
  O   O119      1.0  0.85237  0.398  0.8545  1.0000
  O   O120      1.0  0.79834  0.93143  0.02977  1.0000
