data_image0
_chemical_formula_structural       Gd4Zn38H108C108N144Cl16O72
_chemical_formula_sum              "Gd4 Zn38 H108 C108 N144 Cl16 O72"
_cell_length_a       18.32479
_cell_length_b       18.29834
_cell_length_c       24.205610000000004
_cell_angle_alpha    89.96703999999998
_cell_angle_beta     90.04915000000001
_cell_angle_gamma    120.27421000000001

_symmetry_space_group_name_H-M    'P 1'
_symmetry_Int_Tables_number       1

loop_
  _symmetry_equiv_pos_as_xyz
  'x,y,z'

loop_
  _atom_site_type_symbol
  _atom_site_label
  _atom_site_symmetry_multiplicity
  _atom_site_fract_x
  _atom_site_fract_y
  _atom_site_fract_z
  _atom_site_occupancy
  Gd  Gd1       1.0  2.999999999993605e-05  0.9997899999999998  0.8729499999999998  1.0000
  Gd  Gd2       1.0  0.00017000000000005766  0.99999  0.37294  1.0000
  Gd  Gd3       1.0  9.99999999994637e-06  0.9997899999999998  0.64065  1.0000
  Gd  Gd4       1.0  0.00022999999999992978  0.9997399999999999  0.14063  1.0000
  Zn  Zn1       1.0  0.00026999999999999393  0.21098  0.85892  1.0000
  Zn  Zn2       1.0  0.9999  0.33373  0.08982999999999997  1.0000
  Zn  Zn3       1.0  0.21113  0.9998199999999999  0.85898  1.0000
  Zn  Zn4       1.0  0.3348499999999999  0.9999699999999999  0.08993999999999999  1.0000
  Zn  Zn5       1.0  0.7892500000000001  0.7886599999999998  0.85899  1.0000
  Zn  Zn6       1.0  0.6654700000000001  0.6663  0.09002999999999999  1.0000
  Zn  Zn7       1.0  0.9998400000000001  0.78871  0.35896  1.0000
  Zn  Zn8       1.0  0.0004499999999999132  0.6648699999999997  0.58998  1.0000
  Zn  Zn9       1.0  0.78921  7.999999999999997e-05  0.359  1.0000
  Zn  Zn10      1.0  0.6655500000000001  0.00013000000000000002  0.58986  1.0000
  Zn  Zn11      1.0  0.21088  0.21133  0.35898  1.0000
  Zn  Zn12      1.0  0.33458  0.33382  0.58999  1.0000
  Zn  Zn13      1.0  0.7888099999999999  0.7885699999999998  0.64072  1.0000
  Zn  Zn14      1.0  0.66528  0.6661399999999997  0.40989  1.0000
  Zn  Zn15      1.0  0.21120999999999995  0.9998199999999999  0.64106  1.0000
  Zn  Zn16      1.0  0.3346099999999999  0.9998799999999999  0.41009999999999996  1.0000
  Zn  Zn17      1.0  0.9999899999999998  0.21127999999999994  0.64258  1.0000
  Zn  Zn18      1.0  7.999999999998294e-05  0.33398  0.4102  1.0000
  Zn  Zn19      1.0  0.21139000000000005  0.21121  0.14083  1.0000
  Zn  Zn20      1.0  0.3347399999999999  0.3338699999999999  0.9099199999999998  1.0000
  Zn  Zn21      1.0  0.78901  0.00020000000000000004  0.14251  1.0000
  Zn  Zn22      1.0  0.66549  6.000000000000004e-05  0.9101899999999999  1.0000
  Zn  Zn23      1.0  0.9999199999999999  0.7884599999999998  0.1413  1.0000
  Zn  Zn24      1.0  0.0  0.6661999999999998  0.91006  1.0000
  Zn  Zn25      1.0  0.9999399999999999  0.4996199999999999  0.9991999999999999  1.0000
  Zn  Zn26      1.0  0.50164  3e-05  0.00102  1.0000
  Zn  Zn27      1.0  0.5016799999999999  0.4999099999999999  0.99905  1.0000
  Zn  Zn28      1.0  0.00019999999999994526  0.4996299999999999  0.50099  1.0000
  Zn  Zn29      1.0  0.50152  0.0  0.49897  1.0000
  Zn  Zn30      1.0  0.49913  0.49973  0.49918  1.0000
  Zn  Zn31      1.0  0.66796  0.3342699999999999  0.11803  1.0000
  Zn  Zn32      1.0  0.33368999999999993  0.6661399999999997  0.61803  1.0000
  Zn  Zn33      1.0  0.33421999999999996  0.66689  0.38192  1.0000
  Zn  Zn34      1.0  0.6656100000000001  0.3329  0.8819  1.0000
  Zn  Zn35      1.0  0.33183  0.6660499999999998  0.88193  1.0000
  Zn  Zn36      1.0  0.6686100000000001  0.334  0.38189  1.0000
  Zn  Zn37      1.0  0.66564  0.3328799999999999  0.61805  1.0000
  Zn  Zn38      1.0  0.3343899999999999  0.6668499999999998  0.11807  1.0000
  H   H1        1.0  0.8273899999999998  0.4838399999999999  0.06389  1.0000
  H   H2        1.0  0.7681800000000001  0.24593999999999994  0.18095  1.0000
  H   H3        1.0  0.83357  0.22365  0.14673  1.0000
  H   H4        1.0  0.65917  0.17396  0.06729  1.0000
  H   H5        1.0  0.47995000000000004  0.24207  0.17626  1.0000
  H   H6        1.0  0.39002  0.16671999999999995  0.14644  1.0000
  H   H7        1.0  0.5172800000000001  0.3421399999999999  0.06481  1.0000
  H   H8        1.0  0.7628800000000002  0.52072  0.17605  1.0000
  H   H9        1.0  0.7774000000000001  0.61139  0.14772  1.0000
  H   H10       1.0  0.1734899999999999  0.5159199999999998  0.56455  1.0000
  H   H11       1.0  0.23379  0.75525  0.68079  1.0000
  H   H12       1.0  0.16739999999999988  0.7766899999999998  0.64671  1.0000
  H   H13       1.0  0.3418700000000001  0.82585  0.56631  1.0000
  H   H14       1.0  0.5213  0.7607599999999998  0.67737  1.0000
  H   H15       1.0  0.61081  0.83374  0.6464  1.0000
  H   H16       1.0  0.48411000000000004  0.6576499999999997  0.56533  1.0000
  H   H17       1.0  0.23772999999999994  0.4794099999999999  0.67589  1.0000
  H   H18       1.0  0.22337000000000004  0.38876  0.64779  1.0000
  H   H19       1.0  0.34215999999999996  0.5159499999999998  0.43447  1.0000
  H   H20       1.0  0.5208499999999999  0.7624699999999998  0.32368  1.0000
  H   H21       1.0  0.6109  0.77728  0.35269  1.0000
  H   H22       1.0  0.48429999999999995  0.82689  0.43499  1.0000
  H   H23       1.0  0.24510999999999986  0.7674599999999998  0.31927  1.0000
  H   H24       1.0  0.22326999999999989  0.8329799999999998  0.35406  1.0000
  H   H25       1.0  0.17453000000000005  0.65906  0.43376  1.0000
  H   H26       1.0  0.24103999999999998  0.4794599999999999  0.32367  1.0000
  H   H27       1.0  0.16644  0.3894299999999999  0.35389  1.0000
  H   H28       1.0  0.65784  0.4834799999999999  0.9345799999999997  1.0000
  H   H29       1.0  0.47884  0.23675  0.82403  1.0000
  H   H30       1.0  0.3886099999999999  0.22204999999999994  0.85288  1.0000
  H   H31       1.0  0.51604  0.17273999999999995  0.9358299999999999  1.0000
  H   H32       1.0  0.75364  0.23088999999999996  0.81888  1.0000
  H   H33       1.0  0.7762700000000002  0.16648999999999994  0.85429  1.0000
  H   H34       1.0  0.8259499999999999  0.34044  0.9327899999999999  1.0000
  H   H35       1.0  0.7578500000000002  0.51985  0.82378  1.0000
  H   H36       1.0  0.83288  0.60995  0.85365  1.0000
  H   H37       1.0  0.17224000000000006  0.51531  0.9348  1.0000
  H   H38       1.0  0.23124  0.75451  0.81893  1.0000
  H   H39       1.0  0.16690999999999995  0.7770599999999999  0.8541199999999999  1.0000
  H   H40       1.0  0.34132000000000007  0.8262  0.93369  1.0000
  H   H41       1.0  0.5205299999999999  0.7624799999999998  0.82187  1.0000
  H   H42       1.0  0.6096399999999998  0.8330099999999998  0.85414  1.0000
  H   H43       1.0  0.48426  0.65897  0.93412  1.0000
  H   H44       1.0  0.23658  0.4792  0.8246  1.0000
  H   H45       1.0  0.22297  0.38889  0.85295  1.0000
  H   H46       1.0  0.82767  0.48417  0.43584  1.0000
  H   H47       1.0  0.7698000000000002  0.24671  0.31886  1.0000
  H   H48       1.0  0.8335  0.22331  0.3541599999999999  1.0000
  H   H49       1.0  0.65933  0.17356  0.4325399999999999  1.0000
  H   H50       1.0  0.47948  0.23822  0.32199  1.0000
  H   H51       1.0  0.39052  0.16711  0.35405  1.0000
  H   H52       1.0  0.51615  0.34087  0.43393  1.0000
  H   H53       1.0  0.76391  0.52107  0.32464  1.0000
  H   H54       1.0  0.7772600000000001  0.61121  0.35306  1.0000
  H   H55       1.0  0.65769  0.48313  0.56448  1.0000
  H   H56       1.0  0.47943  0.23676999999999995  0.6757899999999999  1.0000
  H   H57       1.0  0.38893  0.22279999999999994  0.64775  1.0000
  H   H58       1.0  0.51622  0.17279  0.56407  1.0000
  H   H59       1.0  0.75405  0.23157  0.68121  1.0000
  H   H60       1.0  0.77617  0.16643999999999995  0.64641  1.0000
  H   H61       1.0  0.82611  0.34071  0.5673  1.0000
  H   H62       1.0  0.75951  0.52006  0.67699  1.0000
  H   H63       1.0  0.83316  0.60999  0.6466  1.0000
  H   H64       1.0  0.3420599999999999  0.5157099999999998  0.06513  1.0000
  H   H65       1.0  0.52054  0.7624399999999998  0.17588999999999996  1.0000
  H   H66       1.0  0.6108199999999999  0.7762799999999997  0.14786  1.0000
  H   H67       1.0  0.48400000000000004  0.82665  0.06465  1.0000
  H   H68       1.0  0.2450499999999999  0.7664199999999998  0.18068  1.0000
  H   H69       1.0  0.2236299999999999  0.8328599999999998  0.14661  1.0000
  H   H70       1.0  0.17451  0.65859  0.06644  1.0000
  H   H71       1.0  0.23801  0.47853  0.17796  1.0000
  H   H72       1.0  0.16623999999999994  0.38923999999999986  0.14644  1.0000
  H   H73       1.0  0.99847  0.21029  0.98991  1.0000
  H   H74       1.0  0.98921  0.4443  0.87303  1.0000
  H   H75       1.0  0.97797  0.35941  0.83701  1.0000
  H   H76       1.0  0.21112999999999996  0.9983699999999999  0.9899499999999999  1.0000
  H   H77       1.0  0.4452299999999999  0.9895599999999998  0.8735599999999999  1.0000
  H   H78       1.0  0.3605299999999999  0.9780399999999998  0.83722  1.0000
  H   H79       1.0  0.78691  0.7907  0.98939  1.0000
  H   H80       1.0  0.5453200000000001  0.55442  0.87276  1.0000
  H   H81       1.0  0.62241  0.63605  0.8366199999999999  1.0000
  H   H82       1.0  0.001619999999999891  0.7891699999999998  0.48994  1.0000
  H   H83       1.0  0.01072999999999989  0.5547499999999997  0.3736499999999999  1.0000
  H   H84       1.0  0.021870000000000007  0.63938  0.33727  1.0000
  H   H85       1.0  0.7894700000000001  0.0013499999999999994  0.48997999999999997  1.0000
  H   H86       1.0  0.5555800000000001  0.010189999999999996  0.37294999999999995  1.0000
  H   H87       1.0  0.64061  0.02208  0.33689  1.0000
  H   H88       1.0  0.21331999999999998  0.20889999999999995  0.48937  1.0000
  H   H89       1.0  0.45505  0.4453299999999999  0.37277  1.0000
  H   H90       1.0  0.37847  0.3632299999999999  0.33665  1.0000
  H   H91       1.0  0.7884900000000001  0.78823  0.51037  1.0000
  H   H92       1.0  0.54759  0.54521  0.62842  1.0000
  H   H93       1.0  0.6299999999999998  0.6270099999999997  0.66607  1.0000
  H   H94       1.0  0.21140999999999996  0.9986399999999999  0.50986  1.0000
  H   H95       1.0  0.44509999999999994  0.9894899999999998  0.62672  1.0000
  H   H96       1.0  0.3602799999999999  0.9775899999999997  0.66299  1.0000
  H   H97       1.0  0.9988900000000001  0.21067999999999995  0.51018  1.0000
  H   H98       1.0  0.98984  0.44446999999999987  0.62726  1.0000
  H   H99       1.0  0.9774100000000001  0.35904999999999987  0.6633  1.0000
  H   H100      1.0  0.21067  0.21332  0.01051  1.0000
  H   H101      1.0  0.44681  0.45499  0.12736  1.0000
  H   H102      1.0  0.36628999999999995  0.3779899999999999  0.16361  1.0000
  H   H103      1.0  0.7891900000000001  0.0010899999999999996  0.01011  1.0000
  H   H104      1.0  0.55589  0.01025  0.12717  1.0000
  H   H105      1.0  0.64103  0.022609999999999995  0.16336  1.0000
  H   H106      1.0  0.0010899999999998736  0.7888399999999998  0.01006  1.0000
  H   H107      1.0  0.010319999999999909  0.5545799999999997  0.12673  1.0000
  H   H108      1.0  0.02238999999999998  0.63968  0.16301  1.0000
  C   C1        1.0  0.8470300000000002  0.04873  0.89121  1.0000
  C   C2        1.0  0.82433  0.31972  0.11449999999999999  1.0000
  C   C3        1.0  0.83755  0.43232  0.07515  1.0000
  C   C4        1.0  0.20077  0.15206999999999996  0.8934199999999999  1.0000
  C   C5        1.0  0.49631000000000003  0.17633999999999994  0.11488  1.0000
  C   C6        1.0  0.5971000000000001  0.16326999999999994  0.07794  1.0000
  C   C7        1.0  0.9517099999999997  0.7985099999999998  0.89256  1.0000
  C   C8        1.0  0.68193  0.5054  0.11418  1.0000
  C   C9        1.0  0.56878  0.40439  0.07572  1.0000
  C   C10       1.0  0.15305999999999986  0.9511899999999998  0.39121  1.0000
  C   C11       1.0  0.17679999999999996  0.6804799999999998  0.61486  1.0000
  C   C12       1.0  0.16364  0.56763  0.57587  1.0000
  C   C13       1.0  0.79948  0.8479  0.39338  1.0000
  C   C14       1.0  0.50464  0.82395  0.61463  1.0000
  C   C15       1.0  0.40399  0.8368  0.57715  1.0000
  C   C16       1.0  0.0483  0.20125  0.39256  1.0000
  C   C17       1.0  0.31886  0.4946699999999999  0.61425  1.0000
  C   C18       1.0  0.4325299999999999  0.5954599999999998  0.5762  1.0000
  C   C19       1.0  0.7999699999999997  0.9517299999999997  0.60776  1.0000
  C   C20       1.0  0.50496  0.68144  0.38575  1.0000
  C   C21       1.0  0.40429  0.5676399999999998  0.42375  1.0000
  C   C22       1.0  0.04864  0.84737  0.60906  1.0000
  C   C23       1.0  0.31976000000000004  0.82374  0.38536  1.0000
  C   C24       1.0  0.4326299999999999  0.8368499999999998  0.4239899999999999  1.0000
  C   C25       1.0  0.15041  0.19904  0.60619  1.0000
  C   C26       1.0  0.17626000000000006  0.49584  0.38559  1.0000
  C   C27       1.0  0.16363  0.59681  0.42298  1.0000
  C   C28       1.0  0.20032  0.04829  0.10735  1.0000
  C   C29       1.0  0.49469  0.31801  0.8858499999999999  1.0000
  C   C30       1.0  0.5957000000000001  0.43179  0.92377  1.0000
  C   C31       1.0  0.95084  0.15176  0.10991  1.0000
  C   C32       1.0  0.68023  0.1761  0.88564  1.0000
  C   C33       1.0  0.56773  0.16291999999999995  0.92475  1.0000
  C   C34       1.0  0.84922  0.8006799999999997  0.10628999999999998  1.0000
  C   C35       1.0  0.82355  0.50366  0.88526  1.0000
  C   C36       1.0  0.83663  0.4026599999999999  0.9221999999999999  1.0000
  C   C37       1.0  0.15216999999999983  0.9508999999999997  0.10894  1.0000
  C   C38       1.0  0.17577000000000007  0.68034  0.88534  1.0000
  C   C39       1.0  0.16234999999999986  0.5671299999999998  0.9239699999999997  1.0000
  C   C40       1.0  0.8013  0.84951  0.10617  1.0000
  C   C41       1.0  0.50363  0.8232199999999997  0.88568  1.0000
  C   C42       1.0  0.40329  0.8366399999999998  0.92298  1.0000
  C   C43       1.0  0.04824  0.20008  0.10776  1.0000
  C   C44       1.0  0.3189399999999999  0.4952499999999999  0.88574  1.0000
  C   C45       1.0  0.43292  0.59665  0.92316  1.0000
  C   C46       1.0  0.8484  0.04914  0.60994  1.0000
  C   C47       1.0  0.82463  0.3198899999999999  0.38566  1.0000
  C   C48       1.0  0.8377799999999999  0.4325999999999999  0.42475  1.0000
  C   C49       1.0  0.19877  0.15068  0.60629  1.0000
  C   C50       1.0  0.49663000000000007  0.17676  0.3854  1.0000
  C   C51       1.0  0.59726  0.16314999999999993  0.4221099999999999  1.0000
  C   C52       1.0  0.9513200000000002  0.79934  0.60736  1.0000
  C   C53       1.0  0.68151  0.50478  0.38576  1.0000
  C   C54       1.0  0.56752  0.4032399999999999  0.42305  1.0000
  C   C55       1.0  0.20201  0.04886999999999998  0.39238  1.0000
  C   C56       1.0  0.49483  0.31832  0.61417  1.0000
  C   C57       1.0  0.59557  0.43179999999999996  0.57572  1.0000
  C   C58       1.0  0.9509000000000001  0.15263999999999994  0.39112  1.0000
  C   C59       1.0  0.6803400000000001  0.17612  0.61459  1.0000
  C   C60       1.0  0.5678600000000001  0.16291  0.57527  1.0000
  C   C61       1.0  0.84793  0.79937  0.39332999999999996  1.0000
  C   C62       1.0  0.82351  0.50379  0.61481  1.0000
  C   C63       1.0  0.83667  0.40286  0.57794  1.0000
  C   C64       1.0  0.7981599999999999  0.9510499999999997  0.89238  1.0000
  C   C65       1.0  0.50492  0.6808899999999998  0.11427999999999999  1.0000
  C   C66       1.0  0.4042499999999999  0.5670099999999998  0.07624  1.0000
  C   C67       1.0  0.049129999999999896  0.8471699999999998  0.89115  1.0000
  C   C68       1.0  0.31987999999999994  0.8236699999999999  0.11486  1.0000
  C   C69       1.0  0.43251999999999996  0.8367299999999998  0.07594  1.0000
  C   C70       1.0  0.15224999999999997  0.20056999999999994  0.89335  1.0000
  C   C71       1.0  0.17656999999999995  0.4955199999999999  0.11453  1.0000
  C   C72       1.0  0.16368999999999995  0.59636  0.0772  1.0000
  C   C73       1.0  0.9522900000000001  0.22391999999999995  0.75028  1.0000
  C   C74       1.0  0.26242  0.04914  0.7500299999999999  1.0000
  C   C75       1.0  0.78322  0.73379  0.74982  1.0000
  C   C76       1.0  0.0478099999999999  0.7760799999999998  0.25008  1.0000
  C   C77       1.0  0.7372700000000002  0.95071  0.25027  1.0000
  C   C78       1.0  0.21610999999999994  0.2658599999999999  0.24979999999999997  1.0000
  C   C79       1.0  0.73297  0.7816599999999998  0.74996  1.0000
  C   C80       1.0  0.22332000000000002  0.95118  0.7499899999999999  1.0000
  C   C81       1.0  0.050269999999999954  0.2632899999999999  0.7503399999999999  1.0000
  C   C82       1.0  0.26707  0.21876  0.24996  1.0000
  C   C83       1.0  0.7762100000000001  0.04873  0.25022  1.0000
  C   C84       1.0  0.9499300000000002  0.73711  0.25011  1.0000
  C   C85       1.0  0.99976  0.26601  0.97377  1.0000
  C   C86       1.0  0.0015799999999999601  0.3580399999999999  0.91782  1.0000
  C   C87       1.0  0.26674000000000003  0.99957  0.9738899999999998  1.0000
  C   C88       1.0  0.3586900000000001  0.0013899999999999995  0.91812  1.0000
  C   C89       1.0  0.7330200000000001  0.73396  0.97346  1.0000
  C   C90       1.0  0.64446  0.6395399999999998  0.91782  1.0000
  C   C91       1.0  0.00034999999999996476  0.73339  0.4739499999999999  1.0000
  C   C92       1.0  0.9985799999999997  0.6412599999999998  0.4181499999999999  1.0000
  C   C93       1.0  0.7339200000000001  0.00018999999999999998  0.4738  1.0000
  C   C94       1.0  0.64213  0.99842  0.41774  1.0000
  C   C95       1.0  0.26682  0.266  0.4735  1.0000
  C   C96       1.0  0.35580000000000006  0.36006  0.41788  1.0000
  C   C97       1.0  0.73316  0.73277  0.52629  1.0000
  C   C98       1.0  0.64119  0.6411999999999998  0.58196  1.0000
  C   C99       1.0  0.26694000000000007  0.9998299999999999  0.52613  1.0000
  C   C100      1.0  0.35867  0.0014599999999999995  0.58216  1.0000
  C   C101      1.0  0.99999  0.26612  0.52663  1.0000
  C   C102      1.0  0.0016499999999999967  0.35787  0.58266  1.0000
  C   C103      1.0  0.26665  0.2679799999999999  0.026539999999999998  1.0000
  C   C104      1.0  0.36096000000000006  0.35674  0.08224  1.0000
  C   C105      1.0  0.73384  0.9999499999999999  0.02658  1.0000
  C   C106      1.0  0.64235  0.9983199999999999  0.08269  1.0000
  C   C107      1.0  0.9999600000000001  0.7332099999999998  0.02626  1.0000
  C   C108      1.0  0.99848  0.6413  0.08219  1.0000
  N   N1        1.0  0.9021  0.4248499999999999  0.05885  1.0000
  N   N2        1.0  0.78539  0.36726  0.11  1.0000
  N   N3        1.0  0.89471  0.3536699999999999  0.08434999999999998  1.0000
  N   N4        1.0  0.7915400000000004  0.24489  0.14306  1.0000
  N   N5        1.0  0.52524  0.09694  0.06231999999999999  1.0000
  N   N6        1.0  0.5833  0.21623999999999993  0.11111  1.0000
  N   N7        1.0  0.46064  0.10434999999999997  0.08613  1.0000
  N   N8        1.0  0.45318  0.20892999999999995  0.14118  1.0000
  N   N9        1.0  0.57501  0.47623  0.060009999999999994  1.0000
  N   N10       1.0  0.63488  0.4182999999999999  0.10982  1.0000
  N   N11       1.0  0.64642  0.54105  0.08493  1.0000
  N   N12       1.0  0.7574099999999999  0.5486699999999998  0.14132  1.0000
  N   N13       1.0  0.09866999999999992  0.5746099999999997  0.55984  1.0000
  N   N14       1.0  0.21604000000000007  0.63317  0.61039  1.0000
  N   N15       1.0  0.10598999999999988  0.6458399999999997  0.58508  1.0000
  N   N16       1.0  0.2095099999999999  0.7555599999999998  0.64307  1.0000
  N   N17       1.0  0.47589999999999993  0.9028699999999997  0.56131  1.0000
  N   N18       1.0  0.41773  0.78417  0.61081  1.0000
  N   N19       1.0  0.54036  0.89558  0.58555  1.0000
  N   N20       1.0  0.54759  0.7912999999999998  0.64141  1.0000
  N   N21       1.0  0.42623  0.52353  0.56065  1.0000
  N   N22       1.0  0.36621  0.58176  0.60992  1.0000
  N   N23       1.0  0.35437  0.45889999999999986  0.5852  1.0000
  N   N24       1.0  0.2433599999999999  0.45145999999999986  0.64125  1.0000
  N   N25       1.0  0.47609  0.57437  0.43979  1.0000
  N   N26       1.0  0.41801  0.6338  0.38971  1.0000
  N   N27       1.0  0.54066  0.64627  0.4152499999999999  1.0000
  N   N28       1.0  0.5481800000000001  0.75718  0.35875999999999997  1.0000
  N   N29       1.0  0.4254899999999998  0.9016199999999998  0.44045  1.0000
  N   N30       1.0  0.3672  0.78461  0.38943  1.0000
  N   N31       1.0  0.35417999999999994  0.8943099999999998  0.41545  1.0000
  N   N32       1.0  0.24472999999999992  0.7910399999999997  0.3572199999999999  1.0000
  N   N33       1.0  0.09746999999999989  0.5247999999999998  0.43869  1.0000
  N   N34       1.0  0.21618  0.58294  0.38944  1.0000
  N   N35       1.0  0.10460999999999994  0.4601299999999999  0.41453999999999996  1.0000
  N   N36       1.0  0.20873999999999998  0.4527099999999999  0.35901  1.0000
  N   N37       1.0  0.52401  0.42526  0.93975  1.0000
  N   N38       1.0  0.58166  0.3655799999999999  0.88975  1.0000
  N   N39       1.0  0.4592300000000001  0.35341  0.9152999999999999  1.0000
  N   N40       1.0  0.45138  0.24233  0.8589099999999998  1.0000
  N   N41       1.0  0.57524  0.09834  0.94128  1.0000
  N   N42       1.0  0.6327500000000001  0.21513  0.88992  1.0000
  N   N43       1.0  0.6463  0.10571  0.91593  1.0000
  N   N44       1.0  0.75494  0.20856  0.8571399999999999  1.0000
  N   N45       1.0  0.9027700000000001  0.4747  0.9379199999999999  1.0000
  N   N46       1.0  0.78377  0.41654999999999986  0.88894  1.0000
  N   N47       1.0  0.8953500000000001  0.5394399999999999  0.91411  1.0000
  N   N48       1.0  0.79071  0.5467  0.85895  1.0000
  N   N49       1.0  0.09808999999999996  0.5748  0.9406599999999999  1.0000
  N   N50       1.0  0.21447  0.63246  0.88928  1.0000
  N   N51       1.0  0.10558  0.6463  0.9156399999999999  1.0000
  N   N52       1.0  0.2087499999999999  0.7554999999999997  0.8571499999999999  1.0000
  N   N53       1.0  0.4754399999999999  0.9023899999999998  0.9389499999999998  1.0000
  N   N54       1.0  0.41673  0.78383  0.8893699999999999  1.0000
  N   N55       1.0  0.5396700000000001  0.8946999999999998  0.91485  1.0000
  N   N56       1.0  0.54631  0.79034  0.85864  1.0000
  N   N57       1.0  0.42751  0.52488  0.93846  1.0000
  N   N58       1.0  0.3659  0.58243  0.8899  1.0000
  N   N59       1.0  0.3554  0.45992  0.9143499999999999  1.0000
  N   N60       1.0  0.24303000000000002  0.45168  0.8592199999999999  1.0000
  N   N61       1.0  0.90199  0.42484  0.44151  1.0000
  N   N62       1.0  0.7858899999999999  0.3676699999999999  0.38971999999999996  1.0000
  N   N63       1.0  0.89466  0.35364  0.41616  1.0000
  N   N64       1.0  0.7917499999999998  0.24499999999999994  0.35716  1.0000
  N   N65       1.0  0.5252499999999999  0.09730999999999997  0.43811  1.0000
  N   N66       1.0  0.58357  0.21617  0.38887999999999995  1.0000
  N   N67       1.0  0.46078  0.10512  0.41443  1.0000
  N   N68       1.0  0.45380999999999994  0.20978  0.35864  1.0000
  N   N69       1.0  0.57279  0.4749499999999999  0.43825  1.0000
  N   N70       1.0  0.6346300000000001  0.4176  0.38991999999999993  1.0000
  N   N71       1.0  0.6449  0.54001  0.41424  1.0000
  N   N72       1.0  0.75744  0.54847  0.3593  1.0000
  N   N73       1.0  0.52377  0.42566  0.56017  1.0000
  N   N74       1.0  0.5817500000000001  0.3656  0.60978  1.0000
  N   N75       1.0  0.45924999999999994  0.35399999999999987  0.58502  1.0000
  N   N76       1.0  0.45153  0.24274999999999994  0.64121  1.0000
  N   N77       1.0  0.57533  0.09831  0.55887  1.0000
  N   N78       1.0  0.63286  0.21516  0.61017  1.0000
  N   N79       1.0  0.64638  0.10568999999999999  0.58436  1.0000
  N   N80       1.0  0.75505  0.20865  0.64313  1.0000
  N   N81       1.0  0.90292  0.47488999999999987  0.5624  1.0000
  N   N82       1.0  0.78369  0.4167299999999999  0.611  1.0000
  N   N83       1.0  0.89539  0.53953  0.58616  1.0000
  N   N84       1.0  0.79063  0.54678  0.64128  1.0000
  N   N85       1.0  0.4761  0.5730999999999998  0.06079  1.0000
  N   N86       1.0  0.418  0.6335099999999998  0.10992999999999999  1.0000
  N   N87       1.0  0.54054  0.64517  0.08529  1.0000
  N   N88       1.0  0.54826  0.75653  0.14124  1.0000
  N   N89       1.0  0.4254499999999999  0.9016199999999998  0.05968999999999999  1.0000
  N   N90       1.0  0.36725999999999986  0.7844799999999997  0.11060999999999999  1.0000
  N   N91       1.0  0.35434  0.89439  0.08489999999999999  1.0000
  N   N92       1.0  0.24485999999999994  0.79079  0.14296  1.0000
  N   N93       1.0  0.09749  0.52433  0.06154  1.0000
  N   N94       1.0  0.21647  0.58256  0.11060999999999999  1.0000
  N   N95       1.0  0.10483999999999993  0.4597599999999999  0.08569  1.0000
  N   N96       1.0  0.20923999999999995  0.45245  0.14146  1.0000
  N   N97       1.0  0.0001699999999999365  0.2828099999999999  0.9190499999999999  1.0000
  N   N98       1.0  0.0010699999999999326  0.32601999999999987  0.00466  1.0000
  N   N99       1.0  0.002090000000000012  0.38644  0.96914  1.0000
  N   N100      1.0  0.006489999999999995  0.39968  0.8693  1.0000
  N   N101      1.0  0.28352  1.0000000000000006e-05  0.91917  1.0000
  N   N102      1.0  0.32662  0.0007699999999999997  0.00486  1.0000
  N   N103      1.0  0.38701  0.00175  0.96948  1.0000
  N   N104      1.0  0.40045  0.006519999999999998  0.86966  1.0000
  N   N105      1.0  0.718  0.7152999999999998  0.9187999999999998  1.0000
  N   N106      1.0  0.67363  0.6744199999999998  0.00446  1.0000
  N   N107      1.0  0.6153699999999999  0.6124899999999998  0.9690899999999999  1.0000
  N   N108      1.0  0.6082899999999998  0.5965199999999998  0.8694899999999999  1.0000
  N   N109      1.0  0.9999  0.7165  0.41923  1.0000
  N   N110      1.0  0.9991699999999999  0.6734499999999999  0.50493  1.0000
  N   N111      1.0  0.9981800000000001  0.61298  0.46954  1.0000
  N   N112      1.0  0.99354  0.59942  0.36971999999999994  1.0000
  N   N113      1.0  0.7171999999999998  0.9997699999999999  0.41906  1.0000
  N   N114      1.0  0.6740500000000001  0.9990199999999999  0.50465  1.0000
  N   N115      1.0  0.61381  0.99803  0.46905  1.0000
  N   N116      1.0  0.6005599999999998  0.9934699999999997  0.36923  1.0000
  N   N117      1.0  0.28207  0.28449  0.41883999999999993  1.0000
  N   N118      1.0  0.32618  0.32561  0.50451  1.0000
  N   N119      1.0  0.38478  0.38729  0.4691499999999999  1.0000
  N   N120      1.0  0.39224999999999993  0.4026299999999999  0.3695399999999999  1.0000
  N   N121      1.0  0.71611  0.71606  0.58105  1.0000
  N   N122      1.0  0.67404  0.67331  0.49524  1.0000
  N   N123      1.0  0.6135499999999999  0.6129399999999998  0.53047  1.0000
  N   N124      1.0  0.60013  0.60322  0.62971  1.0000
  N   N125      1.0  0.28349  0.00010999999999999999  0.58092  1.0000
  N   N126      1.0  0.32694  0.00112  0.49535  1.0000
  N   N127      1.0  0.38715  0.00197  0.53088  1.0000
  N   N128      1.0  0.40034  0.00647  0.63069  1.0000
  N   N129      1.0  0.00030999999999993695  0.2826299999999999  0.58145  1.0000
  N   N130      1.0  0.0012399999999999902  0.32622  0.49579999999999996  1.0000
  N   N131      1.0  0.002100000000000007  0.38641  0.53137  1.0000
  N   N132      1.0  0.006599999999999938  0.3994799999999999  0.63118  1.0000
  N   N133      1.0  0.28492  0.28328  0.08123  1.0000
  N   N134      1.0  0.32616  0.32739  0.99557  1.0000
  N   N135      1.0  0.38786000000000004  0.3858999999999999  0.0309  1.0000
  N   N136      1.0  0.4052700000000001  0.3918  0.13054  1.0000
  N   N137      1.0  0.7175  0.9997299999999999  0.0814  1.0000
  N   N138      1.0  0.67374  0.99859  0.9957699999999999  1.0000
  N   N139      1.0  0.6137299999999998  0.9977099999999998  0.03139  1.0000
  N   N140      1.0  0.6007900000000002  0.99343  0.13116  1.0000
  N   N141      1.0  0.99971  0.7164899999999997  0.08102  1.0000
  N   N142      1.0  0.99874  0.6732299999999998  0.9954  1.0000
  N   N143      1.0  0.99799  0.61293  0.030849999999999995  1.0000
  N   N144      1.0  0.9936  0.59959  0.13067  1.0000
  Cl  Cl1       1.0  0.9994399999999999  0.32355  0.18236999999999998  1.0000
  Cl  Cl2       1.0  0.3237  0.9991399999999999  0.18249  1.0000
  Cl  Cl3       1.0  0.67524  0.6757599999999998  0.1825  1.0000
  Cl  Cl4       1.0  0.0006000000000000297  0.6761  0.68247  1.0000
  Cl  Cl5       1.0  0.6762900000000002  0.00059  0.68241  1.0000
  Cl  Cl6       1.0  0.32503000000000004  0.32441  0.68249  1.0000
  Cl  Cl7       1.0  0.6735000000000001  0.67337  0.31708  1.0000
  Cl  Cl8       1.0  0.32672  0.00023  0.3173  1.0000
  Cl  Cl9       1.0  0.9988400000000001  0.32603  0.31726  1.0000
  Cl  Cl10      1.0  0.32648  0.32689  0.8170999999999999  1.0000
  Cl  Cl11      1.0  0.67278  0.99972  0.8173  1.0000
  Cl  Cl12      1.0  0.0005600000000000018  0.67402  0.81718  1.0000
  Cl  Cl13      1.0  0.9990900000000001  0.9987299999999999  0.75043  1.0000
  Cl  Cl14      1.0  0.00139  0.0008  0.25037  1.0000
  Cl  Cl15      1.0  0.9990100000000001  0.9992599999999999  0.98303  1.0000
  Cl  Cl16      1.0  0.0008199999999999998  0.0009099999999999996  0.48308  1.0000
  O   O1        1.0  0.92247  0.08072999999999997  0.8705599999999998  1.0000
  O   O2        1.0  0.91659  0.21009  0.79714  1.0000
  O   O3        1.0  0.81518  0.08918999999999998  0.91036  1.0000
  O   O4        1.0  0.15625000000000006  0.07508  0.8753099999999999  1.0000
  O   O5        1.0  0.27966  0.08537  0.7968  1.0000
  O   O6        1.0  0.27430000000000004  0.18556  0.91095  1.0000
  O   O7        1.0  0.9191999999999999  0.8429299999999997  0.87499  1.0000
  O   O8        1.0  0.80153  0.71597  0.7965699999999999  1.0000
  O   O9        1.0  0.9117299999999999  0.7253099999999998  0.9108599999999999  1.0000
  O   O10       1.0  0.07761000000000008  0.91918  0.37051  1.0000
  O   O11       1.0  0.0834199999999999  0.7888699999999997  0.297  1.0000
  O   O12       1.0  0.1847799999999999  0.9106399999999998  0.41051  1.0000
  O   O13       1.0  0.8440699999999999  0.9248599999999998  0.3751999999999999  1.0000
  O   O14       1.0  0.7202199999999999  0.91452  0.29699  1.0000
  O   O15       1.0  0.72601  0.81462  0.41093999999999997  1.0000
  O   O16       1.0  0.08083  0.15690999999999994  0.37497  1.0000
  O   O17       1.0  0.19818  0.28409  0.29647  1.0000
  O   O18       1.0  0.08829  0.2745  0.4107799999999999  1.0000
  O   O19       1.0  0.8444999999999999  0.9192499999999998  0.62557  1.0000
  O   O20       1.0  0.71399  0.79892  0.7031699999999999  1.0000
  O   O21       1.0  0.7273399999999999  0.9112699999999998  0.58908  1.0000
  O   O22       1.0  0.08030999999999995  0.9219499999999998  0.63138  1.0000
  O   O23       1.0  0.21157  0.91577  0.70302  1.0000
  O   O24       1.0  0.08934999999999998  0.8164  0.58926  1.0000
  O   O25       1.0  0.07339  0.15356999999999996  0.62433  1.0000
  O   O26       1.0  0.08646999999999995  0.27811999999999987  0.70357  1.0000
  O   O27       1.0  0.18339  0.27268  0.58897  1.0000
  O   O28       1.0  0.15564000000000003  0.08033999999999997  0.1256  1.0000
  O   O29       1.0  0.28637000000000007  0.20203  0.20316999999999996  1.0000
  O   O30       1.0  0.27309  0.08908  0.08904  1.0000
  O   O31       1.0  0.91986  0.07774999999999997  0.13308  1.0000
  O   O32       1.0  0.78757  0.08420999999999997  0.20327  1.0000
  O   O33       1.0  0.90952  0.18177  0.08954  1.0000
  O   O34       1.0  0.92616  0.84576  0.1247  1.0000
  O   O35       1.0  0.9137400000000001  0.72233  0.20331  1.0000
  O   O36       1.0  0.8161200000000001  0.72711  0.08892999999999998  1.0000
  O   O37       1.0  0.07743999999999993  0.91912  0.13091  1.0000
  O   O38       1.0  0.08311  0.7874  0.20313  1.0000
  O   O39       1.0  0.1834300000000001  0.91025  0.08938  1.0000
  O   O40       1.0  0.8468699999999998  0.9265799999999997  0.12441  1.0000
  O   O41       1.0  0.72196  0.9142899999999998  0.20352  1.0000
  O   O42       1.0  0.7278600000000001  0.81703  0.08886999999999999  1.0000
  O   O43       1.0  0.08041  0.1553  0.12552  1.0000
  O   O44       1.0  0.20040000000000002  0.28595  0.20277  1.0000
  O   O45       1.0  0.08906999999999998  0.27293  0.0891  1.0000
  O   O46       1.0  0.9224900000000001  0.08033  0.63295  1.0000
  O   O47       1.0  0.91689  0.21306999999999995  0.70337  1.0000
  O   O48       1.0  0.8181  0.09029  0.5897  1.0000
  O   O49       1.0  0.15353999999999998  0.07362999999999997  0.62469  1.0000
  O   O50       1.0  0.27779000000000004  0.08544999999999997  0.70325  1.0000
  O   O51       1.0  0.27216  0.18341  0.58892  1.0000
  O   O52       1.0  0.91972  0.84446  0.62558  1.0000
  O   O53       1.0  0.79766  0.71255  0.70286  1.0000
  O   O54       1.0  0.91007  0.7263799999999998  0.5891  1.0000
  O   O55       1.0  0.15789999999999998  0.08161999999999997  0.37462  1.0000
  O   O56       1.0  0.28874  0.20482  0.29696  1.0000
  O   O57       1.0  0.2751  0.08888999999999997  0.41076999999999997  1.0000
  O   O58       1.0  0.91914  0.07755999999999998  0.36976  1.0000
  O   O59       1.0  0.78899  0.0842  0.29713  1.0000
  O   O60       1.0  0.9103800000000001  0.18427  0.41049  1.0000
  O   O61       1.0  0.9247500000000001  0.84407  0.3751  1.0000
  O   O62       1.0  0.91364  0.71939  0.29682  1.0000
  O   O63       1.0  0.81463  0.72577  0.41092999999999996  1.0000
  O   O64       1.0  0.84224  0.9183299999999998  0.8746199999999998  1.0000
  O   O65       1.0  0.71128  0.79547  0.7969399999999999  1.0000
  O   O66       1.0  0.7250999999999997  0.9109999999999998  0.91074  1.0000
  O   O67       1.0  0.08087999999999984  0.9224099999999997  0.87005  1.0000
  O   O68       1.0  0.21096999999999985  0.9156899999999998  0.79695  1.0000
  O   O69       1.0  0.08975999999999992  0.8155899999999998  0.9105199999999999  1.0000
  O   O70       1.0  0.07546999999999997  0.15577999999999995  0.87502  1.0000
  O   O71       1.0  0.08662000000000002  0.28105  0.79702  1.0000
  O   O72       1.0  0.18542  0.27413  0.91096  1.0000
