data_image0
_chemical_formula_structural       Zn12H176C184N48O32
_chemical_formula_sum              "Zn12 H176 C184 N48 O32"
_cell_length_a       12.82156
_cell_length_b       18.44589
_cell_length_c       25.64613
_cell_angle_alpha    102.95555999999999
_cell_angle_beta     90.101
_cell_angle_gamma    90.10713

_space_group_name_H-M_alt    "P 1"
_space_group_IT_number       1

loop_
  _space_group_symop_operation_xyz
  'x, y, z'

loop_
  _atom_site_type_symbol
  _atom_site_label
  _atom_site_symmetry_multiplicity
  _atom_site_fract_x
  _atom_site_fract_y
  _atom_site_fract_z
  _atom_site_occupancy
  Zn  Zn1       1.0  0.8190400000000001  0.36614  0.6469  1.0000
  Zn  Zn2       1.0  0.11931000000000003  0.2644  0.03833  1.0000
  Zn  Zn3       1.0  0.23508  0.9413  0.64332  1.0000
  Zn  Zn4       1.0  0.31938000000000005  0.13308999999999999  0.35258999999999996  1.0000
  Zn  Zn5       1.0  0.6174  0.23508999999999997  0.9594399999999998  1.0000
  Zn  Zn6       1.0  0.7323  0.5577299999999998  0.3562899999999999  1.0000
  Zn  Zn7       1.0  0.18096  0.63386  0.3531  1.0000
  Zn  Zn8       1.0  0.8807  0.7355999999999999  0.9616699999999998  1.0000
  Zn  Zn9       1.0  0.7649300000000002  0.058699999999999974  0.3566799999999999  1.0000
  Zn  Zn10      1.0  0.6806200000000001  0.8669100000000001  0.64741  1.0000
  Zn  Zn11      1.0  0.38261000000000006  0.76491  0.04056  1.0000
  Zn  Zn12      1.0  0.26771  0.44227  0.6437099999999999  1.0000
  H   H1        1.0  0.96109  0.3861799999999999  0.8412099999999998  1.0000
  H   H2        1.0  0.11532  0.51703  0.9819799999999997  1.0000
  H   H3        1.0  0.11772000000000003  0.58972  0.83273  1.0000
  H   H4        1.0  0.8646700000000003  0.4065599999999999  0.7741099999999997  1.0000
  H   H5        1.0  0.0183  0.47714  0.64982  1.0000
  H   H6        1.0  0.1236  0.53701  0.74465  1.0000
  H   H7        1.0  0.10903  0.41965  0.011829999999999997  1.0000
  H   H8        1.0  0.9138  0.23153999999999988  0.9601199999999999  1.0000
  H   H9        1.0  0.8939700000000002  0.3210599999999999  0.8891599999999997  1.0000
  H   H10       1.0  0.25524  0.59109  0.00061  1.0000
  H   H11       1.0  0.29895  0.7840399999999998  0.9395899999999998  1.0000
  H   H12       1.0  0.14979  0.69531  0.87855  1.0000
  H   H13       1.0  0.4979600000000001  0.65093  0.6926099999999998  1.0000
  H   H14       1.0  0.4614600000000001  0.73795  0.55002  1.0000
  H   H15       1.0  0.58159  0.51689  0.5377  1.0000
  H   H16       1.0  0.71194  0.48296  0.58776  1.0000
  H   H17       1.0  0.6276000000000003  0.4232499999999999  0.7309699999999998  1.0000
  H   H18       1.0  0.49115  0.53458  0.7131899999999998  1.0000
  H   H19       1.0  0.37412  0.8214499999999999  0.5912399999999999  1.0000
  H   H20       1.0  0.40816  0.74429  0.73461  1.0000
  H   H21       1.0  0.28243  0.86837  0.75337  1.0000
  H   H22       1.0  0.67744  0.5531399999999999  0.4709299999999999  1.0000
  H   H23       1.0  0.50759  0.6525  0.36389  1.0000
  H   H24       1.0  0.40884  0.6854099999999997  0.4618199999999999  1.0000
  H   H25       1.0  0.9266900000000002  0.29372  0.47380999999999995  1.0000
  H   H26       1.0  0.7405800000000001  0.28027  0.44662  1.0000
  H   H27       1.0  0.7308500000000002  0.37654  0.45182  1.0000
  H   H28       1.0  0.76248  0.31154  0.35637  1.0000
  H   H29       1.0  0.8752000000000002  0.26933  0.37574  1.0000
  H   H30       1.0  0.93128  0.37087  0.3389699999999999  1.0000
  H   H31       1.0  0.03728  0.36004  0.41308999999999996  1.0000
  H   H32       1.0  0.01945  0.45643999999999996  0.41927  1.0000
  H   H33       1.0  0.88887  0.46119  0.4904199999999999  1.0000
  H   H34       1.0  0.00349  0.4196  0.5077299999999999  1.0000
  H   H35       1.0  0.7767200000000002  0.15712  0.70105  1.0000
  H   H36       1.0  0.8042200000000002  0.25636  0.81302  1.0000
  H   H37       1.0  0.9078100000000002  0.2156  0.7712499999999999  1.0000
  H   H38       1.0  0.8405700000000002  0.08834999999999997  0.77177  1.0000
  H   H39       1.0  0.8676500000000003  0.13812  0.83777  1.0000
  H   H40       1.0  0.69936  0.06555000000000004  0.82559  1.0000
  H   H41       1.0  0.54619  0.12541  0.78813  1.0000
  H   H42       1.0  0.6365100000000001  0.07678999999999993  0.7415699999999997  1.0000
  H   H43       1.0  0.61884  0.2463899999999999  0.7793699999999998  1.0000
  H   H44       1.0  0.58872  0.1916299999999999  0.7152899999999998  1.0000
  H   H45       1.0  0.4626600000000001  0.11488  0.15845999999999996  1.0000
  H   H46       1.0  0.61486  0.98264  0.01794  1.0000
  H   H47       1.0  0.61685  0.91121  0.16768999999999995  1.0000
  H   H48       1.0  0.36502  0.09411  0.22552  1.0000
  H   H49       1.0  0.51846  0.023519999999999975  0.34997  1.0000
  H   H50       1.0  0.62351  0.9639299999999998  0.25526999999999994  1.0000
  H   H51       1.0  0.6101500000000001  0.08039999999999992  0.9878099999999997  1.0000
  H   H52       1.0  0.41582000000000013  0.26844  0.03871  1.0000
  H   H53       1.0  0.39746  0.18012  0.11055  1.0000
  H   H54       1.0  0.7549800000000001  0.90793  0.00035999999999999997  1.0000
  H   H55       1.0  0.7929900000000001  0.71492  0.06196  1.0000
  H   H56       1.0  0.6444800000000002  0.80489  0.12201999999999998  1.0000
  H   H57       1.0  0.99445  0.84875  0.3074799999999999  1.0000
  H   H58       1.0  0.9613900000000001  0.7616  0.4501499999999999  1.0000
  H   H59       1.0  0.08177  0.9829  0.46203  1.0000
  H   H60       1.0  0.21120000000000005  0.01671  0.41174  1.0000
  H   H61       1.0  0.12711  0.07512  0.2679599999999999  1.0000
  H   H62       1.0  0.9891500000000002  0.9646899999999999  0.28636  1.0000
  H   H63       1.0  0.8724200000000002  0.67763  0.4088699999999999  1.0000
  H   H64       1.0  0.9062500000000002  0.75528  0.26572  1.0000
  H   H65       1.0  0.78116  0.63043  0.24641999999999994  1.0000
  H   H66       1.0  0.17909000000000003  0.94665  0.5285699999999999  1.0000
  H   H67       1.0  0.009200000000000002  0.84872  0.6363499999999999  1.0000
  H   H68       1.0  0.90977  0.81481  0.53841  1.0000
  H   H69       1.0  0.42524999999999996  0.20731999999999995  0.5260999999999999  1.0000
  H   H70       1.0  0.24014  0.21986999999999998  0.5540199999999998  1.0000
  H   H71       1.0  0.23039000000000007  0.12350999999999995  0.5484999999999999  1.0000
  H   H72       1.0  0.26457  0.18839  0.64402  1.0000
  H   H73       1.0  0.37663000000000013  0.23065000000000002  0.62402  1.0000
  H   H74       1.0  0.4339400000000001  0.12950999999999993  0.6605699999999999  1.0000
  H   H75       1.0  0.5378300000000001  0.14181999999999992  0.5861599999999999  1.0000
  H   H76       1.0  0.5214  0.04514000000000001  0.57989  1.0000
  H   H77       1.0  0.38880000000000003  0.039550000000000016  0.50916  1.0000
  H   H78       1.0  0.5025  0.08197999999999997  0.4916399999999999  1.0000
  H   H79       1.0  0.27398  0.3403399999999999  0.2965999999999999  1.0000
  H   H80       1.0  0.30553  0.24329999999999996  0.18429  1.0000
  H   H81       1.0  0.40737  0.28434  0.22753999999999994  1.0000
  H   H82       1.0  0.34097  0.41124  0.22741999999999996  1.0000
  H   H83       1.0  0.36839  0.36264  0.16127  1.0000
  H   H84       1.0  0.20109  0.43586  0.17369  1.0000
  H   H85       1.0  0.04679  0.37595  0.21011  1.0000
  H   H86       1.0  0.13829  0.42182  0.25742  1.0000
  H   H87       1.0  0.11867  0.2529199999999999  0.21516999999999994  1.0000
  H   H88       1.0  0.08626000000000002  0.30433  0.27995  1.0000
  H   H89       1.0  0.03891  0.61382  0.15879999999999997  1.0000
  H   H90       1.0  0.8846800000000002  0.48297  0.01802  1.0000
  H   H91       1.0  0.8822800000000002  0.41027  0.16727  1.0000
  H   H92       1.0  0.13534  0.59344  0.2259  1.0000
  H   H93       1.0  0.98171  0.52286  0.3501799999999999  1.0000
  H   H94       1.0  0.8764  0.46299  0.25535  1.0000
  H   H95       1.0  0.8909700000000003  0.58034  0.98817  1.0000
  H   H96       1.0  0.08621000000000002  0.76846  0.03988  1.0000
  H   H97       1.0  0.10604  0.6789399999999999  0.11083999999999997  1.0000
  H   H98       1.0  0.7447600000000001  0.40890999999999994  0.9993899999999999  1.0000
  H   H99       1.0  0.7010600000000002  0.21596  0.06041  1.0000
  H   H100      1.0  0.85021  0.30469  0.12146  1.0000
  H   H101      1.0  0.50204  0.34907  0.30738999999999994  1.0000
  H   H102      1.0  0.53855  0.26204999999999995  0.4499799999999999  1.0000
  H   H103      1.0  0.41841  0.48311  0.4623  1.0000
  H   H104      1.0  0.28806  0.51704  0.4122399999999999  1.0000
  H   H105      1.0  0.3724  0.5767499999999999  0.26903  1.0000
  H   H106      1.0  0.50885  0.46542  0.28681  1.0000
  H   H107      1.0  0.6258900000000001  0.17855  0.40876  1.0000
  H   H108      1.0  0.5918400000000001  0.25571  0.26539  1.0000
  H   H109      1.0  0.7175800000000002  0.13163  0.24662999999999993  1.0000
  H   H110      1.0  0.32256  0.44685  0.52907  1.0000
  H   H111      1.0  0.4924100000000001  0.3474999999999999  0.6361099999999998  1.0000
  H   H112      1.0  0.59117  0.31459  0.53818  1.0000
  H   H113      1.0  0.07332000000000001  0.7062799999999999  0.5261899999999999  1.0000
  H   H114      1.0  0.25943  0.71973  0.5533799999999999  1.0000
  H   H115      1.0  0.26915  0.6234599999999999  0.5481799999999999  1.0000
  H   H116      1.0  0.23752  0.6884599999999998  0.6436299999999998  1.0000
  H   H117      1.0  0.12480000000000002  0.73066  0.6242599999999999  1.0000
  H   H118      1.0  0.06872000000000002  0.62913  0.66103  1.0000
  H   H119      1.0  0.9627200000000002  0.63995  0.5869099999999999  1.0000
  H   H120      1.0  0.98056  0.54355  0.58073  1.0000
  H   H121      1.0  0.11113  0.53881  0.50958  1.0000
  H   H122      1.0  0.9965200000000001  0.5804  0.49227  1.0000
  H   H123      1.0  0.22328999999999996  0.84287  0.29895  1.0000
  H   H124      1.0  0.19579  0.74364  0.18698  1.0000
  H   H125      1.0  0.09220000000000003  0.7844  0.22874999999999995  1.0000
  H   H126      1.0  0.15943  0.91165  0.22823  1.0000
  H   H127      1.0  0.13236000000000003  0.86187  0.16222999999999996  1.0000
  H   H128      1.0  0.30065  0.93444  0.17441  1.0000
  H   H129      1.0  0.4538100000000001  0.87459  0.21186999999999998  1.0000
  H   H130      1.0  0.3635000000000001  0.92321  0.25843  1.0000
  H   H131      1.0  0.38117000000000006  0.75361  0.22062999999999994  1.0000
  H   H132      1.0  0.41129  0.80837  0.28471  1.0000
  H   H133      1.0  0.53735  0.88512  0.8415499999999998  1.0000
  H   H134      1.0  0.38514  0.017359999999999938  0.9820599999999998  1.0000
  H   H135      1.0  0.38315  0.08877999999999994  0.8323099999999999  1.0000
  H   H136      1.0  0.6349800000000002  0.90589  0.77448  1.0000
  H   H137      1.0  0.4815500000000001  0.97648  0.6500299999999998  1.0000
  H   H138      1.0  0.37649000000000005  0.03606999999999998  0.7447299999999999  1.0000
  H   H139      1.0  0.38985000000000003  0.9196  0.01219  1.0000
  H   H140      1.0  0.58419  0.7315599999999999  0.9612899999999998  1.0000
  H   H141      1.0  0.60255  0.8198799999999999  0.88945  1.0000
  H   H142      1.0  0.24502000000000002  0.09205999999999998  0.99965  1.0000
  H   H143      1.0  0.20701000000000006  0.28507999999999994  0.9380399999999999  1.0000
  H   H144      1.0  0.35553000000000007  0.19510999999999995  0.8779799999999998  1.0000
  H   H145      1.0  0.00555  0.15125  0.69252  1.0000
  H   H146      1.0  0.03862000000000001  0.2384  0.54985  1.0000
  H   H147      1.0  0.91824  0.017099999999999994  0.53797  1.0000
  H   H148      1.0  0.7888100000000002  0.9832899999999999  0.5882599999999999  1.0000
  H   H149      1.0  0.8728900000000003  0.92488  0.73204  1.0000
  H   H150      1.0  0.01085  0.035309999999999994  0.71365  1.0000
  H   H151      1.0  0.12759  0.32237  0.59113  1.0000
  H   H152      1.0  0.09376000000000001  0.24471999999999988  0.7342899999999998  1.0000
  H   H153      1.0  0.21885  0.36957  0.75358  1.0000
  H   H154      1.0  0.82092  0.05334999999999995  0.4714399999999999  1.0000
  H   H155      1.0  0.9908100000000002  0.15128  0.36365  1.0000
  H   H156      1.0  0.09023  0.18519  0.46159  1.0000
  H   H157      1.0  0.57475  0.79267  0.4739  1.0000
  H   H158      1.0  0.7598600000000002  0.78013  0.44598  1.0000
  H   H159      1.0  0.76961  0.87649  0.4515  1.0000
  H   H160      1.0  0.7354300000000001  0.81161  0.35598  1.0000
  H   H161      1.0  0.62338  0.76935  0.37598  1.0000
  H   H162      1.0  0.56606  0.8704900000000001  0.33944  1.0000
  H   H163      1.0  0.46217  0.85818  0.41384  1.0000
  H   H164      1.0  0.47861  0.95485  0.4201099999999999  1.0000
  H   H165      1.0  0.6112000000000001  0.96044  0.4908399999999999  1.0000
  H   H166      1.0  0.49751  0.9180099999999999  0.50836  1.0000
  H   H167      1.0  0.7260300000000002  0.65966  0.7034  1.0000
  H   H168      1.0  0.69447  0.7566999999999999  0.8157099999999998  1.0000
  H   H169      1.0  0.59264  0.71566  0.7724599999999998  1.0000
  H   H170      1.0  0.65904  0.58876  0.77258  1.0000
  H   H171      1.0  0.63161  0.6373599999999998  0.8387299999999998  1.0000
  H   H172      1.0  0.7989200000000001  0.56414  0.8263099999999999  1.0000
  H   H173      1.0  0.9532200000000002  0.62405  0.78989  1.0000
  H   H174      1.0  0.86171  0.57817  0.74258  1.0000
  H   H175      1.0  0.8813400000000002  0.74708  0.7848299999999999  1.0000
  H   H176      1.0  0.9137500000000001  0.6956700000000001  0.72005  1.0000
  C   C1        1.0  0.030570000000000007  0.48888  0.83222  1.0000
  C   C2        1.0  0.0009799999999999989  0.43659  0.8614599999999998  1.0000
  C   C3        1.0  0.03057000000000001  0.44627  0.9150099999999999  1.0000
  C   C4        1.0  0.08750000000000001  0.5111299999999999  0.9414199999999998  1.0000
  C   C5        1.0  0.12051  0.56073  0.90971  1.0000
  C   C6        1.0  0.09168  0.55113  0.85623  1.0000
  C   C7        1.0  0.92215  0.43289999999999995  0.7535999999999998  1.0000
  C   C8        1.0  0.0026499999999999996  0.47254  0.6903699999999998  1.0000
  C   C9        1.0  0.055170000000000004  0.5019599999999999  0.7371399999999998  1.0000
  C   C10       1.0  0.047410000000000015  0.38457  0.99122  1.0000
  C   C11       1.0  0.9524800000000002  0.28397999999999995  0.9606199999999998  1.0000
  C   C12       1.0  0.9416  0.32816  0.92471  1.0000
  C   C13       1.0  0.24773  0.6318499999999999  0.9764999999999998  1.0000
  C   C14       1.0  0.26857  0.7304499999999999  0.9429099999999998  1.0000
  C   C15       1.0  0.1964  0.68636  0.9116  1.0000
  C   C16       1.0  0.5449  0.58022  0.61825  1.0000
  C   C17       1.0  0.4998400000000001  0.6434899999999999  0.64947  1.0000
  C   C18       1.0  0.46291000000000004  0.69965  0.6244799999999999  1.0000
  C   C19       1.0  0.4792800000000001  0.69273  0.56922  1.0000
  C   C20       1.0  0.52296  0.62834  0.53916  1.0000
  C   C21       1.0  0.55379  0.56892  0.56213  1.0000
  C   C22       1.0  0.67029  0.48039  0.62391  1.0000
  C   C23       1.0  0.6234900000000001  0.45287999999999995  0.6990099999999999  1.0000
  C   C24       1.0  0.55725  0.5077399999999999  0.6908499999999999  1.0000
  C   C25       1.0  0.36379  0.8159299999999999  0.6318899999999998  1.0000
  C   C26       1.0  0.38201000000000007  0.77793  0.70776  1.0000
  C   C27       1.0  0.3185100000000001  0.83946  0.7164799999999998  1.0000
  C   C28       1.0  0.6173100000000001  0.5826  0.45458  1.0000
  C   C29       1.0  0.52994  0.63819  0.40097  1.0000
  C   C30       1.0  0.48189  0.6568  0.4497799999999999  1.0000
  C   C31       1.0  0.8745400000000001  0.34252  0.48374  1.0000
  C   C32       1.0  0.7854000000000001  0.32942  0.44268  1.0000
  C   C33       1.0  0.82651  0.31956  0.38551  1.0000
  C   C34       1.0  0.89398  0.38629  0.37862  1.0000
  C   C35       1.0  0.97907  0.40484  0.42205  1.0000
  C   C36       1.0  0.93817  0.41148999999999997  0.4792599999999999  1.0000
  C   C37       1.0  0.8355900000000003  0.34337  0.54027  1.0000
  C   C38       1.0  0.8265500000000002  0.45219999999999994  0.37481999999999993  1.0000
  C   C39       1.0  0.7543  0.20438999999999993  0.73336  1.0000
  C   C40       1.0  0.8262700000000001  0.20723999999999992  0.7820099999999998  1.0000
  C   C41       1.0  0.81638  0.1362299999999999  0.8031499999999999  1.0000
  C   C42       1.0  0.7027  0.12227000000000005  0.81847  1.0000
  C   C43       1.0  0.62616  0.1270999999999999  0.7734099999999998  1.0000
  C   C44       1.0  0.6406700000000001  0.19572  0.75006  1.0000
  C   C45       1.0  0.7660600000000002  0.27571999999999997  0.7135299999999998  1.0000
  C   C46       1.0  0.6759100000000001  0.1709899999999999  0.8724599999999998  1.0000
  C   C47       1.0  0.53076  0.012079999999999999  0.16772  1.0000
  C   C48       1.0  0.50213  0.06439  0.13833999999999996  1.0000
  C   C49       1.0  0.53177  0.05438  0.0848  1.0000
  C   C50       1.0  0.58741  0.9890399999999999  0.05856  1.0000
  C   C51       1.0  0.61952  0.93951  0.09051  1.0000
  C   C52       1.0  0.591  0.9495799999999999  0.14398  1.0000
  C   C53       1.0  0.4226  0.06793999999999997  0.24609999999999996  1.0000
  C   C54       1.0  0.50299  0.02824999999999999  0.3094199999999999  1.0000
  C   C55       1.0  0.5553000000000001  0.9989400000000002  0.26274  1.0000
  C   C56       1.0  0.54815  0.11516  0.00803  1.0000
  C   C57       1.0  0.45419  0.21603  0.03835999999999999  1.0000
  C   C58       1.0  0.4442000000000001  0.17253  0.07475999999999998  1.0000
  C   C59       1.0  0.7460500000000002  0.8673699999999999  0.024529999999999996  1.0000
  C   C60       1.0  0.7639000000000002  0.7687  0.05839999999999999  1.0000
  C   C61       1.0  0.6921200000000002  0.81335  0.08921999999999997  1.0000
  C   C62       1.0  0.04323000000000001  0.91956  0.38162  1.0000
  C   C63       1.0  0.99734  0.8562299999999999  0.3506199999999999  1.0000
  C   C64       1.0  0.96118  0.79995  0.3757299999999999  1.0000
  C   C65       1.0  0.9787400000000002  0.80688  0.43091  1.0000
  C   C66       1.0  0.02306  0.8713799999999999  0.4607699999999999  1.0000
  C   C67       1.0  0.05341  0.9308199999999999  0.4376899999999999  1.0000
  C   C68       1.0  0.16936  0.019029999999999977  0.3755299999999999  1.0000
  C   C69       1.0  0.12255000000000002  0.04602  0.30021  1.0000
  C   C70       1.0  0.05554  0.9915799999999999  0.30867  1.0000
  C   C71       1.0  0.86232  0.6830699999999998  0.3681599999999999  1.0000
  C   C72       1.0  0.88036  0.72133  0.2924  1.0000
  C   C73       1.0  0.8171700000000002  0.65944  0.28341999999999995  1.0000
  C   C74       1.0  0.11895000000000003  0.9173999999999999  0.5451299999999999  1.0000
  C   C75       1.0  0.03145  0.86259  0.59912  1.0000
  C   C76       1.0  0.9829900000000003  0.84356  0.5503499999999999  1.0000
  C   C77       1.0  0.37326  0.15825  0.51613  1.0000
  C   C78       1.0  0.28512  0.1707  0.55754  1.0000
  C   C79       1.0  0.32772  0.18031999999999998  0.6145199999999998  1.0000
  C   C80       1.0  0.3957500000000001  0.11377000000000001  0.62105  1.0000
  C   C81       1.0  0.48010000000000014  0.0964  0.57734  1.0000
  C   C82       1.0  0.43775  0.08961999999999998  0.52028  1.0000
  C   C83       1.0  0.33322  0.15751999999999997  0.4597199999999999  1.0000
  C   C84       1.0  0.32931  0.047050000000000015  0.62493  1.0000
  C   C85       1.0  0.25261000000000006  0.29329  0.26377999999999996  1.0000
  C   C86       1.0  0.32605  0.29208  0.21603  1.0000
  C   C87       1.0  0.31677  0.36378  0.19556  1.0000
  C   C88       1.0  0.20345  0.37866  0.17993  1.0000
  C   C89       1.0  0.12671  0.37271  0.22460999999999995  1.0000
  C   C90       1.0  0.13962  0.30227  0.24607  1.0000
  C   C91       1.0  0.26389000000000007  0.22165999999999997  0.28359999999999996  1.0000
  C   C92       1.0  0.17607  0.33086  0.12547  1.0000
  C   C93       1.0  0.96944  0.51111  0.16778  1.0000
  C   C94       1.0  0.9990300000000001  0.56341  0.13854  1.0000
  C   C95       1.0  0.96944  0.55373  0.08499  1.0000
  C   C96       1.0  0.9125  0.48887  0.058579999999999986  1.0000
  C   C97       1.0  0.8794900000000002  0.43926999999999994  0.09029  1.0000
  C   C98       1.0  0.9083300000000002  0.44886999999999994  0.14377  1.0000
  C   C99       1.0  0.07785  0.5671  0.2464  1.0000
  C   C100      1.0  0.9973500000000002  0.52746  0.30963  1.0000
  C   C101      1.0  0.9448300000000002  0.49803  0.26286  1.0000
  C   C102      1.0  0.9526  0.61543  0.00879  1.0000
  C   C103      1.0  0.04753  0.71602  0.03937999999999999  1.0000
  C   C104      1.0  0.058400000000000014  0.67184  0.07529  1.0000
  C   C105      1.0  0.7522700000000002  0.36815  0.023499999999999993  1.0000
  C   C106      1.0  0.73143  0.26955  0.05708999999999999  1.0000
  C   C107      1.0  0.8036  0.31364  0.08839999999999998  1.0000
  C   C108      1.0  0.45511000000000007  0.41977999999999993  0.38175  1.0000
  C   C109      1.0  0.50016  0.35651  0.35053  1.0000
  C   C110      1.0  0.5370900000000001  0.30035  0.37552  1.0000
  C   C111      1.0  0.52073  0.30727  0.43079  1.0000
  C   C112      1.0  0.4770500000000001  0.37165999999999993  0.4608399999999999  1.0000
  C   C113      1.0  0.4462200000000001  0.43108  0.43786999999999987  1.0000
  C   C114      1.0  0.32972  0.5196  0.3760899999999999  1.0000
  C   C115      1.0  0.37652  0.54712  0.30099  1.0000
  C   C116      1.0  0.4427600000000001  0.49226  0.3091499999999999  1.0000
  C   C117      1.0  0.6362200000000002  0.18406999999999998  0.3681099999999999  1.0000
  C   C118      1.0  0.618  0.22206999999999996  0.29224  1.0000
  C   C119      1.0  0.6815000000000001  0.16053999999999996  0.28351999999999994  1.0000
  C   C120      1.0  0.38269  0.4173899999999999  0.5454199999999999  1.0000
  C   C121      1.0  0.4700600000000001  0.36181  0.59903  1.0000
  C   C122      1.0  0.51812  0.3432  0.55022  1.0000
  C   C123      1.0  0.12546  0.65748  0.51626  1.0000
  C   C124      1.0  0.21460000000000007  0.67058  0.55732  1.0000
  C   C125      1.0  0.17349  0.68044  0.6144899999999999  1.0000
  C   C126      1.0  0.10603000000000001  0.61371  0.62138  1.0000
  C   C127      1.0  0.02094  0.59515  0.57795  1.0000
  C   C128      1.0  0.06183000000000002  0.58851  0.52074  1.0000
  C   C129      1.0  0.16441000000000003  0.65663  0.45973  1.0000
  C   C130      1.0  0.17345000000000002  0.5478  0.62518  1.0000
  C   C131      1.0  0.24571000000000007  0.7956  0.26663999999999993  1.0000
  C   C132      1.0  0.17374000000000006  0.79276  0.21799999999999997  1.0000
  C   C133      1.0  0.18362000000000003  0.86377  0.19684999999999997  1.0000
  C   C134      1.0  0.29731  0.87773  0.18153  1.0000
  C   C135      1.0  0.37384  0.8729  0.22659  1.0000
  C   C136      1.0  0.35933  0.80428  0.24993999999999994  1.0000
  C   C137      1.0  0.23394  0.72428  0.28648  1.0000
  C   C138      1.0  0.32410000000000005  0.82901  0.12754  1.0000
  C   C139      1.0  0.4692500000000001  0.9879099999999998  0.83228  1.0000
  C   C140      1.0  0.49788  0.93561  0.8616599999999998  1.0000
  C   C141      1.0  0.4682400000000001  0.94562  0.9151999999999998  1.0000
  C   C142      1.0  0.4126000000000001  0.010960000000000008  0.94144  1.0000
  C   C143      1.0  0.38049  0.06048999999999997  0.9094899999999999  1.0000
  C   C144      1.0  0.40901  0.050419999999999986  0.85602  1.0000
  C   C145      1.0  0.5774  0.9320600000000001  0.7538999999999998  1.0000
  C   C146      1.0  0.49701000000000006  0.9717399999999999  0.69058  1.0000
  C   C147      1.0  0.4447  0.0010600000000000108  0.73726  1.0000
  C   C148      1.0  0.45185000000000003  0.8848400000000001  0.9919699999999998  1.0000
  C   C149      1.0  0.54581  0.7839699999999998  0.9616399999999998  1.0000
  C   C150      1.0  0.55581  0.82746  0.92524  1.0000
  C   C151      1.0  0.25395  0.13263  0.97547  1.0000
  C   C152      1.0  0.2361  0.23130000000000003  0.9416  1.0000
  C   C153      1.0  0.30788  0.18665000000000007  0.91079  1.0000
  C   C154      1.0  0.95678  0.08044  0.61838  1.0000
  C   C155      1.0  0.002660000000000001  0.14377  0.64938  1.0000
  C   C156      1.0  0.03882  0.20005  0.62428  1.0000
  C   C157      1.0  0.021270000000000004  0.19311999999999999  0.5690899999999999  1.0000
  C   C158      1.0  0.97694  0.12861  0.53923  1.0000
  C   C159      1.0  0.9466  0.06916999999999997  0.56231  1.0000
  C   C160      1.0  0.83064  0.98097  0.62447  1.0000
  C   C161      1.0  0.87746  0.9539799999999999  0.6997899999999999  1.0000
  C   C162      1.0  0.9444700000000001  0.008410000000000008  0.69133  1.0000
  C   C163      1.0  0.13768  0.31692999999999993  0.6318399999999998  1.0000
  C   C164      1.0  0.11964  0.27867  0.7076  1.0000
  C   C165      1.0  0.18283  0.3405599999999999  0.7165799999999998  1.0000
  C   C166      1.0  0.8810600000000002  0.08259999999999998  0.45487  1.0000
  C   C167      1.0  0.96855  0.13739999999999997  0.40087999999999996  1.0000
  C   C168      1.0  0.01701  0.15642999999999996  0.4496599999999999  1.0000
  C   C169      1.0  0.62674  0.8417499999999999  0.48386999999999997  1.0000
  C   C170      1.0  0.7148900000000001  0.8293  0.44246  1.0000
  C   C171      1.0  0.67229  0.8196799999999997  0.38548  1.0000
  C   C172      1.0  0.60425  0.88623  0.37896  1.0000
  C   C173      1.0  0.5199  0.9035999999999998  0.42266  1.0000
  C   C174      1.0  0.56226  0.91037  0.4797199999999999  1.0000
  C   C175      1.0  0.6667900000000002  0.84248  0.54028  1.0000
  C   C176      1.0  0.6707  0.95294  0.3750699999999999  1.0000
  C   C177      1.0  0.7474  0.7067099999999998  0.7362199999999998  1.0000
  C   C178      1.0  0.67396  0.7079099999999999  0.7839699999999997  1.0000
  C   C179      1.0  0.68324  0.63622  0.8044399999999999  1.0000
  C   C180      1.0  0.7965500000000002  0.62134  0.8200699999999997  1.0000
  C   C181      1.0  0.8733000000000001  0.62729  0.77539  1.0000
  C   C182      1.0  0.86039  0.69773  0.7539299999999998  1.0000
  C   C183      1.0  0.7361200000000001  0.77834  0.7164  1.0000
  C   C184      1.0  0.82393  0.66913  0.8745299999999998  1.0000
  N   N1        1.0  0.9210900000000002  0.42937  0.7010099999999999  1.0000
  N   N2        1.0  0.0036800000000000005  0.47606  0.7772699999999998  1.0000
  N   N3        1.0  0.01961  0.31728  0.00136  1.0000
  N   N4        1.0  0.00732  0.39027  0.94207  1.0000
  N   N5        1.0  0.3008  0.69665  0.9834399999999998  1.0000
  N   N6        1.0  0.18445  0.6229899999999999  0.9323099999999999  1.0000
  N   N7        1.0  0.69339  0.4363600000000001  0.6569799999999999  1.0000
  N   N8        1.0  0.58798  0.52541  0.64318  1.0000
  N   N9        1.0  0.30677  0.86233  0.6691999999999998  1.0000
  N   N10       1.0  0.41013000000000005  0.76245  0.6536  1.0000
  N   N11       1.0  0.61399  0.59215  0.40409  1.0000
  N   N12       1.0  0.53973  0.6228599999999999  0.48382999999999987  1.0000
  N   N13       1.0  0.42167000000000004  0.07142  0.2987  1.0000
  N   N14       1.0  0.5038100000000001  0.024859999999999993  0.22258999999999998  1.0000
  N   N15       1.0  0.52008  0.1821599999999999  0.9974299999999998  1.0000
  N   N16       1.0  0.50922  0.11025  0.05754999999999999  1.0000
  N   N17       1.0  0.79775  0.80225  0.01806  1.0000
  N   N18       1.0  0.68216  0.87672  0.06832999999999999  1.0000
  N   N19       1.0  0.19297  0.06257  0.3422  1.0000
  N   N20       1.0  0.08629  0.97424  0.3565  1.0000
  N   N21       1.0  0.80554  0.63639  0.33063  1.0000
  N   N22       1.0  0.9083900000000001  0.73688  0.3466199999999999  1.0000
  N   N23       1.0  0.11583000000000002  0.9084  0.59574  1.0000
  N   N24       1.0  0.040850000000000004  0.8770099999999998  0.51606  1.0000
  N   N25       1.0  0.07891  0.5706199999999999  0.2989899999999999  1.0000
  N   N26       1.0  0.9963200000000002  0.5239299999999999  0.22272999999999996  1.0000
  N   N27       1.0  0.98039  0.6827199999999999  0.9986399999999998  1.0000
  N   N28       1.0  0.9926800000000002  0.60973  0.05793  1.0000
  N   N29       1.0  0.69921  0.30334  0.01656  1.0000
  N   N30       1.0  0.8155500000000001  0.377  0.06769  1.0000
  N   N31       1.0  0.30661000000000005  0.56363  0.34301999999999994  1.0000
  N   N32       1.0  0.41203  0.47458999999999996  0.3568199999999999  1.0000
  N   N33       1.0  0.69323  0.13767  0.3308  1.0000
  N   N34       1.0  0.5898799999999998  0.23755  0.3463999999999999  1.0000
  N   N35       1.0  0.38601  0.40785000000000005  0.59591  1.0000
  N   N36       1.0  0.46028  0.37714  0.51617  1.0000
  N   N37       1.0  0.5783400000000001  0.9285799999999998  0.7013  1.0000
  N   N38       1.0  0.49619  0.9751399999999999  0.7774099999999998  1.0000
  N   N39       1.0  0.4799200000000001  0.81784  0.002569999999999999  1.0000
  N   N40       1.0  0.4907800000000001  0.88974  0.94245  1.0000
  N   N41       1.0  0.20226  0.19775  0.98194  1.0000
  N   N42       1.0  0.31785  0.12327999999999999  0.9316699999999999  1.0000
  N   N43       1.0  0.8070400000000002  0.93743  0.6577999999999999  1.0000
  N   N44       1.0  0.91372  0.025759999999999957  0.6434999999999998  1.0000
  N   N45       1.0  0.19446  0.36360999999999993  0.6693699999999998  1.0000
  N   N46       1.0  0.09161  0.26311999999999997  0.6533799999999997  1.0000
  N   N47       1.0  0.8841700000000001  0.09158999999999996  0.4042599999999999  1.0000
  N   N48       1.0  0.95915  0.12298999999999997  0.48394  1.0000
  O   O1        1.0  0.8950200000000001  0.37559  0.57995  1.0000
  O   O2        1.0  0.75104  0.31256999999999996  0.5473299999999999  1.0000
  O   O3        1.0  0.76692  0.44742999999999994  0.33317  1.0000
  O   O4        1.0  0.8307700000000001  0.51352  0.40972  1.0000
  O   O5        1.0  0.80844  0.2692699999999999  0.6667599999999998  1.0000
  O   O6        1.0  0.7358300000000002  0.33575999999999995  0.7431399999999999  1.0000
  O   O7        1.0  0.60352  0.22099999999999992  0.8784599999999998  1.0000
  O   O8        1.0  0.72465  0.16010000000000005  0.91367  1.0000
  O   O9        1.0  0.39173  0.12391000000000002  0.42014999999999997  1.0000
  O   O10       1.0  0.24958  0.18927  0.4527  1.0000
  O   O11       1.0  0.27036  0.05124000000000001  0.66669  1.0000
  O   O12       1.0  0.33350000000000013  0.9857299999999999  0.5899999999999999  1.0000
  O   O13       1.0  0.3017  0.22892  0.3315  1.0000
  O   O14       1.0  0.23766999999999996  0.16096999999999997  0.25332999999999994  1.0000
  O   O15       1.0  0.10502  0.27978  0.11926999999999999  1.0000
  O   O16       1.0  0.22319  0.34251  0.08414  1.0000
  O   O17       1.0  0.10499000000000003  0.62441  0.42005  1.0000
  O   O18       1.0  0.24896  0.68743  0.45267  1.0000
  O   O19       1.0  0.23308000000000006  0.55257  0.6668299999999998  1.0000
  O   O20       1.0  0.16924000000000003  0.48648  0.5902799999999999  1.0000
  O   O21       1.0  0.19156  0.73073  0.33324  1.0000
  O   O22       1.0  0.26417  0.66424  0.2568599999999999  1.0000
  O   O23       1.0  0.39648  0.7789999999999999  0.12154  1.0000
  O   O24       1.0  0.27536  0.8399  0.08632999999999998  1.0000
  O   O25       1.0  0.60827  0.8760899999999999  0.57986  1.0000
  O   O26       1.0  0.7504200000000002  0.8107299999999998  0.5472999999999999  1.0000
  O   O27       1.0  0.7296500000000002  0.9487500000000001  0.33331  1.0000
  O   O28       1.0  0.66651  0.014269999999999967  0.40999999999999986  1.0000
  O   O29       1.0  0.69831  0.77108  0.6685  1.0000
  O   O30       1.0  0.76233  0.8390299999999998  0.74667  1.0000
  O   O31       1.0  0.89499  0.7202199999999999  0.8807299999999998  1.0000
  O   O32       1.0  0.7768200000000001  0.65749  0.9158599999999999  1.0000
