data_image0
_chemical_formula_structural       Eu16H144C288O96
_chemical_formula_sum              "Eu16 H144 C288 O96"
_cell_length_a       14.97556
_cell_length_b       23.174439999999997
_cell_length_c       23.16933
_cell_angle_alpha    83.97489
_cell_angle_beta     71.08346
_cell_angle_gamma    71.06069

_symmetry_space_group_name_H-M    'P 1'
_symmetry_Int_Tables_number       1

loop_
  _symmetry_equiv_pos_as_xyz
  'x,y,z'

loop_
  _atom_site_type_symbol
  _atom_site_label
  _atom_site_symmetry_multiplicity
  _atom_site_fract_x
  _atom_site_fract_y
  _atom_site_fract_z
  _atom_site_occupancy
  Eu  Eu1       1.0  0.20564999999999997  0.74047  0.20529  1.0000
  Eu  Eu2       1.0  0.46884999999999993  0.74838  0.19011  1.0000
  Eu  Eu3       1.0  0.15153  0.25948  0.79459  1.0000
  Eu  Eu4       1.0  0.4074199999999999  0.25196  0.8096900000000001  1.0000
  Eu  Eu5       1.0  0.19611999999999996  0.70609  0.7593100000000002  1.0000
  Eu  Eu6       1.0  0.4677  0.68913  0.75065  1.0000
  Eu  Eu7       1.0  0.66034  0.29471  0.24108  1.0000
  Eu  Eu8       1.0  0.90877  0.30969  0.24839  1.0000
  Eu  Eu9       1.0  0.7059400000000001  0.20543999999999996  0.7405499999999999  1.0000
  Eu  Eu10      1.0  0.9682799999999998  0.19049  0.74858  1.0000
  Eu  Eu11      1.0  0.6511199999999997  0.7946699999999999  0.25934  1.0000
  Eu  Eu12      1.0  0.9069999999999998  0.80957  0.25184  1.0000
  Eu  Eu13      1.0  0.6954299999999999  0.75932  0.70558  1.0000
  Eu  Eu14      1.0  0.96787  0.75193  0.69004  1.0000
  Eu  Eu15      1.0  0.16053999999999988  0.2402  0.29481  1.0000
  Eu  Eu16      1.0  0.40847000000000006  0.24835  0.30945  1.0000
  H   H1        1.0  0.4047300000000001  0.67246  0.9978300000000001  1.0000
  H   H2        1.0  0.50291  0.67758  0.8888  1.0000
  H   H3        1.0  0.5660500000000002  0.8701  0.8692200000000001  1.0000
  H   H4        1.0  0.5344700000000003  0.95153  0.94067  1.0000
  H   H5        1.0  0.4379699999999998  0.94518  0.05091  1.0000
  H   H6        1.0  0.37986999999999993  0.85648  0.08828  1.0000
  H   H7        1.0  0.24076000000000009  0.70217  0.50638  1.0000
  H   H8        1.0  0.34327  0.70316  0.39707  1.0000
  H   H9        1.0  0.16513999999999998  0.88476  0.31417  1.0000
  H   H10       1.0  0.014579999999999992  0.9716099999999999  0.35614  1.0000
  H   H11       1.0  0.9176599999999998  0.9738799999999999  0.46639  1.0000
  H   H12       1.0  0.97263  0.88919  0.53489  1.0000
  H   H13       1.0  0.36673999999999984  0.5532899999999998  0.17412  1.0000
  H   H14       1.0  0.36658  0.44549  0.19819  1.0000
  H   H15       1.0  0.43934999999999996  0.40176  0.38717  1.0000
  H   H16       1.0  0.46965999999999986  0.45969999999999994  0.45866000000000007  1.0000
  H   H17       1.0  0.46754999999999997  0.56796  0.43573  1.0000
  H   H18       1.0  0.4362399999999998  0.61708  0.3411  1.0000
  H   H19       1.0  0.07605999999999999  0.32799999999999996  0.00263  1.0000
  H   H20       1.0  0.07032999999999999  0.3218  0.11154000000000001  1.0000
  H   H21       1.0  0.30722  0.12926  0.12978  1.0000
  H   H22       1.0  0.42833999999999994  0.04784999999999999  0.05799  1.0000
  H   H23       1.0  0.43381999999999993  0.05415  0.94807  1.0000
  H   H24       1.0  0.32438999999999985  0.14324999999999996  0.9111600000000001  1.0000
  H   H25       1.0  0.4503599999999998  0.2987699999999999  0.49287  1.0000
  H   H26       1.0  0.44604000000000005  0.29676  0.60183  1.0000
  H   H27       1.0  0.36554999999999993  0.11571  0.68458  1.0000
  H   H28       1.0  0.34353000000000006  0.029159999999999995  0.64256  1.0000
  H   H29       1.0  0.3584299999999999  0.027469999999999998  0.53244  1.0000
  H   H30       1.0  0.39672999999999997  0.11228  0.46419  1.0000
  H   H31       1.0  0.09304000000000003  0.4478299999999999  0.82576  1.0000
  H   H32       1.0  0.011479999999999992  0.55619  0.8014  1.0000
  H   H33       1.0  0.23114999999999977  0.5981  0.61259  1.0000
  H   H34       1.0  0.39083000000000007  0.53933  0.54106  1.0000
  H   H35       1.0  0.47263999999999995  0.43078  0.56416  1.0000
  H   H36       1.0  0.39458000000000004  0.3821  0.6587  1.0000
  H   H37       1.0  0.32882  0.49797  0.82758  1.0000
  H   H38       1.0  0.43157000000000006  0.38878999999999997  0.82166  1.0000
  H   H39       1.0  0.6877500000000001  0.36961999999999995  0.62923  1.0000
  H   H40       1.0  0.7376699999999999  0.44118  0.54788  1.0000
  H   H41       1.0  0.6330799999999996  0.5511  0.55375  1.0000
  H   H42       1.0  0.48607000000000006  0.58829  0.64269  1.0000
  H   H43       1.0  0.19413  0.00796  0.7976400000000001  1.0000
  H   H44       1.0  0.29832000000000014  0.8988999999999998  0.79647  1.0000
  H   H45       1.0  0.29872000000000004  0.8147599999999999  0.61646  1.0000
  H   H46       1.0  0.23494  0.85657  0.52968  1.0000
  H   H47       1.0  0.14104999999999995  0.96685  0.52696  1.0000
  H   H48       1.0  0.11345  0.03583  0.61064  1.0000
  H   H49       1.0  0.16843  0.67347  0.94826  1.0000
  H   H50       1.0  0.061230000000000034  0.69879  0.0563  1.0000
  H   H51       1.0  0.09271999999999998  0.8872  0.09785000000000002  1.0000
  H   H52       1.0  0.18118999999999993  0.95832  0.03897  1.0000
  H   H53       1.0  0.28647000000000017  0.93477  0.9305500000000001  1.0000
  H   H54       1.0  0.3032500000000001  0.8401199999999999  0.8820599999999998  1.0000
  H   H55       1.0  0.6546200000000001  0.50198  0.17225  1.0000
  H   H56       1.0  0.6427999999999998  0.61099  0.17782  1.0000
  H   H57       1.0  0.6864000000000001  0.63039  0.3703  1.0000
  H   H58       1.0  0.72661  0.5587199999999999  0.45165  1.0000
  H   H59       1.0  0.73768  0.4489  0.44593  1.0000
  H   H60       1.0  0.71706  0.41177  0.35713  1.0000
  H   H61       1.0  0.9979099999999997  0.99329  0.20156000000000002  1.0000
  H   H62       1.0  0.9917299999999999  0.10224999999999998  0.20365999999999998  1.0000
  H   H63       1.0  0.7299500000000001  0.18508999999999998  0.38486  1.0000
  H   H64       1.0  0.6213699999999998  0.14315  0.47157  1.0000
  H   H65       1.0  0.6348999999999998  0.03302  0.47364  1.0000
  H   H66       1.0  0.7582599999999999  0.96458  0.38888999999999996  1.0000
  H   H67       1.0  0.7904299999999999  0.32596  0.05251  1.0000
  H   H68       1.0  0.8168199999999999  0.30161999999999994  0.9443499999999999  1.0000
  H   H69       1.0  0.07808000000000004  0.11246  0.90221  1.0000
  H   H70       1.0  0.17942000000000002  0.04109  0.96069  1.0000
  H   H71       1.0  0.15372  0.0646  0.06888  1.0000
  H   H72       1.0  0.027039999999999995  0.15925  0.11765  1.0000
  H   H73       1.0  0.9068900000000001  0.9981  0.67225  1.0000
  H   H74       1.0  0.0027700000000000194  0.8888  0.67838  1.0000
  H   H75       1.0  0.06611000000000017  0.8696299999999998  0.8707699999999999  1.0000
  H   H76       1.0  0.03514000000000002  0.9412999999999999  0.95187  1.0000
  H   H77       1.0  0.9368899999999999  0.05128  0.94589  1.0000
  H   H78       1.0  0.8792699999999999  0.08858  0.85698  1.0000
  H   H79       1.0  0.73809  0.50665  0.70298  1.0000
  H   H80       1.0  0.8415699999999999  0.3976399999999999  0.70364  1.0000
  H   H81       1.0  0.66585  0.3135  0.88497  1.0000
  H   H82       1.0  0.5153799999999998  0.35456  0.9721200000000001  1.0000
  H   H83       1.0  0.41723000000000005  0.46458999999999995  0.97519  1.0000
  H   H84       1.0  0.47136  0.53394  0.89123  1.0000
  H   H85       1.0  0.8664800000000001  0.17421999999999999  0.55326  1.0000
  H   H86       1.0  0.8672900000000001  0.1982  0.44525  1.0000
  H   H87       1.0  0.93968  0.38705  0.40168  1.0000
  H   H88       1.0  0.9699  0.45862  0.45963  1.0000
  H   H89       1.0  0.9675599999999996  0.43576  0.56797  1.0000
  H   H90       1.0  0.93602  0.34126  0.61719  1.0000
  H   H91       1.0  0.57617  0.0025  0.32797  1.0000
  H   H92       1.0  0.5710399999999998  0.11128999999999999  0.32218  1.0000
  H   H93       1.0  0.8075299999999999  0.12975999999999996  0.12965  1.0000
  H   H94       1.0  0.9287  0.058039999999999994  0.04812  1.0000
  H   H95       1.0  0.9340700000000001  0.9481699999999998  0.05418  1.0000
  H   H96       1.0  0.82441  0.9112299999999999  0.14313  1.0000
  H   H97       1.0  0.9499299999999999  0.49339  0.2988  1.0000
  H   H98       1.0  0.94562  0.6022899999999999  0.2967  1.0000
  H   H99       1.0  0.86427  0.68508  0.11583  1.0000
  H   H100      1.0  0.84296  0.64288  0.02911  1.0000
  H   H101      1.0  0.85909  0.53257  0.027129999999999998  1.0000
  H   H102      1.0  0.8974399999999998  0.46439999999999987  0.11198  1.0000
  H   H103      1.0  0.5910799999999996  0.8255799999999999  0.44772999999999996  1.0000
  H   H104      1.0  0.50892  0.80064  0.5558  1.0000
  H   H105      1.0  0.73128  0.61259  0.59797  1.0000
  H   H106      1.0  0.8912100000000001  0.54158  0.53889  1.0000
  H   H107      1.0  0.9723599999999999  0.56512  0.43035000000000007  1.0000
  H   H108      1.0  0.8934800000000002  0.65985  0.38218  1.0000
  H   H109      1.0  0.82849  0.8287799999999999  0.49764  1.0000
  H   H110      1.0  0.93122  0.8222599999999998  0.38854  1.0000
  H   H111      1.0  0.18668999999999977  0.62957  0.36964  1.0000
  H   H112      1.0  0.23654000000000003  0.54846  0.44155  1.0000
  H   H113      1.0  0.13233  0.55506  0.55159  1.0000
  H   H114      1.0  0.98626  0.6444099999999999  0.58865  1.0000
  H   H115      1.0  0.6932499999999999  0.79836  0.00614  1.0000
  H   H116      1.0  0.79757  0.79646  0.89699  1.0000
  H   H117      1.0  0.7998200000000002  0.61552  0.8142  1.0000
  H   H118      1.0  0.7358700000000001  0.52887  0.85628  1.0000
  H   H119      1.0  0.64114  0.52694  0.96655  1.0000
  H   H120      1.0  0.61129  0.6118  0.0349  1.0000
  H   H121      1.0  0.6678699999999996  0.9476699999999999  0.67477  1.0000
  H   H122      1.0  0.56252  0.05626  0.69865  1.0000
  H   H123      1.0  0.5926500000000001  0.09857999999999999  0.88726  1.0000
  H   H124      1.0  0.68061  0.04009  0.9588  1.0000
  H   H125      1.0  0.7861799999999998  0.9316299999999997  0.9357700000000001  1.0000
  H   H126      1.0  0.8028399999999996  0.88258  0.8414  1.0000
  H   H127      1.0  0.15368000000000004  0.17232999999999998  0.50233  1.0000
  H   H128      1.0  0.14175000000000007  0.17807999999999996  0.61132  1.0000
  H   H129      1.0  0.18636000000000005  0.37029999999999996  0.6304  1.0000
  H   H130      1.0  0.22644  0.4515999999999999  0.5587  1.0000
  H   H131      1.0  0.23764999999999997  0.44577  0.44884  1.0000
  H   H132      1.0  0.21723000000000006  0.35686999999999997  0.41174  1.0000
  H   H133      1.0  0.4978799999999998  0.20089  0.9936900000000001  1.0000
  H   H134      1.0  0.49144  0.20286999999999997  0.10274000000000001  1.0000
  H   H135      1.0  0.2306  0.38476  0.18511  1.0000
  H   H136      1.0  0.12227000000000003  0.4714399999999999  0.14288  1.0000
  H   H137      1.0  0.13549  0.47301  0.03278  1.0000
  H   H138      1.0  0.25855000000000006  0.38785  0.96467  1.0000
  H   H139      1.0  0.2907099999999999  0.05267  0.32591  1.0000
  H   H140      1.0  0.31594  0.94474  0.30147  1.0000
  H   H141      1.0  0.5778200000000001  0.9018799999999999  0.11249  1.0000
  H   H142      1.0  0.6794600000000001  0.9600999999999998  0.0411  1.0000
  H   H143      1.0  0.65396  0.06833999999999998  0.06442  1.0000
  H   H144      1.0  0.52736  0.11727999999999997  0.15902  1.0000
  C   C1        1.0  0.40566000000000013  0.7588399999999997  0.02121  1.0000
  C   C2        1.0  0.43000999999999995  0.71174  0.98067  1.0000
  C   C3        1.0  0.48388999999999993  0.7151  0.91948  1.0000
  C   C4        1.0  0.51196  0.76675  0.89618  1.0000
  C   C5        1.0  0.49249  0.81529  0.93673  1.0000
  C   C6        1.0  0.52521  0.86728  0.9170100000000001  1.0000
  C   C7        1.0  0.5064400000000002  0.9130699999999998  0.95735  1.0000
  C   C8        1.0  0.4529500000000001  0.9093  0.01914  1.0000
  C   C9        1.0  0.41979999999999995  0.85934  0.04028  1.0000
  C   C10       1.0  0.4389600000000001  0.81099  0.00057  1.0000
  C   C11       1.0  0.3429299999999999  0.7504299999999999  0.08463  1.0000
  C   C12       1.0  0.5588500000000001  0.7681399999999999  0.8283400000000001  1.0000
  C   C13       1.0  0.13248000000000004  0.7873899999999999  0.50194  1.0000
  C   C14       1.0  0.21895000000000012  0.74001  0.47671  1.0000
  C   C15       1.0  0.2754  0.74027  0.41542  1.0000
  C   C16       1.0  0.24427999999999997  0.78734  0.37702  1.0000
  C   C17       1.0  0.15620999999999988  0.8370099999999999  0.40043000000000006  1.0000
  C   C18       1.0  0.12333999999999994  0.88608  0.36244  1.0000
  C   C19       1.0  0.038880000000000116  0.93449  0.3859099999999999  1.0000
  C   C20       1.0  0.9842599999999996  0.9357499999999999  0.4483599999999999  1.0000
  C   C21       1.0  0.014350000000000035  0.8888099999999999  0.48676  1.0000
  C   C22       1.0  0.10016000000000004  0.83791  0.46433  1.0000
  C   C23       1.0  0.07858000000000004  0.77922  0.56795  1.0000
  C   C24       1.0  0.30873000000000006  0.78364  0.31181  1.0000
  C   C25       1.0  0.3990599999999999  0.56546  0.25421  1.0000
  C   C26       1.0  0.38094  0.53145  0.21551999999999996  1.0000
  C   C27       1.0  0.38079  0.47120999999999996  0.22914  1.0000
  C   C28       1.0  0.40033000000000013  0.44366999999999995  0.28187  1.0000
  C   C29       1.0  0.41863  0.47657999999999995  0.32318  1.0000
  C   C30       1.0  0.4374199999999999  0.4491  0.37757  1.0000
  C   C31       1.0  0.45431999999999995  0.48163  0.41757  1.0000
  C   C32       1.0  0.45253  0.54271  0.4047799999999999  1.0000
  C   C33       1.0  0.43467000000000006  0.57069  0.35205  1.0000
  C   C34       1.0  0.41777000000000003  0.53876  0.30957  1.0000
  C   C35       1.0  0.39792  0.62916  0.23402  1.0000
  C   C36       1.0  0.40169  0.37884  0.29418  1.0000
  C   C37       1.0  0.18607000000000007  0.24121  0.9786  1.0000
  C   C38       1.0  0.12319000000000002  0.28822  0.01945  1.0000
  C   C39       1.0  0.11938999999999998  0.28437  0.08061  1.0000
  C   C40       1.0  0.1762199999999999  0.23254999999999995  0.10354000000000001  1.0000
  C   C41       1.0  0.24565999999999996  0.18422  0.06263  1.0000
  C   C42       1.0  0.31102  0.13211999999999996  0.08207  1.0000
  C   C43       1.0  0.3781399999999999  0.08637  0.04155  1.0000
  C   C44       1.0  0.3816999999999997  0.09015999999999999  0.9799500000000001  1.0000
  C   C45       1.0  0.31951999999999997  0.14028999999999997  0.95908  1.0000
  C   C46       1.0  0.25101  0.18874  0.99892  1.0000
  C   C47       1.0  0.1777899999999999  0.24972  0.9153200000000001  1.0000
  C   C48       1.0  0.15769  0.23069  0.17132  1.0000
  C   C49       1.0  0.42189999999999994  0.21394999999999997  0.49719  1.0000
  C   C50       1.0  0.43676999999999994  0.26081999999999994  0.52237  1.0000
  C   C51       1.0  0.4329200000000001  0.26001  0.58354  1.0000
  C   C52       1.0  0.41011999999999976  0.21304  0.62196  1.0000
  C   C53       1.0  0.3946299999999999  0.16375  0.59847  1.0000
  C   C54       1.0  0.3730599999999998  0.1146  0.63637  1.0000
  C   C55       1.0  0.36026  0.06638  0.61291  1.0000
  C   C56       1.0  0.3688499999999998  0.06547  0.55056  1.0000
  C   C57       1.0  0.3901199999999999  0.11253  0.51225  1.0000
  C   C58       1.0  0.40281000000000006  0.16327  0.53465  1.0000
  C   C59       1.0  0.42438  0.22254  0.43149000000000004  1.0000
  C   C60       1.0  0.40439  0.21702  0.68738  1.0000
  C   C61       1.0  0.21856999999999996  0.43477999999999994  0.7457900000000001  1.0000
  C   C62       1.0  0.12785999999999995  0.46934  0.7844100000000002  1.0000
  C   C63       1.0  0.08223000000000003  0.52981  0.77067  1.0000
  C   C64       1.0  0.12775999999999998  0.55687  0.71788  1.0000
  C   C65       1.0  0.22020000000000003  0.52351  0.67666  1.0000
  C   C66       1.0  0.2665800000000001  0.55066  0.62221  1.0000
  C   C67       1.0  0.3558399999999998  0.51767  0.58223  1.0000
  C   C68       1.0  0.40150999999999987  0.45642  0.59515  1.0000
  C   C69       1.0  0.35818999999999995  0.42874  0.64792  1.0000
  C   C70       1.0  0.26697  0.46114  0.69041  1.0000
  C   C71       1.0  0.26  0.37089  0.76597  1.0000
  C   C72       1.0  0.07651000000000006  0.62163  0.70549  1.0000
  C   C73       1.0  0.41530999999999996  0.52138  0.74073  1.0000
  C   C74       1.0  0.3929400000000001  0.48082  0.78793  1.0000
  C   C75       1.0  0.45009000000000005  0.41958  0.78422  1.0000
  C   C76       1.0  0.5299199999999995  0.39633999999999997  0.73249  1.0000
  C   C77       1.0  0.5589699999999999  0.437  0.68408  1.0000
  C   C78       1.0  0.6439099999999999  0.41736999999999996  0.63205  1.0000
  C   C79       1.0  0.67082  0.45775  0.58627  1.0000
  C   C80       1.0  0.61277  0.51939  0.58987  1.0000
  C   C81       1.0  0.5295100000000001  0.54042  0.63989  1.0000
  C   C82       1.0  0.5007199999999999  0.50075  0.68842  1.0000
  C   C83       1.0  0.3435400000000001  0.58462  0.74902  1.0000
  C   C84       1.0  0.5789099999999999  0.32856  0.73085  1.0000
  C   C85       1.0  0.16895999999999992  0.00282  0.7133  1.0000
  C   C86       1.0  0.20951999999999987  0.97804  0.76013  1.0000
  C   C87       1.0  0.2665499999999999  0.91686  0.7597800000000001  1.0000
  C   C88       1.0  0.2818199999999999  0.8780099999999998  0.71329  1.0000
  C   C89       1.0  0.24243999999999996  0.90113  0.66397  1.0000
  C   C90       1.0  0.2583300000000002  0.8630399999999999  0.61508  1.0000
  C   C91       1.0  0.22211999999999993  0.8864  0.56673  1.0000
  C   C92       1.0  0.16921999999999987  0.94889  0.56518  1.0000
  C   C93       1.0  0.15303999999999993  0.9874899999999999  0.61179  1.0000
  C   C94       1.0  0.1872900000000001  0.9650599999999999  0.66291  1.0000
  C   C95       1.0  0.10482000000000002  0.0682  0.72206  1.0000
  C   C96       1.0  0.34267  0.8128199999999998  0.71791  1.0000
  C   C97       1.0  0.21434000000000009  0.7532399999999999  0.93509  1.0000
  C   C98       1.0  0.16173999999999997  0.71495  0.96957  1.0000
  C   C99       1.0  0.10189  0.7291  0.02988  1.0000
  C   C100      1.0  0.0950299999999999  0.78181  0.05686  1.0000
  C   C101      1.0  0.14642000000000005  0.8227999999999999  0.023480000000000004  1.0000
  C   C102      1.0  0.13810999999999998  0.87731  0.05050000000000001  1.0000
  C   C103      1.0  0.18754999999999997  0.91708  0.01741  1.0000
  C   C104      1.0  0.24631999999999984  0.9039  0.95623  1.0000
  C   C105      1.0  0.2558900000000001  0.85106  0.9286499999999999  1.0000
  C   C106      1.0  0.20714000000000007  0.80875  0.9612099999999999  1.0000
  C   C107      1.0  0.2767399999999998  0.7327399999999998  0.87138  1.0000
  C   C108      1.0  0.031709999999999974  0.79438  0.1216  1.0000
  C   C109      1.0  0.6771299999999999  0.4785699999999999  0.25923  1.0000
  C   C110      1.0  0.6618100000000001  0.51906  0.2119  1.0000
  C   C111      1.0  0.6543099999999998  0.58023  0.21535  1.0000
  C   C112      1.0  0.6587999999999999  0.60365  0.26701  1.0000
  C   C113      1.0  0.6797099999999999  0.56307  0.3156  1.0000
  C   C114      1.0  0.6931199999999996  0.58266  0.36752  1.0000
  C   C115      1.0  0.7145399999999998  0.54227  0.41334  1.0000
  C   C116      1.0  0.72165  0.48068  0.40987999999999997  1.0000
  C   C117      1.0  0.7094599999999999  0.45966  0.35995  1.0000
  C   C118      1.0  0.68952  0.49931  0.31143  1.0000
  C   C119      1.0  0.67705  0.41525  0.25124  1.0000
  C   C120      1.0  0.63785  0.67155  0.2683  1.0000
  C   C121      1.0  0.8843799999999997  0.9976999999999999  0.28648  1.0000
  C   C122      1.0  0.9463399999999996  0.02281  0.23958  1.0000
  C   C123      1.0  0.9418899999999996  0.08392  0.24046999999999996  1.0000
  C   C124      1.0  0.87217  0.12234  0.28753  1.0000
  C   C125      1.0  0.8072  0.09893  0.33688  1.0000
  C   C126      1.0  0.73637  0.13688  0.38605  1.0000
  C   C127      1.0  0.67535  0.11343999999999999  0.43436  1.0000
  C   C128      1.0  0.68327  0.051039999999999995  0.43543  1.0000
  C   C129      1.0  0.7516899999999997  0.01269  0.38835  1.0000
  C   C130      1.0  0.8148399999999998  0.03511  0.33737  1.0000
  C   C131      1.0  0.89506  0.93213  0.27763  1.0000
  C   C132      1.0  0.8709199999999999  0.18767  0.28328  1.0000
  C   C133      1.0  0.90286  0.24589999999999995  0.06553  1.0000
  C   C134      1.0  0.84658  0.28451  0.03106  1.0000
  C   C135      1.0  0.8610799999999998  0.27075  0.97067  1.0000
  C   C136      1.0  0.93356  0.21784999999999996  0.9435400000000002  1.0000
  C   C137      1.0  0.9926199999999998  0.17662  0.9768300000000001  1.0000
  C   C138      1.0  0.06614  0.12217  0.9496  1.0000
  C   C139      1.0  0.12280000000000003  0.08229  0.98239  1.0000
  C   C140      1.0  0.10772000000000002  0.09536999999999998  0.04348  1.0000
  C   C141      1.0  0.036709999999999986  0.14816  0.07123  1.0000
  C   C142      1.0  0.9773999999999997  0.19046999999999997  0.03908  1.0000
  C   C143      1.0  0.8806299999999996  0.26608  0.12943  1.0000
  C   C144      1.0  0.9475900000000002  0.20551999999999998  0.87869  1.0000
  C   C145      1.0  0.9061599999999999  0.02153  0.75909  1.0000
  C   C146      1.0  0.93098  0.98091  0.71197  1.0000
  C   C147      1.0  0.9839499999999995  0.9196099999999999  0.71578  1.0000
  C   C148      1.0  0.011600000000000114  0.89634  0.7675999999999998  1.0000
  C   C149      1.0  0.99236  0.9370699999999998  0.8158999999999998  1.0000
  C   C150      1.0  0.02528999999999989  0.9174  0.86786  1.0000
  C   C151      1.0  0.006610000000000024  0.95781  0.91354  1.0000
  C   C152      1.0  0.9524199999999999  0.01949  0.90988  1.0000
  C   C153      1.0  0.9192700000000001  0.04061  0.85992  1.0000
  C   C154      1.0  0.9388499999999995  0.0008999999999999999  0.8114800000000001  1.0000
  C   C155      1.0  0.8431099999999999  0.08484  0.7507  1.0000
  C   C156      1.0  0.057940000000000096  0.8284599999999998  0.76956  1.0000
  C   C157      1.0  0.6306299999999999  0.50184  0.78862  1.0000
  C   C158      1.0  0.71675  0.47687999999999997  0.74087  1.0000
  C   C159      1.0  0.77386  0.41566  0.74095  1.0000
  C   C160      1.0  0.7437  0.3770299999999999  0.78806  1.0000
  C   C161      1.0  0.65564  0.40008999999999995  0.83779  1.0000
  C   C162      1.0  0.6235100000000001  0.36169  0.88662  1.0000
  C   C163      1.0  0.5391000000000001  0.38464  0.9352000000000001  1.0000
  C   C164      1.0  0.4838099999999998  0.44698  0.9368900000000001  1.0000
  C   C165      1.0  0.5132799999999998  0.48582  0.89023  1.0000
  C   C166      1.0  0.59902  0.46390999999999993  0.83908  1.0000
  C   C167      1.0  0.57553  0.56784  0.7815300000000001  1.0000
  C   C168      1.0  0.8087900000000001  0.31192999999999993  0.7841799999999999  1.0000
  C   C169      1.0  0.8989199999999997  0.25428  0.56552  1.0000
  C   C170      1.0  0.88085  0.2156  0.53149  1.0000
  C   C171      1.0  0.88115  0.22914  0.47116  1.0000
  C   C172      1.0  0.90079  0.28183  0.44365  1.0000
  C   C173      1.0  0.9188  0.32321  0.47659999999999997  1.0000
  C   C174      1.0  0.93762  0.37756999999999996  0.44908  1.0000
  C   C175      1.0  0.9544899999999998  0.41756  0.4816  1.0000
  C   C176      1.0  0.9525699999999997  0.4047899999999999  0.54273  1.0000
  C   C177      1.0  0.9345399999999999  0.35212999999999994  0.57076  1.0000
  C   C178      1.0  0.9176899999999999  0.30963  0.53884  1.0000
  C   C179      1.0  0.8979400000000001  0.23410999999999998  0.62921  1.0000
  C   C180      1.0  0.9021300000000001  0.29404  0.37883  1.0000
  C   C181      1.0  0.6859299999999998  0.9786  0.24113000000000004  1.0000
  C   C182      1.0  0.6233100000000001  0.01938  0.28826  1.0000
  C   C183      1.0  0.61982  0.08046  0.28462  1.0000
  C   C184      1.0  0.6764299999999998  0.10348  0.23279000000000002  1.0000
  C   C185      1.0  0.74577  0.06261  0.18438  1.0000
  C   C186      1.0  0.8112599999999998  0.08205999999999998  0.13238  1.0000
  C   C187      1.0  0.8784099999999998  0.04157999999999999  0.08655  1.0000
  C   C188      1.0  0.8819  0.98002  0.09023  1.0000
  C   C189      1.0  0.81955  0.95914  0.14028  1.0000
  C   C190      1.0  0.75097  0.99893  0.18876  1.0000
  C   C191      1.0  0.6776499999999996  0.91533  0.24965  1.0000
  C   C192      1.0  0.6575099999999998  0.17133  0.23098000000000002  1.0000
  C   C193      1.0  0.9214700000000001  0.49763999999999997  0.21391999999999997  1.0000
  C   C194      1.0  0.9362600000000001  0.52283  0.26082  1.0000
  C   C195      1.0  0.93239  0.584  0.26  1.0000
  C   C196      1.0  0.9093600000000001  0.62244  0.21309999999999998  1.0000
  C   C197      1.0  0.89398  0.59895  0.16375  1.0000
  C   C198      1.0  0.8721899999999997  0.63682  0.11462  1.0000
  C   C199      1.0  0.8598299999999997  0.6132199999999999  0.06631  1.0000
  C   C200      1.0  0.8690799999999996  0.55077  0.06525  1.0000
  C   C201      1.0  0.8903599999999997  0.51252  0.11235  1.0000
  C   C202      1.0  0.9024899999999998  0.53508  0.1632  1.0000
  C   C203      1.0  0.9240800000000001  0.43194999999999995  0.22255000000000003  1.0000
  C   C204      1.0  0.90426  0.68775  0.21701000000000004  1.0000
  C   C205      1.0  0.7172800000000003  0.7460699999999998  0.43498  1.0000
  C   C206      1.0  0.6260199999999999  0.78431  0.46929999999999994  1.0000
  C   C207      1.0  0.5802699999999995  0.77032  0.52964  1.0000
  C   C208      1.0  0.62648  0.71787  0.55694  1.0000
  C   C209      1.0  0.7193699999999998  0.67688  0.52365  1.0000
  C   C210      1.0  0.76632  0.62244  0.55056  1.0000
  C   C211      1.0  0.8557999999999999  0.58274  0.51737  1.0000
  C   C212      1.0  0.90116  0.59589  0.45614999999999994  1.0000
  C   C213      1.0  0.85735  0.6486499999999998  0.42871  1.0000
  C   C214      1.0  0.7658799999999999  0.69082  0.46131000000000005  1.0000
  C   C215      1.0  0.7593299999999998  0.76636  0.37119  1.0000
  C   C216      1.0  0.5752799999999999  0.70572  0.62165  1.0000
  C   C217      1.0  0.9149200000000001  0.7418599999999997  0.52146  1.0000
  C   C218      1.0  0.8924199999999999  0.7889699999999998  0.4807600000000001  1.0000
  C   C219      1.0  0.9495  0.785  0.41954  1.0000
  C   C220      1.0  0.02931000000000008  0.73325  0.39626999999999996  1.0000
  C   C221      1.0  0.0583100000000001  0.68491  0.43698  1.0000
  C   C222      1.0  0.14305  0.63274  0.41744  1.0000
  C   C223      1.0  0.16992999999999997  0.58705  0.45798  1.0000
  C   C224      1.0  0.11211999999999998  0.59099  0.51965  1.0000
  C   C225      1.0  0.029100000000000042  0.6412  0.54064  1.0000
  C   C226      1.0  0.0002900000000000192  0.68951  0.5008  1.0000
  C   C227      1.0  0.8433999999999999  0.7498499999999998  0.58479  1.0000
  C   C228      1.0  0.07783999999999998  0.7316  0.32838  1.0000
  C   C229      1.0  0.66921  0.71344  0.00186  1.0000
  C   C230      1.0  0.7091199999999996  0.7604099999999999  0.9766399999999998  1.0000
  C   C231      1.0  0.7661300000000001  0.7597199999999998  0.91541  1.0000
  C   C232      1.0  0.7818099999999997  0.71269  0.8770300000000001  1.0000
  C   C233      1.0  0.7430199999999999  0.66332  0.9004600000000001  1.0000
  C   C234      1.0  0.7593499999999999  0.61423  0.8624700000000001  1.0000
  C   C235      1.0  0.7231599999999996  0.56595  0.8860199999999999  1.0000
  C   C236      1.0  0.6696600000000001  0.56497  0.94844  1.0000
  C   C237      1.0  0.65272  0.61199  0.9868000000000001  1.0000
  C   C238      1.0  0.6876100000000002  0.66277  0.9643299999999999  1.0000
  C   C239      1.0  0.60588  0.7221899999999999  0.06767  1.0000
  C   C240      1.0  0.8419899999999999  0.71665  0.81177  1.0000
  C   C241      1.0  0.7133999999999999  0.9348599999999999  0.7545600000000001  1.0000
  C   C242      1.0  0.6613999999999997  0.9693799999999999  0.71594  1.0000
  C   C243      1.0  0.60236  0.0299  0.7294  1.0000
  C   C244      1.0  0.59515  0.05703999999999999  0.78211  1.0000
  C   C245      1.0  0.64607  0.02376  0.82338  1.0000
  C   C246      1.0  0.63774  0.05112  0.8777200000000001  1.0000
  C   C247      1.0  0.68696  0.018259999999999995  0.91771  1.0000
  C   C248      1.0  0.74581  0.95704  0.90487  1.0000
  C   C249      1.0  0.7553799999999999  0.92917  0.85219  1.0000
  C   C250      1.0  0.7065299999999999  0.96136  0.80978  1.0000
  C   C251      1.0  0.7746  0.8708799999999999  0.7341900000000001  1.0000
  C   C252      1.0  0.53201  0.12179  0.7944  1.0000
  C   C253      1.0  0.17678999999999986  0.25908  0.47869000000000006  1.0000
  C   C254      1.0  0.16111000000000006  0.21192999999999998  0.51932  1.0000
  C   C255      1.0  0.15363000000000002  0.21548  0.58048  1.0000
  C   C256      1.0  0.1587099999999999  0.26701  0.60373  1.0000
  C   C257      1.0  0.17979999999999988  0.3155  0.56307  1.0000
  C   C258      1.0  0.19322000000000003  0.3674299999999999  0.58265  1.0000
  C   C259      1.0  0.21464000000000003  0.41320999999999997  0.54221  1.0000
  C   C260      1.0  0.22175000000000003  0.40967999999999993  0.48062  1.0000
  C   C261      1.0  0.20954000000000003  0.35973  0.45964  1.0000
  C   C262      1.0  0.18948000000000004  0.31126  0.49931999999999993  1.0000
  C   C263      1.0  0.17690999999999998  0.25081  0.41535  1.0000
  C   C264      1.0  0.13773000000000005  0.26838999999999996  0.67161  1.0000
  C   C265      1.0  0.38495000000000007  0.28595  0.99789  1.0000
  C   C266      1.0  0.44639  0.23889999999999997  0.023190000000000002  1.0000
  C   C267      1.0  0.44166  0.23968  0.08437  1.0000
  C   C268      1.0  0.3720300000000001  0.28684999999999994  0.12267  1.0000
  C   C269      1.0  0.30744  0.33632  0.09911  1.0000
  C   C270      1.0  0.23693  0.3857  0.13691  1.0000
  C   C271      1.0  0.17611999999999994  0.4340599999999999  0.11333  1.0000
  C   C272      1.0  0.18383999999999998  0.43492  0.05096  1.0000
  C   C273      1.0  0.25209  0.3876899999999999  0.01274  1.0000
  C   C274      1.0  0.31524  0.3368  0.03527  1.0000
  C   C275      1.0  0.39674999999999994  0.27737  0.9320600000000001  1.0000
  C   C276      1.0  0.37087999999999993  0.28304  0.18793  1.0000
  C   C277      1.0  0.40322999999999976  0.06531  0.24587000000000003  1.0000
  C   C278      1.0  0.34666  0.03107  0.28445  1.0000
  C   C279      1.0  0.3607200000000001  0.9707699999999998  0.27066  1.0000
  C   C280      1.0  0.43322000000000005  0.94347  0.21785000000000002  1.0000
  C   C281      1.0  0.49267000000000005  0.9765599999999998  0.17664  1.0000
  C   C282      1.0  0.5661100000000001  0.9492299999999999  0.1222  1.0000
  C   C283      1.0  0.62291  0.9819  0.08228  1.0000
  C   C284      1.0  0.60796  0.04299  0.09526000000000001  1.0000
  C   C285      1.0  0.5370300000000001  0.07084999999999998  0.14802  1.0000
  C   C286      1.0  0.47767999999999977  0.03879  0.19043  1.0000
  C   C287      1.0  0.38153999999999993  0.12906  0.26614  1.0000
  C   C288      1.0  0.44702000000000003  0.8786399999999998  0.20556  1.0000
  O   O1        1.0  0.34755  0.7746699999999999  0.13097  1.0000
  O   O2        1.0  0.2845599999999999  0.7193399999999999  0.09153  1.0000
  O   O3        1.0  0.57624  0.72034  0.7970500000000001  1.0000
  O   O4        1.0  0.58174  0.81447  0.80175  1.0000
  O   O5        1.0  0.9967  0.81842  0.59699  1.0000
  O   O6        1.0  0.11551000000000002  0.73059  0.59464  1.0000
  O   O7        1.0  0.27469999999999994  0.77965  0.26874  1.0000
  O   O8        1.0  0.3974200000000001  0.7823799999999999  0.3024  1.0000
  O   O9        1.0  0.34846999999999995  0.65421  0.19718  1.0000
  O   O10       1.0  0.44703  0.65548  0.25146  1.0000
  O   O11       1.0  0.32226000000000005  0.36619  0.30589  1.0000
  O   O12       1.0  0.48532  0.33776  0.29154  1.0000
  O   O13       1.0  0.25329  0.22572999999999996  0.86884  1.0000
  O   O14       1.0  0.09476000000000001  0.2803  0.90866  1.0000
  O   O15       1.0  0.09374999999999997  0.27781  0.203  1.0000
  O   O16       1.0  0.20278  0.18512999999999996  0.1975  1.0000
  O   O17       1.0  0.4113400000000001  0.18296999999999994  0.40275  1.0000
  O   O18       1.0  0.43751999999999996  0.27153  0.40483  1.0000
  O   O19       1.0  0.3228899999999998  0.22031  0.72997  1.0000
  O   O20       1.0  0.48134  0.21944  0.69735  1.0000
  O   O21       1.0  0.19818999999999998  0.34628  0.80291  1.0000
  O   O22       1.0  0.3528700000000001  0.34392  0.74845  1.0000
  O   O23       1.0  0.99614  0.63417  0.69374  1.0000
  O   O24       1.0  0.11597999999999992  0.66276  0.70827  1.0000
  O   O25       1.0  0.3720199999999999  0.63118  0.72479  1.0000
  O   O26       1.0  0.25407000000000013  0.59144  0.7799799999999999  1.0000
  O   O27       1.0  0.54666  0.2971  0.77809  1.0000
  O   O28       1.0  0.6502  0.30226  0.68526  1.0000
  O   O29       1.0  0.06415  0.09742  0.68222  1.0000
  O   O30       1.0  0.08945000000000004  0.09435  0.7718199999999998  1.0000
  O   O31       1.0  0.30300999999999984  0.77018  0.72274  1.0000
  O   O32       1.0  0.4295399999999997  0.8030499999999999  0.71986  1.0000
  O   O33       1.0  0.25043000000000004  0.6971099999999999  0.84609  1.0000
  O   O34       1.0  0.35350000000000004  0.7488499999999999  0.84537  1.0000
  O   O35       1.0  0.93959  0.8062499999999999  0.13428  1.0000
  O   O36       1.0  0.07433000000000008  0.7916299999999998  0.16257  1.0000
  O   O37       1.0  0.7271900000000001  0.36893999999999993  0.27609  1.0000
  O   O38       1.0  0.62571  0.40848999999999996  0.21998999999999996  1.0000
  O   O39       1.0  0.6242600000000001  0.7026099999999998  0.22023  1.0000
  O   O40       1.0  0.6338099999999997  0.69827  0.31456  1.0000
  O   O41       1.0  0.8436699999999995  0.90287  0.31744  1.0000
  O   O42       1.0  0.95604  0.9058299999999999  0.22809000000000001  1.0000
  O   O43       1.0  0.7928199999999997  0.2305  0.28014  1.0000
  O   O44       1.0  0.95069  0.19739  0.28032  1.0000
  O   O45       1.0  0.7942799999999999  0.30308  0.15418  1.0000
  O   O46       1.0  0.94666  0.24842  0.15624  1.0000
  O   O47       1.0  0.87987  0.19382  0.86607  1.0000
  O   O48       1.0  0.028340000000000042  0.20828999999999998  0.83761  1.0000
  O   O49       1.0  0.8467900000000002  0.13125  0.77534  1.0000
  O   O50       1.0  0.7852199999999999  0.09158  0.71931  1.0000
  O   O51       1.0  0.0756100000000001  0.7972199999999998  0.72154  1.0000
  O   O52       1.0  0.08012999999999998  0.80179  0.81596  1.0000
  O   O53       1.0  0.49851000000000006  0.59761  0.82295  1.0000
  O   O54       1.0  0.6078700000000001  0.5938199999999999  0.73086  1.0000
  O   O55       1.0  0.7752999999999997  0.26868  0.77975  1.0000
  O   O56       1.0  0.8973299999999998  0.30272  0.78294  1.0000
  O   O57       1.0  0.8487199999999999  0.19715999999999997  0.65425  1.0000
  O   O58       1.0  0.9469000000000001  0.25168  0.65551  1.0000
  O   O59       1.0  0.8225799999999998  0.30598999999999993  0.36626  1.0000
  O   O60       1.0  0.9857200000000002  0.2912199999999999  0.33761  1.0000
  O   O61       1.0  0.7530999999999998  0.8688899999999999  0.22564  1.0000
  O   O62       1.0  0.59466  0.9086599999999999  0.2803  1.0000
  O   O63       1.0  0.59364  0.20291  0.27817  1.0000
  O   O64       1.0  0.70217  0.19762999999999997  0.18536  1.0000
  O   O65       1.0  0.911  0.40297  0.18313  1.0000
  O   O66       1.0  0.9374100000000001  0.40536999999999995  0.27155  1.0000
  O   O67       1.0  0.82286  0.7306899999999998  0.22076  1.0000
  O   O68       1.0  0.9817100000000001  0.69741  0.21892  1.0000
  O   O69       1.0  0.6977699999999999  0.80295  0.34619  1.0000
  O   O70       1.0  0.85238  0.74895  0.3449  1.0000
  O   O71       1.0  0.4923999999999999  0.697  0.6344  1.0000
  O   O72       1.0  0.6164999999999997  0.7054399999999998  0.66277  1.0000
  O   O73       1.0  0.8723600000000001  0.72578  0.63117  1.0000
  O   O74       1.0  0.7536100000000001  0.7801099999999999  0.59142  1.0000
  O   O75       1.0  0.04647000000000003  0.77936  0.29718  1.0000
  O   O76       1.0  0.14756000000000008  0.68545  0.30192  1.0000
  O   O77       1.0  0.56336  0.6829999999999999  0.09664  1.0000
  O   O78       1.0  0.5931700000000001  0.77111  0.09419999999999999  1.0000
  O   O79       1.0  0.80361  0.72023  0.7689499999999999  1.0000
  O   O80       1.0  0.9289599999999999  0.71878  0.80215  1.0000
  O   O81       1.0  0.7489399999999997  0.84681  0.69736  1.0000
  O   O82       1.0  0.8500299999999998  0.84359  0.7514799999999999  1.0000
  O   O83       1.0  0.43984000000000006  0.13441  0.80622  1.0000
  O   O84       1.0  0.5746199999999995  0.16272  0.79155  1.0000
  O   O85       1.0  0.22721999999999998  0.27543  0.36899000000000004  1.0000
  O   O86       1.0  0.12557  0.21957  0.40858  1.0000
  O   O87       1.0  0.1241  0.2204  0.70275  1.0000
  O   O88       1.0  0.1337399999999998  0.31471  0.69823  1.0000
  O   O89       1.0  0.3444699999999999  0.31697  0.9030399999999998  1.0000
  O   O90       1.0  0.45935  0.22838999999999998  0.90546  1.0000
  O   O91       1.0  0.29327999999999993  0.27965  0.231  1.0000
  O   O92       1.0  0.45059999999999983  0.28083  0.19734000000000002  1.0000
  O   O93       1.0  0.29527999999999993  0.15409  0.30317  1.0000
  O   O94       1.0  0.44798000000000004  0.15547  0.24847  1.0000
  O   O95       1.0  0.3795200000000001  0.86592  0.19375  1.0000
  O   O96       1.0  0.5277699999999999  0.83752  0.20843  1.0000
