data_image0
_chemical_formula_structural       Nd8H156C288N24O48
_chemical_formula_sum              "Nd8 H156 C288 N24 O48"
_cell_length_a       16.20438
_cell_length_b       16.211270000000003
_cell_length_c       31.21583
_cell_angle_alpha    99.76401000000001
_cell_angle_beta     99.80737999999998
_cell_angle_gamma    96.49103

_symmetry_space_group_name_H-M    'P 1'
_symmetry_Int_Tables_number       1

loop_
  _symmetry_equiv_pos_as_xyz
  'x,y,z'

loop_
  _atom_site_type_symbol
  _atom_site_label
  _atom_site_symmetry_multiplicity
  _atom_site_fract_x
  _atom_site_fract_y
  _atom_site_fract_z
  _atom_site_occupancy
  Nd  Nd1       1.0  0.18756999999999993  0.1457  0.20249  1.0000
  Nd  Nd2       1.0  0.35225999999999996  0.31142  0.29684  1.0000
  Nd  Nd3       1.0  0.35576  0.47889000000000004  0.41534  1.0000
  Nd  Nd4       1.0  0.02093  0.14174  0.08417  1.0000
  Nd  Nd5       1.0  0.81226  0.85372  0.79691  1.0000
  Nd  Nd6       1.0  0.64875  0.6889800000000003  0.70343  1.0000
  Nd  Nd7       1.0  0.64162  0.52135  0.58458  1.0000
  Nd  Nd8       1.0  0.9792699999999995  0.85856  0.91601  1.0000
  H   H1        1.0  0.72704  0.4805  0.16342  1.0000
  H   H2        1.0  0.63108  0.5465000000000002  0.21979  1.0000
  H   H3        1.0  0.3526  0.69783  0.19788  1.0000
  H   H4        1.0  0.2939599999999999  0.7933600000000002  0.13924000000000003  1.0000
  H   H5        1.0  0.3836399999999999  0.87153  0.99353  1.0000
  H   H6        1.0  0.4788299999999999  0.80169  0.9371  1.0000
  H   H7        1.0  0.6267700000000002  0.5235600000000002  0.92595  1.0000
  H   H8        1.0  0.6854799999999998  0.42909  0.9847  1.0000
  H   H9        1.0  0.54431  0.60437  0.09349  1.0000
  H   H10       1.0  0.49698  0.67636  0.04677  1.0000
  H   H11       1.0  0.58775  0.68078  0.25936  1.0000
  H   H12       1.0  0.55458  0.64463  0.32914  1.0000
  H   H13       1.0  0.32458  0.48802  0.2559  1.0000
  H   H14       1.0  0.35596  0.52848  0.18681  1.0000
  H   H15       1.0  0.22181999999999993  0.77221  0.02742  1.0000
  H   H16       1.0  0.12090999999999998  0.87585  0.03981  1.0000
  H   H17       1.0  0.32361  0.05328  0.12627  1.0000
  H   H18       1.0  0.42417  0.94921  0.1142  1.0000
  H   H19       1.0  0.47702000000000006  0.57126  0.88578  1.0000
  H   H20       1.0  0.51402  0.58695  0.81306  1.0000
  H   H21       1.0  0.7087199999999998  0.7956  0.87946  1.0000
  H   H22       1.0  0.6695200000000001  0.78057  0.95123  1.0000
  H   H23       1.0  0.64825  0.3505200000000001  0.10118  1.0000
  H   H24       1.0  0.75387  0.24971  0.10636000000000001  1.0000
  H   H25       1.0  0.91881  0.4066300000000001  0.049089999999999995  1.0000
  H   H26       1.0  0.8153399999999997  0.5106  0.04657  1.0000
  H   H27       1.0  0.9671299999999998  0.54501  0.16504  1.0000
  H   H28       1.0  0.90064  0.6418  0.10875  1.0000
  H   H29       1.0  0.6868999999999997  0.85868  0.1092  1.0000
  H   H30       1.0  0.59117  0.92469  0.16584  1.0000
  H   H31       1.0  0.5748099999999998  0.90792  0.33443  1.0000
  H   H32       1.0  0.64298  0.8134100000000004  0.39125  1.0000
  H   H33       1.0  0.85806  0.5969700000000002  0.39046  1.0000
  H   H34       1.0  0.9532700000000001  0.5304500000000002  0.3334  1.0000
  H   H35       1.0  0.8082199999999999  0.69697  0.22863  1.0000
  H   H36       1.0  0.7391  0.76071  0.2723400000000001  1.0000
  H   H37       1.0  0.92175  0.8578500000000002  0.136  1.0000
  H   H38       1.0  0.9640799999999998  0.88821  0.06702  1.0000
  H   H39       1.0  0.7563  0.7029100000000003  0.99038  1.0000
  H   H40       1.0  0.7102899999999998  0.6786700000000002  0.05977  1.0000
  H   H41       1.0  0.6470999999999998  0.02881999999999999  0.30136  1.0000
  H   H42       1.0  0.54475  0.13189  0.30109  1.0000
  H   H43       1.0  0.36852  0.95559  0.19828  1.0000
  H   H44       1.0  0.47189  0.8536800000000002  0.19791  1.0000
  H   H45       1.0  0.64434  0.57731  0.3642  1.0000
  H   H46       1.0  0.61337  0.5360400000000002  0.43338  1.0000
  H   H47       1.0  0.79726  0.74485  0.50988  1.0000
  H   H48       1.0  0.8229299999999998  0.7899100000000002  0.44045  1.0000
  H   H49       1.0  0.18517  0.5096600000000002  0.28975  1.0000
  H   H50       1.0  0.08167000000000003  0.61275  0.28937  1.0000
  H   H51       1.0  0.98972  0.3143  0.21028  1.0000
  H   H52       1.0  0.8866799999999998  0.4175  0.21043  1.0000
  H   H53       1.0  0.017110000000000035  0.7718600000000002  0.33602  1.0000
  H   H54       1.0  0.9524600000000001  0.86943  0.28011  1.0000
  H   H55       1.0  0.80067  0.1467  0.30167  1.0000
  H   H56       1.0  0.7054799999999998  0.20546  0.36046  1.0000
  H   H57       1.0  0.62839  0.11596  0.50642  1.0000
  H   H58       1.0  0.69836  0.020859999999999993  0.5628  1.0000
  H   H59       1.0  0.9768999999999998  0.8726000000000003  0.57381  1.0000
  H   H60       1.0  0.07077999999999998  0.81375  0.51474  1.0000
  H   H61       1.0  0.89595  0.9562300000000001  0.40657  1.0000
  H   H62       1.0  0.8236899999999998  0.002969999999999997  0.45327  1.0000
  H   H63       1.0  0.9720299999999997  0.14332  0.31317  1.0000
  H   H64       1.0  0.012590000000000006  0.17447000000000004  0.244  1.0000
  H   H65       1.0  0.8545500000000001  0.94552  0.17071  1.0000
  H   H66       1.0  0.81744  0.9124  0.24005  1.0000
  H   H67       1.0  0.7293  0.2784800000000001  0.47218  1.0000
  H   H68       1.0  0.62617  0.38015  0.46006  1.0000
  H   H69       1.0  0.44662  0.17795  0.37449  1.0000
  H   H70       1.0  0.55011  0.07675  0.38618  1.0000
  H   H71       1.0  0.93035  0.02249  0.61438  1.0000
  H   H72       1.0  0.91387  0.98556  0.68704  1.0000
  H   H73       1.0  0.7048699999999998  0.79141  0.62022  1.0000
  H   H74       1.0  0.72028  0.83117  0.5487  1.0000
  H   H75       1.0  0.14769000000000002  0.85095  0.39806  1.0000
  H   H76       1.0  0.24866  0.74571  0.39264  1.0000
  H   H77       1.0  0.09358999999999998  0.58139  0.45089  1.0000
  H   H78       1.0  0.9888700000000005  0.68416  0.45324  1.0000
  H   H79       1.0  0.2729499999999999  0.51952  0.83658  1.0000
  H   H80       1.0  0.3688899999999999  0.45347  0.78021  1.0000
  H   H81       1.0  0.6474  0.30217  0.80212  1.0000
  H   H82       1.0  0.70605  0.20664000000000005  0.86076  1.0000
  H   H83       1.0  0.61636  0.12847  0.00647  1.0000
  H   H84       1.0  0.52116  0.19833  0.06289  1.0000
  H   H85       1.0  0.37324  0.47643  0.07404  1.0000
  H   H86       1.0  0.31450999999999996  0.57091  0.0153  1.0000
  H   H87       1.0  0.45567  0.39564  0.90651  1.0000
  H   H88       1.0  0.50304  0.32363  0.95322  1.0000
  H   H89       1.0  0.41226000000000007  0.3191900000000001  0.74067  1.0000
  H   H90       1.0  0.44541  0.35534  0.67089  1.0000
  H   H91       1.0  0.6753499999999998  0.512  0.74411  1.0000
  H   H92       1.0  0.64403  0.4715000000000001  0.81323  1.0000
  H   H93       1.0  0.77824  0.22779000000000005  0.9726  1.0000
  H   H94       1.0  0.8791  0.12405000000000004  0.96016  1.0000
  H   H95       1.0  0.6762699999999999  0.9467100000000003  0.87369  1.0000
  H   H96       1.0  0.57573  0.0508  0.88581  1.0000
  H   H97       1.0  0.5229599999999998  0.42872  0.11409  1.0000
  H   H98       1.0  0.48571  0.4128000000000001  0.1868  1.0000
  H   H99       1.0  0.29118  0.2042  0.12025  1.0000
  H   H100      1.0  0.3305399999999999  0.21939  0.04851  1.0000
  H   H101      1.0  0.35179  0.64945  0.89883  1.0000
  H   H102      1.0  0.2460899999999999  0.75023  0.89365  1.0000
  H   H103      1.0  0.08122000000000001  0.59335  0.9509  1.0000
  H   H104      1.0  0.1846999999999999  0.48937  0.95343  1.0000
  H   H105      1.0  0.03286999999999997  0.45499  0.83495  1.0000
  H   H106      1.0  0.09936000000000006  0.3581800000000001  0.89125  1.0000
  H   H107      1.0  0.3131  0.14135  0.89079  1.0000
  H   H108      1.0  0.4088599999999999  0.07524999999999998  0.83417  1.0000
  H   H109      1.0  0.4252399999999999  0.09203  0.66556  1.0000
  H   H110      1.0  0.357  0.18658000000000005  0.60877  1.0000
  H   H111      1.0  0.14191999999999996  0.403  0.60955  1.0000
  H   H112      1.0  0.046759999999999996  0.4695600000000001  0.6666  1.0000
  H   H113      1.0  0.19175999999999996  0.30302  0.77136  1.0000
  H   H114      1.0  0.26096  0.23922000000000004  0.7277  1.0000
  H   H115      1.0  0.07828000000000004  0.14216  0.86397  1.0000
  H   H116      1.0  0.03600000000000001  0.11192999999999996  0.93299  1.0000
  H   H117      1.0  0.24377999999999994  0.29713  0.0096  1.0000
  H   H118      1.0  0.28983  0.32137  0.94018  1.0000
  H   H119      1.0  0.35314  0.97099  0.69865  1.0000
  H   H120      1.0  0.45546  0.868  0.69891  1.0000
  H   H121      1.0  0.63159  0.04415000000000002  0.8017  1.0000
  H   H122      1.0  0.52837  0.14605  0.80208  1.0000
  H   H123      1.0  0.35558000000000006  0.4226100000000001  0.63587  1.0000
  H   H124      1.0  0.3866  0.46403  0.56672  1.0000
  H   H125      1.0  0.2027  0.25509  0.49016  1.0000
  H   H126      1.0  0.17703  0.21005  0.55955  1.0000
  H   H127      1.0  0.81481  0.4900700000000002  0.7102  1.0000
  H   H128      1.0  0.9184699999999997  0.38719000000000003  0.71068  1.0000
  H   H129      1.0  0.010119999999999936  0.68564  0.7896599999999999  1.0000
  H   H130      1.0  0.11322999999999998  0.58245  0.78954  1.0000
  H   H131      1.0  0.98289  0.22812000000000004  0.66398  1.0000
  H   H132      1.0  0.04754000000000001  0.13058000000000006  0.7199  1.0000
  H   H133      1.0  0.19933  0.8532900000000001  0.6983400000000001  1.0000
  H   H134      1.0  0.29452  0.79453  0.63954  1.0000
  H   H135      1.0  0.37162  0.88402  0.49359  1.0000
  H   H136      1.0  0.30161  0.9791200000000002  0.43722  1.0000
  H   H137      1.0  0.023110000000000002  0.12738000000000005  0.42621  1.0000
  H   H138      1.0  0.92923  0.18624  0.48526  1.0000
  H   H139      1.0  0.10404  0.04373  0.59344  1.0000
  H   H140      1.0  0.17632999999999996  0.9969800000000001  0.54676  1.0000
  H   H141      1.0  0.027939999999999993  0.85665  0.6868  1.0000
  H   H142      1.0  0.98736  0.82551  0.75599  1.0000
  H   H143      1.0  0.14535  0.05441000000000002  0.82931  1.0000
  H   H144      1.0  0.18257999999999994  0.08759999999999994  0.75998  1.0000
  H   H145      1.0  0.27068  0.7215400000000001  0.52782  1.0000
  H   H146      1.0  0.3738099999999999  0.61984  0.5398899999999999  1.0000
  H   H147      1.0  0.55331  0.82193  0.62544  1.0000
  H   H148      1.0  0.44986  0.92317  0.61379  1.0000
  H   H149      1.0  0.06966999999999995  0.9775  0.3857  1.0000
  H   H150      1.0  0.08606  0.014360000000000003  0.31299  1.0000
  H   H151      1.0  0.29524  0.20861  0.37987  1.0000
  H   H152      1.0  0.2797800000000001  0.16884000000000005  0.45137  1.0000
  H   H153      1.0  0.85246  0.14877  0.60195  1.0000
  H   H154      1.0  0.75146  0.25421  0.60734  1.0000
  H   H155      1.0  0.9064999999999999  0.41855  0.54912  1.0000
  H   H156      1.0  0.011390000000000056  0.31572000000000006  0.5467400000000001  1.0000
  C   C1        1.0  0.6424499999999999  0.53249  0.11344999999999998  1.0000
  C   C2        1.0  0.67408  0.51474  0.1562  1.0000
  C   C3        1.0  0.6254  0.5482  0.18487  1.0000
  C   C4        1.0  0.5638699999999998  0.58886  0.16091  1.0000
  C   C5        1.0  0.4950399999999999  0.62265  0.17542  1.0000
  C   C6        1.0  0.4418699999999999  0.66819  0.15102  1.0000
  C   C7        1.0  0.37333  0.70631  0.16758  1.0000
  C   C8        1.0  0.34431999999999996  0.75475  0.13822  1.0000
  C   C9        1.0  0.3953  0.74456  0.10398  1.0000
  C   C10       1.0  0.3862  0.78886  0.06894000000000002  1.0000
  C   C11       1.0  0.4273799999999999  0.77666  0.03321  1.0000
  C   C12       1.0  0.42105  0.8205700000000002  0.99685  1.0000
  C   C13       1.0  0.46922  0.78557  0.96838  1.0000
  C   C14       1.0  0.50568  0.7192500000000002  0.98646  1.0000
  C   C15       1.0  0.5524900000000001  0.66222  0.9663900000000001  1.0000
  C   C16       1.0  0.58398  0.59585  0.98467  1.0000
  C   C17       1.0  0.6240199999999998  0.53152  0.96077  1.0000
  C   C18       1.0  0.65395  0.4843  0.99057  1.0000
  C   C19       1.0  0.63371  0.5222900000000003  0.03259  1.0000
  C   C20       1.0  0.66494  0.49970000000000003  0.07317  1.0000
  C   C21       1.0  0.4753599999999999  0.60518  0.21814  1.0000
  C   C22       1.0  0.53057  0.63835  0.25878  1.0000
  C   C23       1.0  0.51182  0.61724  0.29794  1.0000
  C   C24       1.0  0.43914  0.56057  0.29719  1.0000
  C   C25       1.0  0.38225  0.5300100000000002  0.25679  1.0000
  C   C26       1.0  0.3999999999999999  0.55297  0.21794  1.0000
  C   C27       1.0  0.4232899999999999  0.5307400000000002  0.3381  1.0000
  C   C28       1.0  0.32858  0.85386  0.07094  1.0000
  C   C29       1.0  0.24369000000000002  0.8339100000000003  0.04888  1.0000
  C   C30       1.0  0.18741  0.89143  0.05581  1.0000
  C   C31       1.0  0.21609999999999993  0.96961  0.08491  1.0000
  C   C32       1.0  0.3019599999999999  0.9915900000000002  0.1049  1.0000
  C   C33       1.0  0.3578499999999999  0.9338200000000002  0.09795  1.0000
  C   C34       1.0  0.15445  0.027430000000000013  0.09481  1.0000
  C   C35       1.0  0.57159  0.6742200000000003  0.92287  1.0000
  C   C36       1.0  0.52708  0.62007  0.88393  1.0000
  C   C37       1.0  0.54768  0.62896  0.84341  1.0000
  C   C38       1.0  0.6136399999999997  0.69148  0.8417  1.0000
  C   C39       1.0  0.6575  0.74696  0.88048  1.0000
  C   C40       1.0  0.63558  0.73854  0.9209  1.0000
  C   C41       1.0  0.6361699999999998  0.6964500000000002  0.79851  1.0000
  C   C42       1.0  0.7256799999999998  0.4379  0.07426  1.0000
  C   C43       1.0  0.70845  0.36361  0.09083  1.0000
  C   C44       1.0  0.76691  0.30699  0.09337  1.0000
  C   C45       1.0  0.84321  0.32253  0.07851  1.0000
  C   C46       1.0  0.85968  0.39541  0.06072  1.0000
  C   C47       1.0  0.8019299999999999  0.4528000000000001  0.0591  1.0000
  C   C48       1.0  0.9063199999999998  0.2621400000000001  0.08113  1.0000
  C   C49       1.0  0.89355  0.61253  0.21084  1.0000
  C   C50       1.0  0.9248200000000001  0.5913800000000002  0.17071  1.0000
  C   C51       1.0  0.8913399999999999  0.6401200000000002  0.14213  1.0000
  C   C52       1.0  0.83784  0.69107  0.16356  1.0000
  C   C53       1.0  0.7915499999999998  0.74845  0.14497  1.0000
  C   C54       1.0  0.7327699999999998  0.79186  0.16433  1.0000
  C   C55       1.0  0.68374  0.84749  0.14211  1.0000
  C   C56       1.0  0.6358  0.88058  0.17073  1.0000
  C   C57       1.0  0.6574799999999997  0.8456300000000001  0.21057  1.0000
  C   C58       1.0  0.6279699999999999  0.87267  0.24979  1.0000
  C   C59       1.0  0.6532400000000002  0.8453900000000002  0.28966  1.0000
  C   C60       1.0  0.62006  0.8643799999999999  0.32942  1.0000
  C   C61       1.0  0.65422  0.81651  0.3583  1.0000
  C   C62       1.0  0.70979  0.76746  0.33752  1.0000
  C   C63       1.0  0.7534699999999995  0.70743  0.35512  1.0000
  C   C64       1.0  0.80923  0.66106  0.33461  1.0000
  C   C65       1.0  0.8595899999999997  0.60654  0.35716  1.0000
  C   C66       1.0  0.90733  0.57334  0.32846  1.0000
  C   C67       1.0  0.8837399999999997  0.60705  0.28844  1.0000
  C   C68       1.0  0.91576  0.5826400000000003  0.24997  1.0000
  C   C69       1.0  0.8128700000000001  0.7667000000000003  0.1024  1.0000
  C   C70       1.0  0.8845100000000001  0.82519  0.10406  1.0000
  C   C71       1.0  0.90928  0.84161  0.06539  1.0000
  C   C72       1.0  0.8633899999999998  0.7977900000000002  0.02384  1.0000
  C   C73       1.0  0.79208  0.7384  0.02209  1.0000
  C   C74       1.0  0.7660799999999998  0.7238100000000002  0.06105  1.0000
  C   C75       1.0  0.89375  0.81668  0.9833  1.0000
  C   C76       1.0  0.5664999999999998  0.93403  0.24968  1.0000
  C   C77       1.0  0.58591  0.012719999999999993  0.27896  1.0000
  C   C78       1.0  0.52872  0.07068999999999999  0.27878  1.0000
  C   C79       1.0  0.4494399999999999  0.05103999999999999  0.24988  1.0000
  C   C80       1.0  0.42969  0.972  0.22072  1.0000
  C   C81       1.0  0.48762  0.91471  0.22046  1.0000
  C   C82       1.0  0.38814000000000004  0.11343000000000003  0.25008  1.0000
  C   C83       1.0  0.7354300000000001  0.68651  0.39776  1.0000
  C   C84       1.0  0.6769199999999997  0.61476  0.39613  1.0000
  C   C85       1.0  0.65985  0.59087  0.43488  1.0000
  C   C86       1.0  0.70367  0.63671  0.4764  1.0000
  C   C87       1.0  0.76237  0.70873  0.47812  1.0000
  C   C88       1.0  0.7778699999999996  0.7338600000000002  0.43909  1.0000
  C   C89       1.0  0.68425  0.60682  0.51707  1.0000
  C   C90       1.0  0.9775399999999999  0.52144  0.25012  1.0000
  C   C91       1.0  0.1198  0.48995  0.27248  1.0000
  C   C92       1.0  0.06186000000000003  0.5472300000000002  0.2723400000000001  1.0000
  C   C93       1.0  0.09399  0.4056  0.24997  1.0000
  C   C94       1.0  0.009709999999999995  0.37965  0.22756  1.0000
  C   C95       1.0  0.95208  0.4372  0.22764999999999996  1.0000
  C   C96       1.0  0.15557  0.34395000000000003  0.25005  1.0000
  C   C97       1.0  0.96655  0.8572700000000002  0.38627  1.0000
  C   C98       1.0  0.98375  0.8254  0.34348  1.0000
  C   C99       1.0  0.95075  0.87458  0.31497  1.0000
  C   C100      1.0  0.91056  0.9363600000000001  0.33899  1.0000
  C   C101      1.0  0.87681  0.005119999999999996  0.32442  1.0000
  C   C102      1.0  0.8311799999999999  0.05815  0.34876  1.0000
  C   C103      1.0  0.79273  0.12641  0.33213  1.0000
  C   C104      1.0  0.74445  0.15542  0.36159  1.0000
  C   C105      1.0  0.75508  0.10467000000000004  0.39593  1.0000
  C   C106      1.0  0.7111100000000001  0.11387  0.4311  1.0000
  C   C107      1.0  0.7232999999999998  0.07247  0.46675  1.0000
  C   C108      1.0  0.6793999999999998  0.07866  0.5031  1.0000
  C   C109      1.0  0.7145899999999997  0.030540000000000046  0.53158  1.0000
  C   C110      1.0  0.78099  0.99424  0.51355  1.0000
  C   C111      1.0  0.8385299999999998  0.9479  0.53368  1.0000
  C   C112      1.0  0.9048400000000001  0.9164800000000002  0.51534  1.0000
  C   C113      1.0  0.96899  0.8759000000000001  0.5390499999999999  1.0000
  C   C114      1.0  0.01575000000000008  0.8456700000000005  0.50909  1.0000
  C   C115      1.0  0.97764  0.8662699999999999  0.46717  1.0000
  C   C116      1.0  0.99952  0.83468  0.4265  1.0000
  C   C117      1.0  0.89429  0.024620000000000003  0.28168  1.0000
  C   C118      1.0  0.9473299999999998  0.0995  0.28197  1.0000
  C   C119      1.0  0.9703  0.11704  0.24311  1.0000
  C   C120      1.0  0.93945  0.06033000000000001  0.20273  1.0000
  C   C121      1.0  0.88213  0.98805  0.20192  1.0000
  C   C122      1.0  0.86069  0.96944  0.24105  1.0000
  C   C123      1.0  0.96882  0.0765  0.16173  1.0000
  C   C124      1.0  0.64639  0.17189000000000007  0.42929  1.0000
  C   C125      1.0  0.6670999999999998  0.25686  0.45104  1.0000
  C   C126      1.0  0.60985  0.31357  0.44428  1.0000
  C   C127      1.0  0.53102  0.28525  0.41547  1.0000
  C   C128      1.0  0.50861  0.19935  0.39571  1.0000
  C   C129      1.0  0.56603  0.14304000000000006  0.40246  1.0000
  C   C130      1.0  0.47263  0.3469300000000001  0.40565  1.0000
  C   C131      1.0  0.8265900000000002  0.9288900000000001  0.5772100000000001  1.0000
  C   C132      1.0  0.8811  0.9729  0.61618  1.0000
  C   C133      1.0  0.8718700000000001  0.9521700000000004  0.6566200000000001  1.0000
  C   C134      1.0  0.8091099999999998  0.88649  0.65824  1.0000
  C   C135      1.0  0.75354  0.8426900000000002  0.61939  1.0000
  C   C136      1.0  0.7621799999999997  0.8650100000000002  0.5791  1.0000
  C   C137      1.0  0.80358  0.8645099999999999  0.70148  1.0000
  C   C138      1.0  0.06103000000000001  0.7737200000000002  0.42529999999999996  1.0000
  C   C139      1.0  0.13501  0.79089  0.40855  1.0000
  C   C140      1.0  0.19175999999999999  0.73269  0.40587  1.0000
  C   C141      1.0  0.17686000000000004  0.6567400000000003  0.42108  1.0000
  C   C142      1.0  0.10427999999999997  0.64028  0.43903  1.0000
  C   C143      1.0  0.04655999999999999  0.69764  0.44066  1.0000
  C   C144      1.0  0.23676000000000003  0.59363  0.41821  1.0000
  C   C145      1.0  0.35754999999999987  0.46751  0.88655  1.0000
  C   C146      1.0  0.32591  0.48524  0.84379  1.0000
  C   C147      1.0  0.37457  0.45177  0.81512  1.0000
  C   C148      1.0  0.4360999999999999  0.41113  0.83909  1.0000
  C   C149      1.0  0.5049399999999998  0.37731  0.8246  1.0000
  C   C150      1.0  0.55813  0.3318  0.849  1.0000
  C   C151      1.0  0.62667  0.29369  0.83242  1.0000
  C   C152      1.0  0.65568  0.24525000000000002  0.86179  1.0000
  C   C153      1.0  0.60472  0.25544  0.89603  1.0000
  C   C154      1.0  0.61383  0.21113000000000012  0.93105  1.0000
  C   C155      1.0  0.57265  0.22331999999999994  0.96678  1.0000
  C   C156      1.0  0.57895  0.17943  0.00315  1.0000
  C   C157      1.0  0.53078  0.21444  0.03161  1.0000
  C   C158      1.0  0.49434  0.28073  0.01348  1.0000
  C   C159      1.0  0.44747  0.33773  0.0335  1.0000
  C   C160      1.0  0.41604999999999986  0.40418  0.01529  1.0000
  C   C161      1.0  0.3759999999999999  0.4684800000000001  0.03922  1.0000
  C   C162      1.0  0.34605  0.51571  0.00942  1.0000
  C   C163      1.0  0.36629  0.4777400000000001  0.9674  1.0000
  C   C164      1.0  0.33506  0.50029  0.92682  1.0000
  C   C165      1.0  0.5246400000000001  0.3948200000000001  0.7818800000000001  1.0000
  C   C166      1.0  0.4694099999999999  0.3616400000000001  0.74124  1.0000
  C   C167      1.0  0.4881299999999999  0.38277999999999995  0.7020899999999999  1.0000
  C   C168      1.0  0.56077  0.4394  0.70283  1.0000
  C   C169      1.0  0.61768  0.47005  0.74323  1.0000
  C   C170      1.0  0.59998  0.44703  0.78209  1.0000
  C   C171      1.0  0.57666  0.46898  0.6619  1.0000
  C   C172      1.0  0.67142  0.14614  0.92905  1.0000
  C   C173      1.0  0.7563  0.16608999999999993  0.95114  1.0000
  C   C174      1.0  0.81255  0.10855000000000001  0.94419  1.0000
  C   C175      1.0  0.78387  0.030399999999999993  0.91508  1.0000
  C   C176      1.0  0.69798  0.008379999999999995  0.89508  1.0000
  C   C177      1.0  0.64208  0.06617000000000002  0.90204  1.0000
  C   C178      1.0  0.84555  0.9726  0.9051  1.0000
  C   C179      1.0  0.42832  0.32569  0.07698000000000002  1.0000
  C   C180      1.0  0.47284  0.37985  0.11590000000000002  1.0000
  C   C181      1.0  0.45215999999999995  0.3708700000000001  0.15641999999999998  1.0000
  C   C182      1.0  0.38629  0.3083700000000001  0.15827  1.0000
  C   C183      1.0  0.34243  0.25292  0.11939  1.0000
  C   C184      1.0  0.36433  0.26135000000000014  0.07894  1.0000
  C   C185      1.0  0.36379  0.3032  0.20155  1.0000
  C   C186      1.0  0.27433  0.56207  0.92573  1.0000
  C   C187      1.0  0.29157  0.63634  0.90916  1.0000
  C   C188      1.0  0.23312999999999995  0.69298  0.90665  1.0000
  C   C189      1.0  0.15685  0.6775100000000002  0.92152  1.0000
  C   C190      1.0  0.14034000000000002  0.60459  0.93928  1.0000
  C   C191      1.0  0.1980700000000001  0.54717  0.9408900000000001  1.0000
  C   C192      1.0  0.09373000000000001  0.73795  0.91887  1.0000
  C   C193      1.0  0.10646  0.38746  0.78917  1.0000
  C   C194      1.0  0.07519000000000005  0.40861  0.82929  1.0000
  C   C195      1.0  0.10866000000000006  0.35986  0.85788  1.0000
  C   C196      1.0  0.16217  0.30889  0.83643  1.0000
  C   C197      1.0  0.20847  0.25150999999999996  0.85499  1.0000
  C   C198      1.0  0.26725  0.20808999999999994  0.83564  1.0000
  C   C199      1.0  0.31629  0.15249  0.85788  1.0000
  C   C200      1.0  0.36424  0.11937  0.82927  1.0000
  C   C201      1.0  0.3426  0.15427  0.78942  1.0000
  C   C202      1.0  0.37216  0.12722999999999995  0.75021  1.0000
  C   C203      1.0  0.34686  0.15455999999999995  0.71036  1.0000
  C   C204      1.0  0.37999999999999995  0.13557000000000005  0.6705900000000001  1.0000
  C   C205      1.0  0.34578  0.18343000000000012  0.64172  1.0000
  C   C206      1.0  0.2902  0.23248  0.6625  1.0000
  C   C207      1.0  0.24648999999999993  0.29248  0.64489  1.0000
  C   C208      1.0  0.19077  0.33889  0.66539  1.0000
  C   C209      1.0  0.14041  0.39343  0.64284  1.0000
  C   C210      1.0  0.09269  0.42667  0.67156  1.0000
  C   C211      1.0  0.11628999999999999  0.3929400000000001  0.71157  1.0000
  C   C212      1.0  0.08422000000000004  0.41731000000000024  0.75002  1.0000
  C   C213      1.0  0.1872  0.23331000000000005  0.8975699999999999  1.0000
  C   C214      1.0  0.11553000000000004  0.17487000000000005  0.89589  1.0000
  C   C215      1.0  0.09075999999999995  0.1585  0.93457  1.0000
  C   C216      1.0  0.13668999999999995  0.20229  0.97611  1.0000
  C   C217      1.0  0.20801  0.26168  0.97787  1.0000
  C   C218      1.0  0.23401  0.27625  0.9389  1.0000
  C   C219      1.0  0.10611  0.18331  0.016570000000000005  1.0000
  C   C220      1.0  0.43365  0.06581999999999995  0.75032  1.0000
  C   C221      1.0  0.41429999999999995  0.9871300000000003  0.72105  1.0000
  C   C222      1.0  0.47148000000000007  0.92916  0.72123  1.0000
  C   C223      1.0  0.55073  0.9488700000000002  0.75015  1.0000
  C   C224      1.0  0.57044  0.02784  0.77927  1.0000
  C   C225      1.0  0.51252  0.08509000000000001  0.77952  1.0000
  C   C226      1.0  0.61188  0.88655  0.74998  1.0000
  C   C227      1.0  0.26451999999999987  0.31344  0.60225  1.0000
  C   C228      1.0  0.32301999999999986  0.3852100000000001  0.60392  1.0000
  C   C229      1.0  0.34015000000000006  0.4091500000000001  0.56519  1.0000
  C   C230      1.0  0.29633  0.36324  0.52366  1.0000
  C   C231      1.0  0.23762999999999995  0.29125  0.5219  1.0000
  C   C232      1.0  0.2220900000000001  0.2660900000000001  0.56091  1.0000
  C   C233      1.0  0.31599  0.39317  0.48309  1.0000
  C   C234      1.0  0.02240999999999998  0.4785  0.74986  1.0000
  C   C235      1.0  0.88013  0.51  0.72748  1.0000
  C   C236      1.0  0.93809  0.45274  0.72765  1.0000
  C   C237      1.0  0.90606  0.59434  0.74998  1.0000
  C   C238      1.0  0.9902799999999998  0.62028  0.77239  1.0000
  C   C239      1.0  0.04785999999999995  0.56272  0.77233  1.0000
  C   C240      1.0  0.84474  0.65594  0.74998  1.0000
  C   C241      1.0  0.03348  0.1427  0.61374  1.0000
  C   C242      1.0  0.016280000000000003  0.17459000000000002  0.65653  1.0000
  C   C243      1.0  0.04927000000000002  0.12542000000000006  0.68505  1.0000
  C   C244      1.0  0.08944  0.06362  0.66103  1.0000
  C   C245      1.0  0.12319999999999998  0.9948599999999999  0.67559  1.0000
  C   C246      1.0  0.16882000000000003  0.9418500000000002  0.65126  1.0000
  C   C247      1.0  0.20727  0.87358  0.66788  1.0000
  C   C248      1.0  0.25555  0.84457  0.63842  1.0000
  C   C249      1.0  0.24491000000000002  0.89532  0.60408  1.0000
  C   C250      1.0  0.28885  0.8861000000000003  0.56891  1.0000
  C   C251      1.0  0.27671  0.9275000000000002  0.53327  1.0000
  C   C252      1.0  0.32061  0.92132  0.49692  1.0000
  C   C253      1.0  0.2854299999999999  0.96945  0.46845  1.0000
  C   C254      1.0  0.21904  0.005769999999999997  0.48648  1.0000
  C   C255      1.0  0.16150999999999993  0.05211  0.46635  1.0000
  C   C256      1.0  0.09516  0.0835  0.48468  1.0000
  C   C257      1.0  0.03103  0.12409000000000005  0.46097  1.0000
  C   C258      1.0  0.98427  0.15431  0.49092  1.0000
  C   C259      1.0  0.022369999999999987  0.13368000000000002  0.53283  1.0000
  C   C260      1.0  0.0005600000000000219  0.16525  0.57351  1.0000
  C   C261      1.0  0.10568999999999996  0.97536  0.71833  1.0000
  C   C262      1.0  0.052610000000000004  0.90048  0.71802  1.0000
  C   C263      1.0  0.029680000000000078  0.8829400000000003  0.75689  1.0000
  C   C264      1.0  0.06057000000000001  0.9396400000000001  0.7973  1.0000
  C   C265      1.0  0.11782999999999993  0.011909999999999987  0.79807  1.0000
  C   C266      1.0  0.13926999999999998  0.030570000000000014  0.75895  1.0000
  C   C267      1.0  0.03128999999999998  0.92344  0.83832  1.0000
  C   C268      1.0  0.35357  0.82808  0.5707  1.0000
  C   C269      1.0  0.3329199999999999  0.7430999999999999  0.54894  1.0000
  C   C270      1.0  0.39019  0.6864000000000002  0.55569  1.0000
  C   C271      1.0  0.46901  0.7147  0.58451  1.0000
  C   C272      1.0  0.4913599999999999  0.80059  0.60424  1.0000
  C   C273      1.0  0.43394  0.8569  0.59751  1.0000
  C   C274      1.0  0.5275199999999998  0.65339  0.59452  1.0000
  C   C275      1.0  0.17343  0.07115000000000003  0.42283  1.0000
  C   C276      1.0  0.11889999999999998  0.02713000000000003  0.38386000000000003  1.0000
  C   C277      1.0  0.12815  0.04782999999999999  0.34341  1.0000
  C   C278      1.0  0.19097999999999996  0.11352999999999996  0.34180999999999995  1.0000
  C   C279      1.0  0.24652999999999997  0.15732  0.38067  1.0000
  C   C280      1.0  0.23786  0.13502  0.42097  1.0000
  C   C281      1.0  0.19672  0.13573000000000005  0.29855  1.0000
  C   C282      1.0  0.93911  0.22617  0.5747  1.0000
  C   C283      1.0  0.86517  0.20885  0.59147  1.0000
  C   C284      1.0  0.80842  0.26704  0.59411  1.0000
  C   C285      1.0  0.8233399999999997  0.34298  0.57889  1.0000
  C   C286      1.0  0.89595  0.35959  0.56096  1.0000
  C   C287      1.0  0.95368  0.30224  0.55934  1.0000
  C   C288      1.0  0.76283  0.4058500000000001  0.58169  1.0000
  N   N1        1.0  0.57873  0.58084  0.11832  1.0000
  N   N2        1.0  0.45281  0.69034  0.11156  1.0000
  N   N3        1.0  0.47978  0.7169400000000002  0.02593  1.0000
  N   N4        1.0  0.58783  0.58757  0.02798  1.0000
  N   N5        1.0  0.84034  0.67191  0.205  1.0000
  N   N6        1.0  0.71575  0.79088  0.20606  1.0000
  N   N7        1.0  0.70878  0.78815  0.29629  1.0000
  N   N8        1.0  0.8248099999999998  0.6611700000000003  0.29276  1.0000
  N   N9        1.0  0.91859  0.9213700000000002  0.38158  1.0000
  N   N10       1.0  0.80929  0.04717  0.38825  1.0000
  N   N11       1.0  0.78302  0.019939999999999996  0.47399  1.0000
  N   N12       1.0  0.91278  0.9126599999999999  0.47198  1.0000
  N   N13       1.0  0.42127  0.4191700000000001  0.88168  1.0000
  N   N14       1.0  0.5472  0.3096600000000001  0.88845  1.0000
  N   N15       1.0  0.5202700000000001  0.28305  0.97404  1.0000
  N   N16       1.0  0.4121999999999999  0.4124900000000001  0.972  1.0000
  N   N17       1.0  0.15967000000000006  0.32809  0.79501  1.0000
  N   N18       1.0  0.28431  0.20903999999999995  0.79391  1.0000
  N   N19       1.0  0.29129  0.2118  0.70374  1.0000
  N   N20       1.0  0.17522999999999997  0.33882000000000007  0.7072500000000002  1.0000
  N   N21       1.0  0.08143  0.07859  0.61844  1.0000
  N   N22       1.0  0.1907  0.9528299999999998  0.61176  1.0000
  N   N23       1.0  0.21699999999999997  0.98006  0.52604  1.0000
  N   N24       1.0  0.08721999999999999  0.08729999999999997  0.52803  1.0000
  O   O1        1.0  0.373  0.45857  0.33319  1.0000
  O   O2        1.0  0.45538  0.57146  0.37637  1.0000
  O   O3        1.0  0.17965999999999993  0.09571000000000003  0.12546  1.0000
  O   O4        1.0  0.07915  0.01035  0.0738  1.0000
  O   O5        1.0  0.70364  0.7450500000000002  0.79642  1.0000
  O   O6        1.0  0.58923  0.6516  0.76334  1.0000
  O   O7        1.0  0.90454  0.21047999999999997  0.10814  1.0000
  O   O8        1.0  0.9617599999999997  0.26232  0.05634  1.0000
  O   O9        1.0  0.85973  0.77665  0.94435  1.0000
  O   O10       1.0  0.95696  0.8770200000000001  0.98944  1.0000
  O   O11       1.0  0.31472  0.09053000000000003  0.22514  1.0000
  O   O12       1.0  0.41151  0.18664  0.27505  1.0000
  O   O13       1.0  0.62696  0.54094  0.51095  1.0000
  O   O14       1.0  0.72271  0.6422  0.55605  1.0000
  O   O15       1.0  0.22973999999999997  0.36837  0.27355  1.0000
  O   O16       1.0  0.13106999999999994  0.26989  0.22662  1.0000
  O   O17       1.0  0.04119  0.12701  0.16676  1.0000
  O   O18       1.0  0.92898  0.04418  0.12358  1.0000
  O   O19       1.0  0.40423  0.3215600000000001  0.37505  1.0000
  O   O20       1.0  0.49011000000000005  0.42227  0.42675  1.0000
  O   O21       1.0  0.7551399999999998  0.7969700000000001  0.7035000000000001  1.0000
  O   O22       1.0  0.8478300000000001  0.9116  0.73671  1.0000
  O   O23       1.0  0.2372499999999999  0.5386  0.44323  1.0000
  O   O24       1.0  0.28800999999999993  0.59491  0.39088  1.0000
  O   O25       1.0  0.6271599999999998  0.54109  0.66672  1.0000
  O   O26       1.0  0.5444  0.4283  0.62362  1.0000
  O   O27       1.0  0.82057  0.90426  0.87457  1.0000
  O   O28       1.0  0.92101  0.9900100000000003  0.92623  1.0000
  O   O29       1.0  0.29661  0.25432  0.20353  1.0000
  O   O30       1.0  0.41048  0.34821  0.23685  1.0000
  O   O31       1.0  0.09560000000000005  0.78969  0.89185  1.0000
  O   O32       1.0  0.03829000000000001  0.73777  0.9436  1.0000
  O   O33       1.0  0.14038  0.22335000000000005  0.05557  1.0000
  O   O34       1.0  0.042759999999999986  0.12328  0.01053  1.0000
  O   O35       1.0  0.68547  0.90922  0.7749  1.0000
  O   O36       1.0  0.5883199999999997  0.81344  0.72496  1.0000
  O   O37       1.0  0.37344  0.45877000000000007  0.48919  1.0000
  O   O38       1.0  0.2771999999999999  0.3579700000000001  0.44402  1.0000
  O   O39       1.0  0.77049  0.6316400000000002  0.72662  1.0000
  O   O40       1.0  0.8690599999999996  0.73004  0.77346  1.0000
  O   O41       1.0  0.9590199999999998  0.87287  0.8333  1.0000
  O   O42       1.0  0.07129000000000002  0.95608  0.8764800000000001  1.0000
  O   O43       1.0  0.5957  0.67876  0.6252  1.0000
  O   O44       1.0  0.5098499999999998  0.57788  0.57343  1.0000
  O   O45       1.0  0.24513  0.20304  0.29646  1.0000
  O   O46       1.0  0.1522  0.08849000000000003  0.26335  1.0000
  O   O47       1.0  0.7628700000000002  0.46149  0.55702  1.0000
  O   O48       1.0  0.71103  0.4036  0.60856  1.0000
