data_image0
_chemical_formula_structural       Cu9H144C216N36
_chemical_formula_sum              "Cu9 H144 C216 N36"
_cell_length_a       14.89243
_cell_length_b       14.8975
_cell_length_c       39.74871
_cell_angle_alpha    90.15916
_cell_angle_beta     89.61804
_cell_angle_gamma    119.99419000000002

_space_group_name_H-M_alt    "P 1"
_space_group_IT_number       1

loop_
  _space_group_symop_operation_xyz
  'x, y, z'

loop_
  _atom_site_type_symbol
  _atom_site_label
  _atom_site_symmetry_multiplicity
  _atom_site_fract_x
  _atom_site_fract_y
  _atom_site_fract_z
  _atom_site_occupancy
  Cu  Cu1       1.0  0.2964099999999998  0.7455199999999997  0.56222  1.0000
  Cu  Cu2       1.0  0.44179  0.69972  0.22844000000000003  1.0000
  Cu  Cu3       1.0  0.26244  0.55439  0.89507  1.0000
  Cu  Cu4       1.0  0.017019999999999983  0.9676  0.99705  1.0000
  Cu  Cu5       1.0  0.9548699999999998  0.98298  0.66397  1.0000
  Cu  Cu6       1.0  0.027620000000000002  0.0454  0.33075000000000004  1.0000
  Cu  Cu7       1.0  0.54194  0.26498  0.4372500000000001  1.0000
  Cu  Cu8       1.0  0.7372999999999998  0.28266  0.77023  1.0000
  Cu  Cu9       1.0  0.72188  0.45858  0.1036  1.0000
  H   H1        1.0  0.19229999999999997  0.47347999999999996  0.60116  1.0000
  H   H2        1.0  0.2501499999999999  0.34871  0.61642  1.0000
  H   H3        1.0  0.33434999999999987  0.35096  0.51197  1.0000
  H   H4        1.0  0.2750899999999999  0.47828  0.50136  1.0000
  H   H5        1.0  0.23729999999999996  0.87644  0.52165  1.0000
  H   H6        1.0  0.2532199999999999  0.051309999999999995  0.52518  1.0000
  H   H7        1.0  0.3848899999999999  0.08415  0.62402  1.0000
  H   H8        1.0  0.3579599999999998  0.9061899999999998  0.61743  1.0000
  H   H9        1.0  0.5275299999999999  0.8530899999999999  0.28077  1.0000
  H   H10       1.0  0.48855999999999977  0.872  0.33985000000000004  1.0000
  H   H11       1.0  0.20392999999999994  0.57592  0.33019  1.0000
  H   H12       1.0  0.2533  0.57155  0.27116  1.0000
  H   H13       1.0  0.4305499999999998  0.8864399999999999  0.5095  1.0000
  H   H14       1.0  0.43917999999999985  0.8886299999999999  0.44753000000000004  1.0000
  H   H15       1.0  0.1753099999999999  0.57584  0.44886  1.0000
  H   H16       1.0  0.18298999999999993  0.58424  0.51127  1.0000
  H   H17       1.0  0.27797  0.8048  0.26784  1.0000
  H   H18       1.0  0.09492999999999999  0.74653  0.28333  1.0000
  H   H19       1.0  0.017019999999999924  0.6733099999999999  0.17844  1.0000
  H   H20       1.0  0.20381999999999995  0.73252  0.16756  1.0000
  H   H21       1.0  0.6335599999999998  0.75573  0.18749000000000002  1.0000
  H   H22       1.0  0.79465  0.7437999999999998  0.19154  1.0000
  H   H23       1.0  0.69642  0.61747  0.29140000000000005  1.0000
  H   H24       1.0  0.54268  0.63948  0.28409  1.0000
  H   H25       1.0  0.33397  0.4723799999999999  0.94737  1.0000
  H   H26       1.0  0.3899299999999999  0.51202  0.00639  1.0000
  H   H27       1.0  0.3671799999999999  0.79045  0.99671  1.0000
  H   H28       1.0  0.31547999999999987  0.7406399999999997  0.93775  1.0000
  H   H29       1.0  0.45178999999999997  0.56587  0.17621  1.0000
  H   H30       1.0  0.4475299999999998  0.5576199999999999  0.11419000000000001  1.0000
  H   H31       1.0  0.3996399999999999  0.8222  0.11494  1.0000
  H   H32       1.0  0.3988599999999999  0.81457  0.1774  1.0000
  H   H33       1.0  0.5290699999999998  0.72353  0.93416  1.0000
  H   H34       1.0  0.6547599999999999  0.90611  0.94932  1.0000
  H   H35       1.0  0.6520499999999999  0.9870899999999999  0.84508  1.0000
  H   H36       1.0  0.52416  0.8005  0.83456  1.0000
  H   H37       1.0  0.13107  0.36045  0.8552300000000002  1.0000
  H   H38       1.0  0.9553199999999998  0.20243  0.85875  1.0000
  H   H39       1.0  0.9193299999999995  0.30619  0.95683  1.0000
  H   H40       1.0  0.09808  0.45639  0.95025  1.0000
  H   H41       1.0  0.1431299999999999  0.67341  0.61523  1.0000
  H   H42       1.0  0.12734000000000006  0.61672  0.67423  1.0000
  H   H43       1.0  0.42481999999999986  0.6321  0.66221  1.0000
  H   H44       1.0  0.4263899999999998  0.68478  0.60334  1.0000
  H   H45       1.0  0.11764999999999995  0.54066  0.8434900000000001  1.0000
  H   H46       1.0  0.11396999999999995  0.54828  0.78157  1.0000
  H   H47       1.0  0.42984  0.60561  0.78069  1.0000
  H   H48       1.0  0.4226299999999998  0.6031  0.8431700000000001  1.0000
  H   H49       1.0  0.8861799999999997  0.14925  0.98398  1.0000
  H   H50       1.0  0.7232199999999998  0.15780999999999998  0.9795400000000001  1.0000
  H   H51       1.0  0.38807999999999987  0.11156  0.04081  1.0000
  H   H52       1.0  0.2248399999999999  0.11695  0.03355  1.0000
  H   H53       1.0  0.9101499999999998  0.004449999999999999  0.05058000000000001  1.0000
  H   H54       1.0  0.9109299999999997  0.9998799999999999  0.11291000000000001  1.0000
  H   H55       1.0  0.09753999999999996  0.85126  0.1053  1.0000
  H   H56       1.0  0.08810999999999988  0.86131  0.04348  1.0000
  H   H57       1.0  0.2611  0.11895  0.64887  1.0000
  H   H58       1.0  0.4337199999999999  0.28118  0.64482  1.0000
  H   H59       1.0  0.7197999999999998  0.61463  0.70964  1.0000
  H   H60       1.0  0.8904299999999998  0.77608  0.70242  1.0000
  H   H61       1.0  0.09518  0.08973  0.71747  1.0000
  H   H62       1.0  0.08712  0.08814  0.7797600000000001  1.0000
  H   H63       1.0  0.75205  0.9027299999999998  0.7719  1.0000
  H   H64       1.0  0.7744199999999998  0.9122099999999999  0.71009  1.0000
  H   H65       1.0  0.8558199999999998  0.74058  0.3162  1.0000
  H   H66       1.0  0.8430099999999998  0.56691  0.31228  1.0000
  H   H67       1.0  0.8900799999999998  0.27785  0.37643  1.0000
  H   H68       1.0  0.8833899999999998  0.10847  0.36931  1.0000
  H   H69       1.0  0.9962999999999997  0.90654  0.38399  1.0000
  H   H70       1.0  0.0035899999999999717  0.91349  0.44626  1.0000
  H   H71       1.0  0.14976  0.24833999999999995  0.43841  1.0000
  H   H72       1.0  0.13654  0.22716  0.3766  1.0000
  H   H73       1.0  0.73265  0.86061  0.02879  1.0000
  H   H74       1.0  0.5621099999999998  0.85453  0.02646  1.0000
  H   H75       1.0  0.30827999999999994  0.9234099999999998  0.95073  1.0000
  H   H76       1.0  0.1501  0.93981  0.9467  1.0000
  H   H77       1.0  0.8263899999999998  0.85454  0.9551600000000001  1.0000
  H   H78       1.0  0.7843499999999997  0.8566699999999999  0.89516  1.0000
  H   H79       1.0  0.09432999999999997  0.11926  0.8818100000000001  1.0000
  H   H80       1.0  0.12380999999999996  0.10502999999999998  0.94231  1.0000
  H   H81       1.0  0.14095999999999984  0.8703899999999998  0.36254  1.0000
  H   H82       1.0  0.14290999999999995  0.70382  0.36076  1.0000
  H   H83       1.0  0.0641  0.37667  0.28306  1.0000
  H   H84       1.0  0.047250000000000014  0.20181  0.27936000000000005  1.0000
  H   H85       1.0  0.1419499999999999  0.97168  0.28789  1.0000
  H   H86       1.0  0.14084999999999992  0.9295999999999999  0.22757000000000002  1.0000
  H   H87       1.0  0.8720099999999997  0.96739  0.21632000000000004  1.0000
  H   H88       1.0  0.8852699999999998  0.00901  0.27711  1.0000
  H   H89       1.0  0.12852  0.27077  0.69681  1.0000
  H   H90       1.0  0.2941399999999999  0.44064999999999993  0.6949700000000001  1.0000
  H   H91       1.0  0.62326  0.6912  0.61669  1.0000
  H   H92       1.0  0.7990299999999998  0.8481499999999997  0.613  1.0000
  H   H93       1.0  0.03143  0.17274  0.6217900000000001  1.0000
  H   H94       1.0  0.07418999999999996  0.21422999999999998  0.5615300000000001  1.0000
  H   H95       1.0  0.03106999999999997  0.90579  0.54877  1.0000
  H   H96       1.0  0.9893199999999995  0.87704  0.60959  1.0000
  H   H97       1.0  0.72483  0.52965  0.4052700000000001  1.0000
  H   H98       1.0  0.90238  0.67926  0.39512  1.0000
  H   H99       1.0  0.9929199999999999  0.60686  0.4898600000000001  1.0000
  H   H100      1.0  0.8098799999999999  0.46091  0.49612  1.0000
  H   H101      1.0  0.34204  0.15539999999999998  0.4758  1.0000
  H   H102      1.0  0.18932999999999986  0.9772199999999998  0.47853  1.0000
  H   H103      1.0  0.30089999999999995  0.9065699999999999  0.38718  1.0000
  H   H104      1.0  0.4447899999999999  0.09078999999999997  0.38669  1.0000
  H   H105      1.0  0.6771999999999998  0.13378  0.71627  1.0000
  H   H106      1.0  0.6227599999999998  0.11863  0.65704  1.0000
  H   H107      1.0  0.6322999999999998  0.41318  0.6689400000000001  1.0000
  H   H108      1.0  0.6806699999999999  0.41295  0.7281900000000001  1.0000
  H   H109      1.0  0.5289899999999998  0.11430999999999998  0.48676  1.0000
  H   H110      1.0  0.53974  0.10439  0.54849  1.0000
  H   H111      1.0  0.5982399999999998  0.42027  0.55346  1.0000
  H   H112      1.0  0.5940199999999998  0.41975  0.49112  1.0000
  H   H113      1.0  0.4721799999999999  0.19586  0.73792  1.0000
  H   H114      1.0  0.32533  0.22761999999999996  0.72775  1.0000
  H   H115      1.0  0.3856799999999999  0.37413  0.8254900000000001  1.0000
  H   H116      1.0  0.5294999999999997  0.33428  0.83161  1.0000
  H   H117      1.0  0.8414499999999998  0.18465  0.80771  1.0000
  H   H118      1.0  0.018719999999999983  0.20844999999999997  0.8112200000000002  1.0000
  H   H119      1.0  0.09869999999999995  0.39747  0.72152  1.0000
  H   H120      1.0  0.9149199999999998  0.35820999999999986  0.72005  1.0000
  H   H121      1.0  0.8757399999999996  0.54244  0.05044  1.0000
  H   H122      1.0  0.89111  0.5035  0.9909200000000001  1.0000
  H   H123      1.0  0.5901099999999998  0.22543999999999995  0.0014600000000000001  1.0000
  H   H124      1.0  0.59008  0.27303  0.06105000000000001  1.0000
  H   H125      1.0  0.8918799999999998  0.41958  0.8195  1.0000
  H   H126      1.0  0.90264  0.43934  0.8813100000000001  1.0000
  H   H127      1.0  0.58545  0.18489  0.88682  1.0000
  H   H128      1.0  0.5851  0.18148  0.8243800000000001  1.0000
  H   H129      1.0  0.8024299999999999  0.2747  0.07204  1.0000
  H   H130      1.0  0.7758999999999998  0.0976  0.06221  1.0000
  H   H131      1.0  0.60731  0.00496  0.15652  1.0000
  H   H132      1.0  0.6431599999999997  0.18753999999999996  0.16251  1.0000
  H   H133      1.0  0.8150599999999996  0.6599099999999998  0.14135  1.0000
  H   H134      1.0  0.7875199999999998  0.81119  0.14472  1.0000
  H   H135      1.0  0.60538  0.70029  0.05401  1.0000
  H   H136      1.0  0.6476599999999998  0.55774  0.05288000000000001  1.0000
  H   H137      1.0  0.4564199999999999  0.33406  0.3844  1.0000
  H   H138      1.0  0.49480999999999997  0.3868299999999999  0.32483  1.0000
  H   H139      1.0  0.7738  0.36555  0.33457  1.0000
  H   H140      1.0  0.7267999999999997  0.3196999999999999  0.39425  1.0000
  H   H141      1.0  0.5846799999999998  0.47625999999999996  0.15341  1.0000
  H   H142      1.0  0.5627399999999998  0.46475999999999995  0.21518000000000004  1.0000
  H   H143      1.0  0.81511  0.39884  0.21967  1.0000
  H   H144      1.0  0.8203099999999998  0.40408  0.15734  1.0000
  C   C1        1.0  0.2248199999999999  0.44538999999999995  0.58198  1.0000
  C   C2        1.0  0.25786999999999993  0.37623999999999996  0.59071  1.0000
  C   C3        1.0  0.2967799999999999  0.3381699999999999  0.56528  1.0000
  C   C4        1.0  0.30418  0.3772499999999999  0.53238  1.0000
  C   C5        1.0  0.2701799999999999  0.4474099999999999  0.52658  1.0000
  C   C6        1.0  0.3182999999999999  0.25769  0.57136  1.0000
  C   C7        1.0  0.26843  0.92435  0.54402  1.0000
  C   C8        1.0  0.27858999999999995  0.0216  0.54571  1.0000
  C   C9        1.0  0.31983  0.08306  0.57493  1.0000
  C   C10       1.0  0.3496999999999999  0.040059999999999985  0.60128  1.0000
  C   C11       1.0  0.3363299999999999  0.94155  0.59748  1.0000
  C   C12       1.0  0.3261399999999999  0.18042  0.57555  1.0000
  C   C13       1.0  0.4567099999999999  0.79356  0.29269  1.0000
  C   C14       1.0  0.43467  0.80371  0.3257  1.0000
  C   C15       1.0  0.34333  0.72348  0.34175  1.0000
  C   C16       1.0  0.27672  0.63868  0.32043  1.0000
  C   C17       1.0  0.3041499999999998  0.6355799999999999  0.28745  1.0000
  C   C18       1.0  0.3130499999999999  0.72917  0.40674000000000005  1.0000
  C   C19       1.0  0.37622999999999984  0.8187199999999999  0.49516000000000004  1.0000
  C   C20       1.0  0.3805699999999999  0.81987  0.46055  1.0000
  C   C21       1.0  0.3081599999999999  0.73152  0.44166  1.0000
  C   C22       1.0  0.23342999999999997  0.64595  0.46128  1.0000
  C   C23       1.0  0.23589999999999997  0.65051  0.49595000000000006  1.0000
  C   C24       1.0  0.32374999999999987  0.7271  0.37583000000000005  1.0000
  C   C25       1.0  0.21815999999999985  0.7747599999999999  0.24859  1.0000
  C   C26       1.0  0.1156999999999999  0.7415299999999999  0.25744  1.0000
  C   C27       1.0  0.03971999999999999  0.70555  0.23201000000000002  1.0000
  C   C28       1.0  0.0726499999999999  0.7012199999999997  0.19889  1.0000
  C   C29       1.0  0.17694999999999994  0.73518  0.19295000000000004  1.0000
  C   C30       1.0  0.9375499999999997  0.6836999999999998  0.23828  1.0000
  C   C31       1.0  0.6508299999999998  0.72659  0.21020000000000003  1.0000
  C   C32       1.0  0.7392899999999997  0.7187899999999999  0.21220999999999998  1.0000
  C   C33       1.0  0.7602599999999999  0.68008  0.24184  1.0000
  C   C34       1.0  0.6868599999999998  0.6505699999999999  0.26828  1.0000
  C   C35       1.0  0.6002399999999999  0.6612599999999998  0.26409000000000005  1.0000
  C   C36       1.0  0.8521  0.67522  0.24259  1.0000
  C   C37       1.0  0.34226  0.54198  0.95927  1.0000
  C   C38       1.0  0.37334  0.56435  0.99224  1.0000
  C   C39       1.0  0.3807499999999998  0.6540699999999999  0.00826  1.0000
  C   C40       1.0  0.36004999999999987  0.71889  0.98696  1.0000
  C   C41       1.0  0.3307499999999999  0.69123  0.95402  1.0000
  C   C42       1.0  0.41498  0.68385  0.07318  1.0000
  C   C43       1.0  0.43901999999999985  0.6203299999999998  0.16171  1.0000
  C   C44       1.0  0.4369599999999999  0.61617  0.1271  1.0000
  C   C45       1.0  0.4214699999999999  0.68862  0.10807000000000001  1.0000
  C   C46       1.0  0.41057999999999983  0.7636399999999999  0.12751  1.0000
  C   C47       1.0  0.41180999999999995  0.76118  0.16217  1.0000
  C   C48       1.0  0.40290999999999993  0.6736099999999999  0.04229000000000001  1.0000
  C   C49       1.0  0.5572699999999997  0.7839299999999998  0.91501  1.0000
  C   C50       1.0  0.62697  0.88615  0.92367  1.0000
  C   C51       1.0  0.6652699999999999  0.96284  0.8983  1.0000
  C   C52       1.0  0.6257999999999999  0.93092  0.8654900000000001  1.0000
  C   C53       1.0  0.55521  0.82674  0.85973  1.0000
  C   C54       1.0  0.7463399999999999  0.06463999999999999  0.9043700000000001  1.0000
  C   C55       1.0  0.08221999999999995  0.34504  0.87744  1.0000
  C   C56       1.0  0.9844799999999998  0.25839  0.8791200000000001  1.0000
  C   C57       1.0  0.92183  0.23992999999999998  0.90811  1.0000
  C   C58       1.0  0.96423  0.31386  0.93425  1.0000
  C   C59       1.0  0.06325999999999994  0.39849  0.93045  1.0000
  C   C60       1.0  0.82388  0.14941  0.9086800000000002  1.0000
  C   C61       1.0  0.20393  0.6636  0.62662  1.0000
  C   C62       1.0  0.1954499999999999  0.6320299999999998  0.65957  1.0000
  C   C63       1.0  0.27715  0.62275  0.67493  1.0000
  C   C64       1.0  0.3613399999999999  0.6414  0.65299  1.0000
  C   C65       1.0  0.36278  0.67126  0.62011  1.0000
  C   C66       1.0  0.27430999999999983  0.5877499999999999  0.73978  1.0000
  C   C67       1.0  0.18578  0.55654  0.82868  1.0000
  C   C68       1.0  0.18388  0.56056  0.79411  1.0000
  C   C69       1.0  0.2727999999999999  0.57966  0.7746400000000001  1.0000
  C   C70       1.0  0.35952999999999985  0.5919799999999998  0.79362  1.0000
  C   C71       1.0  0.35565999999999987  0.5888899999999999  0.8283  1.0000
  C   C72       1.0  0.27526  0.60054  0.70896  1.0000
  C   C73       1.0  0.8128599999999998  0.08587999999999998  0.99334  1.0000
  C   C74       1.0  0.72226  0.09097999999999998  0.9909300000000001  1.0000
  C   C75       1.0  0.33705  0.07198  0.01975  1.0000
  C   C76       1.0  0.24651999999999993  0.07557  0.01562  1.0000
  C   C77       1.0  0.9500999999999997  0.97119  0.06394  1.0000
  C   C78       1.0  0.9510199999999998  0.96827  0.09849  1.0000
  C   C79       1.0  0.004140000000000021  0.9242  0.11537000000000001  1.0000
  C   C80       1.0  0.0550199999999999  0.88553  0.09427  1.0000
  C   C81       1.0  0.049930000000000016  0.89097  0.05979  1.0000
  C   C82       1.0  0.00512999999999992  0.9217699999999999  0.15035  1.0000
  C   C83       1.0  0.27193  0.19166  0.65907  1.0000
  C   C84       1.0  0.36813999999999997  0.28183  0.6568300000000001  1.0000
  C   C85       1.0  0.7341799999999998  0.66482  0.68802  1.0000
  C   C86       1.0  0.8294299999999999  0.75427  0.6839  1.0000
  C   C87       1.0  0.0214  0.04945  0.7307700000000001  1.0000
  C   C88       1.0  0.016029999999999996  0.048119999999999996  0.7653  1.0000
  C   C89       1.0  0.9180799999999997  0.9945399999999999  0.78211  1.0000
  C   C90       1.0  0.8293899999999997  0.94477  0.76093  1.0000
  C   C91       1.0  0.84149  0.95009  0.72646  1.0000
  C   C92       1.0  0.9134699999999998  0.9918499999999999  0.8170900000000001  1.0000
  C   C93       1.0  0.91731  0.72888  0.32608  1.0000
  C   C94       1.0  0.9099099999999998  0.6320299999999998  0.32393  1.0000
  C   C95       1.0  0.92657  0.26429  0.35472  1.0000
  C   C96       1.0  0.9220899999999997  0.16963  0.35064  1.0000
  C   C97       1.0  0.02953000000000002  0.98003  0.3973  1.0000
  C   C98       1.0  0.03407999999999994  0.9848099999999999  0.43182  1.0000
  C   C99       1.0  0.07788999999999999  0.08238999999999999  0.4486200000000001  1.0000
  C   C100      1.0  0.11540999999999997  0.1713  0.42743  1.0000
  C   C101      1.0  0.10827999999999995  0.15982999999999994  0.39296  1.0000
  C   C102      1.0  0.08056  0.08641  0.48359  1.0000
  C   C103      1.0  0.7270699999999997  0.9247499999999997  0.01791  1.0000
  C   C104      1.0  0.63203  0.92129  0.01668  1.0000
  C   C105      1.0  0.29231999999999997  0.9667399999999998  0.9696000000000001  1.0000
  C   C106      1.0  0.20434999999999987  0.9757199999999999  0.96736  1.0000
  C   C107      1.0  0.88373  0.9108599999999998  0.93794  1.0000
  C   C108      1.0  0.8605499999999998  0.91264  0.90453  1.0000
  C   C109      1.0  0.9364799999999998  0.98722  0.88232  1.0000
  C   C110      1.0  0.033389999999999996  0.05888  0.89708  1.0000
  C   C111      1.0  0.050109999999999995  0.05159  0.9307  1.0000
  C   C112      1.0  0.92035  0.99017  0.848  1.0000
  C   C113      1.0  0.07656000000000003  0.80131  0.35148  1.0000
  C   C114      1.0  0.0776699999999999  0.7084699999999998  0.35055000000000003  1.0000
  C   C115      1.0  0.023829999999999973  0.31938999999999995  0.30271  1.0000
  C   C116      1.0  0.014469999999999983  0.22219999999999998  0.30065  1.0000
  C   C117      1.0  0.08455000000000004  0.97119  0.27104  1.0000
  C   C118      1.0  0.08348999999999991  0.9476299999999999  0.23745000000000002  1.0000
  C   C119      1.0  0.007569999999999972  0.9472099999999999  0.21574  1.0000
  C   C120      1.0  0.9337999999999995  0.9689699999999998  0.23117000000000001  1.0000
  C   C121      1.0  0.9403399999999997  0.99149  0.26495  1.0000
  C   C122      1.0  0.005239999999999883  0.9292599999999998  0.18131  1.0000
  C   C123      1.0  0.19793999999999995  0.27655  0.68537  1.0000
  C   C124      1.0  0.2900799999999998  0.3711599999999999  0.68441  1.0000
  C   C125      1.0  0.68027  0.7077199999999999  0.63624  1.0000
  C   C126      1.0  0.7779299999999998  0.79486  0.63416  1.0000
  C   C127      1.0  0.031299999999999994  0.11569999999999998  0.60466  1.0000
  C   C128      1.0  0.05523  0.13848  0.57109  1.0000
  C   C129      1.0  0.05445  0.06274  0.54895  1.0000
  C   C130      1.0  0.031029999999999995  0.96652  0.56398  1.0000
  C   C131      1.0  0.008270000000000019  0.95026  0.59778  1.0000
  C   C132      1.0  0.07259999999999997  0.07870999999999999  0.51453  1.0000
  C   C133      1.0  0.62889  0.00696  0.00305  1.0000
  C   C134      1.0  0.53477  0.00866  0.00115  1.0000
  C   C135      1.0  0.4544699999999999  0.01173  0.99915  1.0000
  C   C136      1.0  0.36246999999999996  0.01644  0.99631  1.0000
  C   C137      1.0  0.37833  0.37442  0.66995  1.0000
  C   C138      1.0  0.4746899999999999  0.46812  0.66828  1.0000
  C   C139      1.0  0.5585099999999997  0.54797  0.66646  1.0000
  C   C140      1.0  0.6560699999999998  0.63913  0.66375  1.0000
  C   C141      1.0  0.9917899999999997  0.62061  0.33661  1.0000
  C   C142      1.0  0.98814  0.52377  0.33490000000000003  1.0000
  C   C143      1.0  0.9842199999999998  0.43998  0.33307000000000003  1.0000
  C   C144      1.0  0.9785699999999998  0.34275999999999995  0.33032  1.0000
  C   C145      1.0  0.7860999999999998  0.54919  0.42355  1.0000
  C   C146      1.0  0.8852399999999996  0.63232  0.41769  1.0000
  C   C147      1.0  0.9626599999999995  0.65623  0.44198000000000004  1.0000
  C   C148      1.0  0.9353099999999999  0.59202  0.47068  1.0000
  C   C149      1.0  0.8335999999999998  0.51088  0.47398000000000007  1.0000
  C   C150      1.0  0.06202999999999992  0.7448499999999998  0.43827  1.0000
  C   C151      1.0  0.3296499999999999  0.09841  0.45649  1.0000
  C   C152      1.0  0.24590999999999993  0.99886  0.45833  1.0000
  C   C153      1.0  0.23168999999999995  0.92629  0.43302  1.0000
  C   C154      1.0  0.3059999999999999  0.96006  0.4067700000000001  1.0000
  C   C155      1.0  0.38699  0.06177  0.40678000000000003  1.0000
  C   C156      1.0  0.14380999999999997  0.8262199999999998  0.43470000000000003  1.0000
  C   C157      1.0  0.66514  0.19327999999999998  0.70491  1.0000
  C   C158      1.0  0.6351599999999996  0.18537999999999993  0.67182  1.0000
  C   C159      1.0  0.6234999999999998  0.26581  0.65657  1.0000
  C   C160      1.0  0.6412199999999998  0.3496199999999999  0.6783400000000002  1.0000
  C   C161      1.0  0.6689599999999999  0.35027  0.7114  1.0000
  C   C162      1.0  0.58343  0.26219  0.5921  1.0000
  C   C163      1.0  0.5466099999999998  0.18116999999999994  0.5024000000000001  1.0000
  C   C164      1.0  0.5521999999999999  0.17575  0.53686  1.0000
  C   C165      1.0  0.57266  0.26283  0.55732  1.0000
  C   C166      1.0  0.58417  0.35138999999999987  0.53963  1.0000
  C   C167      1.0  0.5801100000000001  0.35109  0.5049600000000001  1.0000
  C   C168      1.0  0.5992699999999997  0.2634  0.62267  1.0000
  C   C169      1.0  0.45068999999999987  0.23491  0.75686  1.0000
  C   C170      1.0  0.3691199999999999  0.25311  0.75098  1.0000
  C   C171      1.0  0.3424299999999999  0.30296  0.77609  1.0000
  C   C172      1.0  0.40263999999999983  0.33432  0.8056200000000001  1.0000
  C   C173      1.0  0.4826  0.31213  0.80886  1.0000
  C   C174      1.0  0.25482  0.31521  0.7723300000000001  1.0000
  C   C175      1.0  0.9001699999999999  0.2303  0.78891  1.0000
  C   C176      1.0  0.9993499999999998  0.24536999999999995  0.7912500000000001  1.0000
  C   C177      1.0  0.07440999999999998  0.30531  0.7666800000000001  1.0000
  C   C178      1.0  0.04335999999999998  0.34803  0.74059  1.0000
  C   C179      1.0  0.9417400000000001  0.32771  0.74006  1.0000
  C   C180      1.0  0.17399  0.31653  0.7687600000000001  1.0000
  C   C181      1.0  0.8146199999999998  0.47269  0.03867  1.0000
  C   C182      1.0  0.8226499999999998  0.45096  0.00545  1.0000
  C   C183      1.0  0.74031  0.36128999999999994  0.98975  1.0000
  C   C184      1.0  0.6547599999999999  0.29654  0.01123  1.0000
  C   C185      1.0  0.6540399999999997  0.32308  0.04444  1.0000
  C   C186      1.0  0.7445099999999998  0.3262  0.92512  1.0000
  C   C187      1.0  0.82498  0.3705099999999999  0.8352400000000001  1.0000
  C   C188      1.0  0.8309699999999998  0.3810599999999999  0.86973  1.0000
  C   C189      1.0  0.7437200000000002  0.31512  0.89033  1.0000
  C   C190      1.0  0.65444  0.23895999999999998  0.8728100000000001  1.0000
  C   C191      1.0  0.6542099999999997  0.23539999999999994  0.83813  1.0000
  C   C192      1.0  0.7428499999999997  0.3402099999999999  0.95575  1.0000
  C   C193      1.0  0.7598499999999998  0.21316  0.09032  1.0000
  C   C194      1.0  0.7446899999999997  0.11433  0.08463  1.0000
  C   C195      1.0  0.68995  0.03643  0.10888  1.0000
  C   C196      1.0  0.6510899999999997  0.06296  0.13738  1.0000
  C   C197      1.0  0.67098  0.16444  0.14053  1.0000
  C   C198      1.0  0.6800599999999998  0.93738  0.10522  1.0000
  C   C199      1.0  0.77001  0.67211  0.12232000000000001  1.0000
  C   C200      1.0  0.75297  0.75502  0.12453000000000002  1.0000
  C   C201      1.0  0.6939899999999998  0.76896  0.09958  1.0000
  C   C202      1.0  0.65409  0.69526  0.07333  1.0000
  C   C203      1.0  0.67603  0.61508  0.07297  1.0000
  C   C204      1.0  0.6807699999999998  0.85623  0.10152  1.0000
  C   C205      1.0  0.5263699999999998  0.34289  0.3724700000000001  1.0000
  C   C206      1.0  0.54786  0.3718599999999999  0.33918000000000004  1.0000
  C   C207      1.0  0.6377799999999999  0.3794599999999999  0.32322  1.0000
  C   C208      1.0  0.7027199999999998  0.35932  0.34450000000000003  1.0000
  C   C209      1.0  0.6764599999999997  0.33291  0.37779  1.0000
  C   C210      1.0  0.67408  0.41809999999999997  0.25856  1.0000
  C   C211      1.0  0.6326799999999999  0.4570299999999999  0.16891  1.0000
  C   C212      1.0  0.6209399999999998  0.4511  0.20339000000000002  1.0000
  C   C213      1.0  0.68592  0.42865  0.22374  1.0000
  C   C214      1.0  0.7618599999999998  0.41497  0.20593000000000003  1.0000
  C   C215      1.0  0.7664399999999998  0.41952  0.17127  1.0000
  C   C216      1.0  0.65915  0.40272  0.28918  1.0000
  N   N1        1.0  0.2290899999999999  0.48088999999999993  0.55048  1.0000
  N   N2        1.0  0.29621999999999976  0.8827  0.56942  1.0000
  N   N3        1.0  0.39422999999999997  0.7102399999999999  0.27278  1.0000
  N   N4        1.0  0.30607  0.73545  0.51378  1.0000
  N   N5        1.0  0.25063999999999986  0.77342  0.21692000000000003  1.0000
  N   N6        1.0  0.5805299999999998  0.69859  0.23560000000000003  1.0000
  N   N7        1.0  0.31902  0.60265  0.9393600000000001  1.0000
  N   N8        1.0  0.4254799999999999  0.69059  0.18014  1.0000
  N   N9        1.0  0.5215099999999998  0.7523899999999998  0.8835800000000001  1.0000
  N   N10       1.0  0.12317999999999994  0.41569999999999996  0.90259  1.0000
  N   N11       1.0  0.2869799999999999  0.6855999999999998  0.60614  1.0000
  N   N12       1.0  0.2703399999999999  0.57168  0.8467100000000001  1.0000
  N   N13       1.0  0.9983399999999999  0.93307  0.0438  1.0000
  N   N14       1.0  0.93595  0.0012999999999999997  0.71057  1.0000
  N   N15       1.0  0.06578999999999997  0.06568  0.37708  1.0000
  N   N16       1.0  0.9779499999999998  0.97791  0.9516700000000001  1.0000
  N   N17       1.0  0.015329999999999917  0.9949199999999999  0.28544  1.0000
  N   N18       1.0  0.006139999999999997  0.022189999999999998  0.61869  1.0000
  N   N19       1.0  0.8169399999999998  0.00527  0.00682  1.0000
  N   N20       1.0  0.17973  0.02909  0.9898200000000003  1.0000
  N   N21       1.0  0.18764999999999996  0.18737  0.67328  1.0000
  N   N22       1.0  0.8532599999999998  0.8198  0.65741  1.0000
  N   N23       1.0  0.9981399999999998  0.8127399999999998  0.33982  1.0000
  N   N24       1.0  0.9645999999999998  0.14661  0.32406  1.0000
  N   N25       1.0  0.75877  0.489  0.45121000000000006  1.0000
  N   N26       1.0  0.4003799999999999  0.13136  0.43116000000000004  1.0000
  N   N27       1.0  0.6828199999999998  0.27436  0.72554  1.0000
  N   N28       1.0  0.56213  0.26782999999999996  0.48552  1.0000
  N   N29       1.0  0.50691  0.2624  0.7853  1.0000
  N   N30       1.0  0.8696799999999998  0.26998  0.76371  1.0000
  N   N31       1.0  0.7315699999999999  0.41104999999999997  0.05898  1.0000
  N   N32       1.0  0.7375099999999998  0.30033  0.81853  1.0000
  N   N33       1.0  0.7250599999999998  0.23973  0.11780000000000002  1.0000
  N   N34       1.0  0.73295  0.60201  0.09697  1.0000
  N   N35       1.0  0.5884499999999998  0.3224799999999999  0.39259  1.0000
  N   N36       1.0  0.70297  0.4398  0.15193  1.0000
