data_image0
_chemical_formula_structural       Mn12H184C288N40O48
_chemical_formula_sum              "Mn12 H184 C288 N40 O48"
_cell_length_a       13.82334
_cell_length_b       19.50287
_cell_length_c       31.60357
_cell_angle_alpha    90.0023
_cell_angle_beta     89.99862
_cell_angle_gamma    89.99239

_space_group_name_H-M_alt    "P 1"
_space_group_IT_number       1

loop_
  _space_group_symop_operation_xyz
  'x, y, z'

loop_
  _atom_site_type_symbol
  _atom_site_label
  _atom_site_symmetry_multiplicity
  _atom_site_fract_x
  _atom_site_fract_y
  _atom_site_fract_z
  _atom_site_occupancy
  Mn  Mn1       1.0  0.47173  0.25558  0.9178500000000003  1.0000
  Mn  Mn2       1.0  0.97122  0.24442  0.08218  1.0000
  Mn  Mn3       1.0  0.52834  0.74442  0.41786  1.0000
  Mn  Mn4       1.0  0.02859  0.7555800000000001  0.58216  1.0000
  Mn  Mn5       1.0  0.52833  0.74444  0.08216  1.0000
  Mn  Mn6       1.0  0.02857  0.7555900000000001  0.9178500000000003  1.0000
  Mn  Mn7       1.0  0.47176000000000007  0.25559  0.58215  1.0000
  Mn  Mn8       1.0  0.9712400000000001  0.24445000000000003  0.41785  1.0000
  Mn  Mn9       1.0  0.04894000000000001  0.57173  0.25  1.0000
  Mn  Mn10      1.0  0.5488  0.92821  0.74996  1.0000
  Mn  Mn11      1.0  0.95105  0.42822  0.75  1.0000
  Mn  Mn12      1.0  0.45123000000000013  0.07174  0.25001  1.0000
  H   H1        1.0  0.23850000000000002  0.26079  0.9247800000000002  1.0000
  H   H2        1.0  0.49254  0.41654  0.04776  1.0000
  H   H3        1.0  0.7684200000000002  0.35918000000000005  0.995  1.0000
  H   H4        1.0  0.80225  0.35755  0.06578  1.0000
  H   H5        1.0  0.92639  0.46911  0.18363  1.0000
  H   H6        1.0  0.38965  0.17321000000000003  0.7895300000000002  1.0000
  H   H7        1.0  0.61378  0.19688000000000003  0.84534  1.0000
  H   H8        1.0  0.8915700000000001  0.42223000000000005  0.11876  1.0000
  H   H9        1.0  0.58131  0.51393  0.06295  1.0000
  H   H10       1.0  0.11208  0.31797  0.96962  1.0000
  H   H11       1.0  0.66749  0.57844  0.11796  1.0000
  H   H12       1.0  0.16749  0.39908  0.02661  1.0000
  H   H13       1.0  0.3432400000000001  0.41996  0.03606  1.0000
  H   H14       1.0  0.906  0.23438000000000003  0.88773  1.0000
  H   H15       1.0  0.8391  0.30149000000000004  0.94744  1.0000
  H   H16       1.0  0.42635  0.39181000000000005  0.78992  1.0000
  H   H17       1.0  0.79198  0.181  0.8346  1.0000
  H   H18       1.0  0.92638  0.68406  0.19646  1.0000
  H   H19       1.0  0.78964  0.64759  0.13494000000000006  1.0000
  H   H20       1.0  0.44802  0.08338000000000001  0.05498  1.0000
  H   H21       1.0  0.52737  0.041  0.92651  1.0000
  H   H22       1.0  0.7382900000000001  0.23925  0.07517  1.0000
  H   H23       1.0  0.99244  0.08343  0.95228  1.0000
  H   H24       1.0  0.26837  0.14079  0.00501  1.0000
  H   H25       1.0  0.30216000000000004  0.14251  0.9342200000000003  1.0000
  H   H26       1.0  0.42641  0.030920000000000003  0.81636  1.0000
  H   H27       1.0  0.88952  0.32684  0.21054  1.0000
  H   H28       1.0  0.11362000000000001  0.30314  0.15463  1.0000
  H   H29       1.0  0.39147  0.07791  0.8812200000000002  1.0000
  H   H30       1.0  0.08133000000000001  0.98604  0.93706  1.0000
  H   H31       1.0  0.6120100000000002  0.18204  0.03029  1.0000
  H   H32       1.0  0.16753  0.92161  0.882  1.0000
  H   H33       1.0  0.6675200000000002  0.10084000000000001  0.97335  1.0000
  H   H34       1.0  0.84331  0.08  0.96394  1.0000
  H   H35       1.0  0.40594  0.26556  0.11233  1.0000
  H   H36       1.0  0.33918000000000004  0.19848000000000002  0.05261000000000001  1.0000
  H   H37       1.0  0.9260500000000003  0.10832  0.21008000000000004  1.0000
  H   H38       1.0  0.29184  0.31903  0.1654  1.0000
  H   H39       1.0  0.42627  0.81595  0.80353  1.0000
  H   H40       1.0  0.2896  0.8525000000000001  0.8650900000000002  1.0000
  H   H41       1.0  0.94816  0.41659  0.94479  1.0000
  H   H42       1.0  0.027160000000000004  0.45863  0.07338  1.0000
  H   H43       1.0  0.76155  0.73915  0.4247300000000001  1.0000
  H   H44       1.0  0.5075  0.58345  0.54773  1.0000
  H   H45       1.0  0.23159  0.64083  0.49497  1.0000
  H   H46       1.0  0.19775  0.64246  0.56576  1.0000
  H   H47       1.0  0.07359  0.53094  0.68364  1.0000
  H   H48       1.0  0.6103700000000002  0.82672  0.28959  1.0000
  H   H49       1.0  0.38625000000000004  0.8031100000000002  0.34531  1.0000
  H   H50       1.0  0.10843  0.57781  0.6187400000000002  1.0000
  H   H51       1.0  0.41869  0.48606  0.56295  1.0000
  H   H52       1.0  0.8879400000000001  0.68206  0.46963  1.0000
  H   H53       1.0  0.3325  0.4216  0.6179700000000001  1.0000
  H   H54       1.0  0.83248  0.60102  0.52665  1.0000
  H   H55       1.0  0.6567000000000001  0.5800800000000002  0.53606  1.0000
  H   H56       1.0  0.09403  0.7656200000000001  0.38773000000000013  1.0000
  H   H57       1.0  0.16094  0.69847  0.44742  1.0000
  H   H58       1.0  0.57366  0.6081500000000001  0.28993  1.0000
  H   H59       1.0  0.20804  0.81902  0.3346000000000001  1.0000
  H   H60       1.0  0.07363  0.31597  0.69647  1.0000
  H   H61       1.0  0.21039  0.35245  0.63495  1.0000
  H   H62       1.0  0.55204  0.9164200000000001  0.55499  1.0000
  H   H63       1.0  0.47259  0.95893  0.42653000000000013  1.0000
  H   H64       1.0  0.26166  0.76077  0.57516  1.0000
  H   H65       1.0  0.00752  0.91655  0.45227  1.0000
  H   H66       1.0  0.73162  0.85916  0.50499  1.0000
  H   H67       1.0  0.69785  0.85747  0.43419  1.0000
  H   H68       1.0  0.57358  0.96911  0.3164  1.0000
  H   H69       1.0  0.11032  0.67314  0.7104600000000002  1.0000
  H   H70       1.0  0.88633  0.69687  0.6546300000000003  1.0000
  H   H71       1.0  0.60854  0.9221000000000003  0.38121  1.0000
  H   H72       1.0  0.91867  0.01391  0.43707  1.0000
  H   H73       1.0  0.38797  0.81796  0.5302900000000003  1.0000
  H   H74       1.0  0.83246  0.0784  0.3820400000000001  1.0000
  H   H75       1.0  0.33246  0.89914  0.47336  1.0000
  H   H76       1.0  0.1567  0.9199600000000001  0.46392  1.0000
  H   H77       1.0  0.59403  0.73445  0.61233  1.0000
  H   H78       1.0  0.66081  0.8014600000000001  0.5525900000000002  1.0000
  H   H79       1.0  0.07369  0.8917600000000001  0.71009  1.0000
  H   H80       1.0  0.70812  0.68098  0.6654  1.0000
  H   H81       1.0  0.57374  0.18403  0.3035600000000001  1.0000
  H   H82       1.0  0.7104200000000002  0.14751  0.36509  1.0000
  H   H83       1.0  0.05182  0.58333  0.44489  1.0000
  H   H84       1.0  0.97285  0.54133  0.57343  1.0000
  H   H85       1.0  0.76154  0.73919  0.07524  1.0000
  H   H86       1.0  0.5075  0.58345  0.95225  1.0000
  H   H87       1.0  0.23158  0.64083  0.00501  1.0000
  H   H88       1.0  0.19776  0.64246  0.93423  1.0000
  H   H89       1.0  0.07357  0.53091  0.81636  1.0000
  H   H90       1.0  0.61038  0.82677  0.21050000000000005  1.0000
  H   H91       1.0  0.38625000000000004  0.8031300000000002  0.15467000000000006  1.0000
  H   H92       1.0  0.10843  0.5778  0.8812500000000002  1.0000
  H   H93       1.0  0.41869  0.48604000000000014  0.93704  1.0000
  H   H94       1.0  0.8879300000000002  0.68204  0.03036  1.0000
  H   H95       1.0  0.33249  0.42156000000000005  0.8820200000000002  1.0000
  H   H96       1.0  0.83248  0.60095  0.9733600000000002  1.0000
  H   H97       1.0  0.6567000000000001  0.5800400000000001  0.9639500000000002  1.0000
  H   H98       1.0  0.09401  0.76561  0.11227  1.0000
  H   H99       1.0  0.16093000000000005  0.69848  0.05257  1.0000
  H   H100      1.0  0.57365  0.6081900000000001  0.21009  1.0000
  H   H101      1.0  0.20803  0.81902  0.1654  1.0000
  H   H102      1.0  0.07359  0.31594  0.80353  1.0000
  H   H103      1.0  0.21036  0.35241  0.86505  1.0000
  H   H104      1.0  0.55207  0.9164200000000001  0.9449300000000003  1.0000
  H   H105      1.0  0.47269  0.95883  0.07343  1.0000
  H   H106      1.0  0.26166  0.7607900000000002  0.92483  1.0000
  H   H107      1.0  0.0075  0.9165600000000002  0.04773  1.0000
  H   H108      1.0  0.73164  0.85916  0.99501  1.0000
  H   H109      1.0  0.69783  0.8574800000000001  0.06581  1.0000
  H   H110      1.0  0.57361  0.96912  0.18362  1.0000
  H   H111      1.0  0.11033  0.67315  0.7895300000000002  1.0000
  H   H112      1.0  0.88634  0.6968800000000002  0.8453600000000002  1.0000
  H   H113      1.0  0.60853  0.92212  0.1188  1.0000
  H   H114      1.0  0.9186500000000001  0.01392  0.06292  1.0000
  H   H115      1.0  0.38796  0.81797  0.9697000000000002  1.0000
  H   H116      1.0  0.83244  0.07841000000000001  0.11797  1.0000
  H   H117      1.0  0.33247  0.89914  0.02664  1.0000
  H   H118      1.0  0.15671000000000002  0.9199700000000001  0.03607  1.0000
  H   H119      1.0  0.59404  0.73443  0.8876800000000002  1.0000
  H   H120      1.0  0.6608200000000002  0.80147  0.9474  1.0000
  H   H121      1.0  0.07373000000000003  0.8917500000000002  0.78992  1.0000
  H   H122      1.0  0.7081300000000003  0.68097  0.83461  1.0000
  H   H123      1.0  0.57369  0.18405000000000002  0.19644  1.0000
  H   H124      1.0  0.7103600000000001  0.14753000000000002  0.1349  1.0000
  H   H125      1.0  0.05178  0.58335  0.05512  1.0000
  H   H126      1.0  0.9727900000000003  0.54133  0.92657  1.0000
  H   H127      1.0  0.23852  0.26082  0.5752400000000002  1.0000
  H   H128      1.0  0.4925300000000001  0.41657  0.4522600000000001  1.0000
  H   H129      1.0  0.7684300000000002  0.35918000000000005  0.505  1.0000
  H   H130      1.0  0.80223  0.35755  0.4342100000000001  1.0000
  H   H131      1.0  0.9264000000000002  0.4691000000000001  0.31637  1.0000
  H   H132      1.0  0.3896600000000001  0.17322000000000004  0.71045  1.0000
  H   H133      1.0  0.61381  0.19692000000000004  0.65467  1.0000
  H   H134      1.0  0.89155  0.42222  0.3812300000000001  1.0000
  H   H135      1.0  0.5813000000000001  0.51393  0.43705  1.0000
  H   H136      1.0  0.11209  0.31797  0.5304  1.0000
  H   H137      1.0  0.66748  0.57843  0.3820400000000001  1.0000
  H   H138      1.0  0.1675  0.39906000000000014  0.4734  1.0000
  H   H139      1.0  0.34327000000000013  0.41996  0.46396  1.0000
  H   H140      1.0  0.9060200000000003  0.23439  0.6122500000000002  1.0000
  H   H141      1.0  0.83909  0.30148  0.55254  1.0000
  H   H142      1.0  0.42636000000000013  0.39183000000000007  0.7100800000000003  1.0000
  H   H143      1.0  0.7920200000000002  0.18104  0.6654  1.0000
  H   H144      1.0  0.92636  0.68406  0.30353000000000013  1.0000
  H   H145      1.0  0.7895900000000002  0.64759  0.36504  1.0000
  H   H146      1.0  0.4479500000000001  0.08347  0.44503  1.0000
  H   H147      1.0  0.52737  0.04092  0.57348  1.0000
  H   H148      1.0  0.73825  0.23924000000000004  0.42477  1.0000
  H   H149      1.0  0.99237  0.08344  0.54768  1.0000
  H   H150      1.0  0.26833  0.14079  0.49496  1.0000
  H   H151      1.0  0.3021  0.14256  0.56576  1.0000
  H   H152      1.0  0.42642  0.030920000000000003  0.6836  1.0000
  H   H153      1.0  0.8895700000000002  0.3268  0.28963  1.0000
  H   H154      1.0  0.11360000000000003  0.30305  0.3453  1.0000
  H   H155      1.0  0.3914100000000001  0.07797  0.61876  1.0000
  H   H156      1.0  0.08128  0.98606  0.5629100000000002  1.0000
  H   H157      1.0  0.61197  0.18209  0.4696900000000001  1.0000
  H   H158      1.0  0.16748  0.9216400000000001  0.6179700000000001  1.0000
  H   H159      1.0  0.66751  0.10095  0.52667  1.0000
  H   H160      1.0  0.84329  0.08005  0.53605  1.0000
  H   H161      1.0  0.4059100000000001  0.26564000000000004  0.38767  1.0000
  H   H162      1.0  0.33916  0.19852000000000003  0.4473800000000001  1.0000
  H   H163      1.0  0.9262000000000001  0.10819000000000002  0.2899  1.0000
  H   H164      1.0  0.29182000000000013  0.31905  0.33458  1.0000
  H   H165      1.0  0.42618  0.8159600000000002  0.6964200000000002  1.0000
  H   H166      1.0  0.28945  0.85254  0.6349000000000002  1.0000
  H   H167      1.0  0.94812  0.41659  0.5552  1.0000
  H   H168      1.0  0.027160000000000004  0.45863  0.4266  1.0000
  H   H169      1.0  0.19136000000000003  0.94958  0.25  1.0000
  H   H170      1.0  0.29373  0.70498  0.25  1.0000
  H   H171      1.0  0.41791  0.79967  0.25  1.0000
  H   H172      1.0  0.06658  0.85453  0.25  1.0000
  H   H173      1.0  0.69141  0.5504600000000001  0.75  1.0000
  H   H174      1.0  0.79377  0.7950400000000001  0.75  1.0000
  H   H175      1.0  0.9180100000000001  0.7004000000000001  0.75  1.0000
  H   H176      1.0  0.56671  0.64555  0.75  1.0000
  H   H177      1.0  0.80873  0.05037  0.7500100000000002  1.0000
  H   H178      1.0  0.70616  0.29493  0.75  1.0000
  H   H179      1.0  0.5820200000000001  0.20023  0.7500100000000002  1.0000
  H   H180      1.0  0.93337  0.14551  0.75  1.0000
  H   H181      1.0  0.30859  0.44952000000000003  0.25  1.0000
  H   H182      1.0  0.20642  0.20492000000000005  0.24999000000000005  1.0000
  H   H183      1.0  0.08205  0.29943  0.24999000000000005  1.0000
  H   H184      1.0  0.43333  0.35448  0.25  1.0000
  C   C1        1.0  0.25859  0.29615  0.9500000000000002  1.0000
  C   C2        1.0  0.6408700000000002  0.32494  0.96173  1.0000
  C   C3        1.0  0.53523  0.39206  0.02315  1.0000
  C   C4        1.0  0.68972  0.35883  0.99423  1.0000
  C   C5        1.0  0.3844  0.34956000000000004  0.98614  1.0000
  C   C6        1.0  0.49041  0.35677  0.99018  1.0000
  C   C7        1.0  0.77279  0.4060900000000001  0.07666  1.0000
  C   C8        1.0  0.68974  0.28633  0.92736  1.0000
  C   C9        1.0  0.6366700000000002  0.39396  0.025460000000000007  1.0000
  C   C10       1.0  0.41698  0.28178  0.84127  1.0000
  C   C11       1.0  0.68597  0.43129  0.059670000000000015  1.0000
  C   C12       1.0  0.91012  0.52264  0.17802  1.0000
  C   C13       1.0  0.39499  0.22101000000000004  0.77202  1.0000
  C   C14       1.0  0.66601  0.21958  0.86703  1.0000
  C   C15       1.0  0.40689  0.28269  0.7943  1.0000
  C   C16       1.0  0.8234500000000001  0.44277000000000005  0.10715  1.0000
  C   C17       1.0  0.78698  0.50576  0.12118  1.0000
  C   C18       1.0  0.6487100000000002  0.49339  0.07543  1.0000
  C   C19       1.0  0.18863  0.32814  0.97481  1.0000
  C   C20       1.0  0.69836  0.53072  0.10605000000000003  1.0000
  C   C21       1.0  0.21965000000000004  0.37297  0.00654  1.0000
  C   C22       1.0  0.3183000000000001  0.3842800000000001  0.01199  1.0000
  C   C23       1.0  0.82799  0.24064  0.89068  1.0000
  C   C24       1.0  0.79027  0.27905  0.92414  1.0000
  C   C25       1.0  0.4164200000000001  0.3447  0.77203  1.0000
  C   C26       1.0  0.7653700000000001  0.21057  0.86139  1.0000
  C   C27       1.0  0.9061800000000001  0.63451  0.18359  1.0000
  C   C28       1.0  0.83871  0.6171600000000002  0.15376  1.0000
  C   C29       1.0  0.48545  0.06882000000000002  0.9896400000000002  1.0000
  C   C30       1.0  0.47098  0.14308000000000004  0.97927  1.0000
  C   C31       1.0  0.47036  0.04621  0.03123  1.0000
  C   C32       1.0  0.51537  0.02216  0.9584600000000001  1.0000
  C   C33       1.0  0.7584500000000002  0.20385  0.04996  1.0000
  C   C34       1.0  0.1408  0.17503  0.03829  1.0000
  C   C35       1.0  0.03516  0.1079  0.97689  1.0000
  C   C36       1.0  0.18967  0.14114000000000002  0.00579  1.0000
  C   C37       1.0  0.88434  0.15041000000000002  0.01388  1.0000
  C   C38       1.0  0.99036  0.14321  0.00985  1.0000
  C   C39       1.0  0.27272  0.09396000000000002  0.9233400000000003  1.0000
  C   C40       1.0  0.18969  0.21363000000000001  0.07265  1.0000
  C   C41       1.0  0.1366  0.10604  0.97455  1.0000
  C   C42       1.0  0.9160100000000002  0.21822  0.15876  1.0000
  C   C43       1.0  0.18592  0.06874  0.94034  1.0000
  C   C44       1.0  0.4101  0.97739  0.8219700000000002  1.0000
  C   C45       1.0  0.8948500000000001  0.27906000000000003  0.22804000000000005  1.0000
  C   C46       1.0  0.16590000000000005  0.28043000000000007  0.13296  1.0000
  C   C47       1.0  0.90656  0.21739  0.20574  1.0000
  C   C48       1.0  0.3233900000000001  0.05732000000000001  0.89283  1.0000
  C   C49       1.0  0.28696  0.9943200000000001  0.87881  1.0000
  C   C50       1.0  0.1487  0.00663  0.92457  1.0000
  C   C51       1.0  0.68856  0.17184  0.025130000000000006  1.0000
  C   C52       1.0  0.19836000000000004  0.9693200000000002  0.89395  1.0000
  C   C53       1.0  0.71963  0.12698  0.99343  1.0000
  C   C54       1.0  0.8183000000000002  0.11567  0.98801  1.0000
  C   C55       1.0  0.32792000000000004  0.25933  0.10935  1.0000
  C   C56       1.0  0.29024  0.22091  0.07588  1.0000
  C   C57       1.0  0.91618  0.15539  0.228  1.0000
  C   C58       1.0  0.26525  0.2894300000000001  0.13861  1.0000
  C   C59       1.0  0.40612  0.8655200000000002  0.81641  1.0000
  C   C60       1.0  0.33866  0.8829000000000001  0.84624  1.0000
  C   C61       1.0  0.98529  0.43106000000000005  0.01025  1.0000
  C   C62       1.0  0.97055  0.35692  0.02075  1.0000
  C   C63       1.0  0.97029  0.45366000000000006  0.96863  1.0000
  C   C64       1.0  0.015150000000000002  0.47764  0.04148  1.0000
  C   C65       1.0  0.74145  0.70382  0.44997  1.0000
  C   C66       1.0  0.35916  0.6750300000000002  0.46169  1.0000
  C   C67       1.0  0.4648  0.60792  0.52312  1.0000
  C   C68       1.0  0.31029  0.64116  0.49419  1.0000
  C   C69       1.0  0.61561  0.6504300000000001  0.4861  1.0000
  C   C70       1.0  0.50961  0.64321  0.49015  1.0000
  C   C71       1.0  0.22721  0.59392  0.57663  1.0000
  C   C72       1.0  0.3103  0.71363  0.42733  1.0000
  C   C73       1.0  0.36335  0.60605  0.52544  1.0000
  C   C74       1.0  0.5830200000000001  0.71819  0.34129  1.0000
  C   C75       1.0  0.31404  0.56873  0.55965  1.0000
  C   C76       1.0  0.08986  0.4774  0.6780200000000002  1.0000
  C   C77       1.0  0.60504  0.77895  0.27205  1.0000
  C   C78       1.0  0.33402  0.78041  0.36701  1.0000
  C   C79       1.0  0.59312  0.71727  0.29433  1.0000
  C   C80       1.0  0.17655  0.55726  0.60714  1.0000
  C   C81       1.0  0.21301  0.4942800000000001  0.62118  1.0000
  C   C82       1.0  0.3512900000000001  0.50663  0.57542  1.0000
  C   C83       1.0  0.81139  0.67186  0.4748  1.0000
  C   C84       1.0  0.30164  0.46931  0.60604  1.0000
  C   C85       1.0  0.78034  0.62707  0.50654  1.0000
  C   C86       1.0  0.68169  0.6157400000000001  0.51198  1.0000
  C   C87       1.0  0.17204  0.7593500000000001  0.39067  1.0000
  C   C88       1.0  0.20977  0.7209200000000001  0.42412  1.0000
  C   C89       1.0  0.58359  0.65527  0.27206  1.0000
  C   C90       1.0  0.23466  0.78943  0.3613800000000001  1.0000
  C   C91       1.0  0.09382  0.36553  0.68359  1.0000
  C   C92       1.0  0.16131  0.38288000000000005  0.65377  1.0000
  C   C93       1.0  0.51457  0.9310100000000002  0.48965  1.0000
  C   C94       1.0  0.52898  0.8567900000000003  0.47921  1.0000
  C   C95       1.0  0.5297  0.95359  0.53125  1.0000
  C   C96       1.0  0.48465000000000014  0.9777000000000001  0.45849  1.0000
  C   C97       1.0  0.24152  0.79616  0.54996  1.0000
  C   C98       1.0  0.85917  0.82494  0.53828  1.0000
  C   C99       1.0  0.9648200000000002  0.8920600000000001  0.47687  1.0000
  C   C100      1.0  0.8103200000000003  0.85881  0.50577  1.0000
  C   C101      1.0  0.11564000000000003  0.8495800000000001  0.51388  1.0000
  C   C102      1.0  0.00963  0.85678  0.50984  1.0000
  C   C103      1.0  0.72728  0.9060200000000002  0.42332  1.0000
  C   C104      1.0  0.81028  0.7863500000000001  0.5726400000000001  1.0000
  C   C105      1.0  0.86338  0.89394  0.47454  1.0000
  C   C106      1.0  0.08324  0.78177  0.65874  1.0000
  C   C107      1.0  0.81407  0.93124  0.4403300000000001  1.0000
  C   C108      1.0  0.58987  0.02263  0.32199  1.0000
  C   C109      1.0  0.10507  0.7209400000000001  0.72797  1.0000
  C   C110      1.0  0.8340600000000001  0.7195800000000001  0.63296  1.0000
  C   C111      1.0  0.09327  0.7826400000000002  0.7057  1.0000
  C   C112      1.0  0.67661  0.9426900000000001  0.3928200000000001  1.0000
  C   C113      1.0  0.71302  0.0057  0.37883  1.0000
  C   C114      1.0  0.85129  0.99335  0.42458  1.0000
  C   C115      1.0  0.3114200000000001  0.82817  0.52514  1.0000
  C   C116      1.0  0.8016400000000001  0.030670000000000003  0.39396  1.0000
  C   C117      1.0  0.28034  0.8729900000000002  0.49342000000000014  1.0000
  C   C118      1.0  0.18169  0.88431  0.488  1.0000
  C   C119      1.0  0.67205  0.74065  0.60934  1.0000
  C   C120      1.0  0.70973  0.77908  0.57588  1.0000
  C   C121      1.0  0.08369000000000001  0.8446500000000001  0.72797  1.0000
  C   C122      1.0  0.73471  0.7105800000000001  0.6386200000000002  1.0000
  C   C123      1.0  0.59388  0.13448  0.31644  1.0000
  C   C124      1.0  0.66134  0.1171  0.34626  1.0000
  C   C125      1.0  0.014700000000000003  0.56887  0.5103  1.0000
  C   C126      1.0  0.029320000000000002  0.6431  0.52071  1.0000
  C   C127      1.0  0.02972  0.54622  0.4687  1.0000
  C   C128      1.0  0.98487  0.5222700000000001  0.54154  1.0000
  C   C129      1.0  0.74144  0.70383  0.05002  1.0000
  C   C130      1.0  0.35915  0.67502  0.03829  1.0000
  C   C131      1.0  0.4648  0.60791  0.9768700000000002  1.0000
  C   C132      1.0  0.3102800000000001  0.64116  0.00578  1.0000
  C   C133      1.0  0.6156  0.6504300000000001  0.01388  1.0000
  C   C134      1.0  0.5096  0.6432  0.00984  1.0000
  C   C135      1.0  0.22720000000000007  0.59391  0.92335  1.0000
  C   C136      1.0  0.31029  0.71365  0.07265  1.0000
  C   C137      1.0  0.36335  0.60604  0.9745400000000002  1.0000
  C   C138      1.0  0.583  0.71818  0.15875  1.0000
  C   C139      1.0  0.31404  0.5687100000000002  0.94034  1.0000
  C   C140      1.0  0.08985  0.47737  0.8219700000000002  1.0000
  C   C141      1.0  0.60502  0.7789700000000003  0.228  1.0000
  C   C142      1.0  0.3340100000000001  0.78042  0.13298  1.0000
  C   C143      1.0  0.5931  0.7172800000000001  0.20572  1.0000
  C   C144      1.0  0.17655  0.55725  0.8928400000000002  1.0000
  C   C145      1.0  0.21301  0.49425  0.87882  1.0000
  C   C146      1.0  0.35128  0.50661  0.92457  1.0000
  C   C147      1.0  0.81138  0.67186  0.02518  1.0000
  C   C148      1.0  0.30163  0.46928  0.89395  1.0000
  C   C149      1.0  0.7803300000000002  0.62703  0.99346  1.0000
  C   C150      1.0  0.68168  0.6157100000000001  0.9880200000000002  1.0000
  C   C151      1.0  0.17203000000000004  0.7593600000000001  0.10932000000000003  1.0000
  C   C152      1.0  0.20976000000000006  0.7209300000000001  0.07586  1.0000
  C   C153      1.0  0.5835700000000003  0.65529  0.228  1.0000
  C   C154      1.0  0.23465000000000005  0.78943  0.13861  1.0000
  C   C155      1.0  0.09379000000000003  0.3655  0.81641  1.0000
  C   C156      1.0  0.16128  0.38285  0.84623  1.0000
  C   C157      1.0  0.5146  0.9309600000000002  0.01029  1.0000
  C   C158      1.0  0.529  0.8567600000000001  0.020730000000000005  1.0000
  C   C159      1.0  0.52972  0.95356  0.96869  1.0000
  C   C160      1.0  0.4847  0.97762  0.04148  1.0000
  C   C161      1.0  0.24151000000000003  0.79617  0.9500300000000003  1.0000
  C   C162      1.0  0.85917  0.82495  0.9617100000000002  1.0000
  C   C163      1.0  0.96481  0.89208  0.02312  1.0000
  C   C164      1.0  0.8103300000000002  0.8588200000000001  0.99422  1.0000
  C   C165      1.0  0.11563  0.8496  0.98612  1.0000
  C   C166      1.0  0.00962  0.8567900000000003  0.99015  1.0000
  C   C167      1.0  0.72727  0.9060300000000001  0.07668  1.0000
  C   C168      1.0  0.81028  0.7863600000000002  0.9273500000000002  1.0000
  C   C169      1.0  0.86337  0.8939500000000001  0.025460000000000007  1.0000
  C   C170      1.0  0.08318  0.78177  0.84127  1.0000
  C   C171      1.0  0.81406  0.9312500000000001  0.059670000000000015  1.0000
  C   C172      1.0  0.58989  0.02264  0.17802  1.0000
  C   C173      1.0  0.10507  0.7209500000000001  0.77202  1.0000
  C   C174      1.0  0.8340700000000001  0.7195800000000001  0.8670400000000003  1.0000
  C   C175      1.0  0.09327  0.7826400000000002  0.7943100000000002  1.0000
  C   C176      1.0  0.6766  0.9427000000000001  0.10718  1.0000
  C   C177      1.0  0.71301  0.00572  0.12118  1.0000
  C   C178      1.0  0.85128  0.9933600000000001  0.07542  1.0000
  C   C179      1.0  0.3114200000000001  0.8281800000000001  0.9748600000000002  1.0000
  C   C180      1.0  0.80162  0.03069  0.10604  1.0000
  C   C181      1.0  0.28035  0.87301  0.00657  1.0000
  C   C182      1.0  0.1817  0.88433  0.01199  1.0000
  C   C183      1.0  0.67206  0.74066  0.8906600000000002  1.0000
  C   C184      1.0  0.70974  0.77908  0.92411  1.0000
  C   C185      1.0  0.08369000000000001  0.84464  0.77203  1.0000
  C   C186      1.0  0.7347200000000002  0.71057  0.86139  1.0000
  C   C187      1.0  0.5938400000000001  0.13449  0.18357  1.0000
  C   C188      1.0  0.6613  0.11713  0.15373  1.0000
  C   C189      1.0  0.014670000000000004  0.56886  0.9897000000000002  1.0000
  C   C190      1.0  0.02937  0.64307  0.97927  1.0000
  C   C191      1.0  0.02968  0.54623  0.0313  1.0000
  C   C192      1.0  0.98483  0.5222700000000001  0.9584600000000001  1.0000
  C   C193      1.0  0.25861  0.29617  0.55001  1.0000
  C   C194      1.0  0.6408800000000001  0.32496  0.53828  1.0000
  C   C195      1.0  0.53522  0.39207  0.4768600000000001  1.0000
  C   C196      1.0  0.68973  0.35884  0.50577  1.0000
  C   C197      1.0  0.38442  0.34957000000000005  0.51388  1.0000
  C   C198      1.0  0.49042000000000013  0.35679  0.50983  1.0000
  C   C199      1.0  0.7727800000000001  0.4060900000000001  0.4233300000000001  1.0000
  C   C200      1.0  0.68974  0.28635  0.5726400000000001  1.0000
  C   C201      1.0  0.6366700000000002  0.39398  0.47455  1.0000
  C   C202      1.0  0.41699000000000014  0.28178  0.6587300000000003  1.0000
  C   C203      1.0  0.68596  0.43129  0.44034  1.0000
  C   C204      1.0  0.91013  0.52264  0.32198  1.0000
  C   C205      1.0  0.39499  0.22101000000000004  0.72797  1.0000
  C   C206      1.0  0.6660400000000001  0.21961000000000006  0.63297  1.0000
  C   C207      1.0  0.40689  0.2827  0.70569  1.0000
  C   C208      1.0  0.8234400000000002  0.44277000000000005  0.39284  1.0000
  C   C209      1.0  0.7869700000000001  0.50576  0.37882  1.0000
  C   C210      1.0  0.6487000000000003  0.49338000000000004  0.42457  1.0000
  C   C211      1.0  0.18864  0.32816  0.52521  1.0000
  C   C212      1.0  0.69833  0.53072  0.39395  1.0000
  C   C213      1.0  0.21967  0.37295  0.49347  1.0000
  C   C214      1.0  0.31832  0.3842900000000001  0.48803  1.0000
  C   C215      1.0  0.8280000000000002  0.24064  0.6093000000000002  1.0000
  C   C216      1.0  0.79027  0.27906000000000003  0.57585  1.0000
  C   C217      1.0  0.4164200000000001  0.34471  0.72797  1.0000
  C   C218      1.0  0.76539  0.21060000000000004  0.6386  1.0000
  C   C219      1.0  0.90616  0.6345  0.31641  1.0000
  C   C220      1.0  0.83867  0.6171500000000001  0.34623  1.0000
  C   C221      1.0  0.48548  0.06889  0.51036  1.0000
  C   C222      1.0  0.4710400000000001  0.14313  0.52076  1.0000
  C   C223      1.0  0.47032  0.04629  0.46876  1.0000
  C   C224      1.0  0.51536  0.02219  0.54152  1.0000
  C   C225      1.0  0.75842  0.20387  0.45  1.0000
  C   C226      1.0  0.14077  0.17503  0.46166  1.0000
  C   C227      1.0  0.03513  0.10789000000000001  0.52308  1.0000
  C   C228      1.0  0.18964  0.14115000000000003  0.4941700000000001  1.0000
  C   C229      1.0  0.88431  0.15039  0.48607  1.0000
  C   C230      1.0  0.9903300000000003  0.14319  0.49012  1.0000
  C   C231      1.0  0.27266  0.09401  0.57663  1.0000
  C   C232      1.0  0.18965000000000004  0.21361  0.4273  1.0000
  C   C233      1.0  0.13657  0.10609000000000002  0.52542  1.0000
  C   C234      1.0  0.91625  0.21821  0.3413  1.0000
  C   C235      1.0  0.18588  0.06876  0.55962  1.0000
  C   C236      1.0  0.4101  0.9774100000000001  0.67797  1.0000
  C   C237      1.0  0.89488  0.27903  0.27208  1.0000
  C   C238      1.0  0.16588  0.28039  0.36699  1.0000
  C   C239      1.0  0.9066800000000002  0.21734  0.29435  1.0000
  C   C240      1.0  0.32335  0.05735  0.60713  1.0000
  C   C241      1.0  0.28687  0.99438  0.62118  1.0000
  C   C242      1.0  0.14865  0.00666  0.57539  1.0000
  C   C243      1.0  0.68852  0.17187000000000002  0.47483  1.0000
  C   C244      1.0  0.19831000000000001  0.96934  0.60601  1.0000
  C   C245      1.0  0.7196100000000002  0.12702000000000002  0.5065500000000002  1.0000
  C   C246      1.0  0.81827  0.11574  0.51199  1.0000
  C   C247      1.0  0.3279  0.25936  0.39064  1.0000
  C   C248      1.0  0.2902  0.22096  0.4241100000000001  1.0000
  C   C249      1.0  0.9162300000000001  0.15535  0.27206  1.0000
  C   C250      1.0  0.26524  0.28942000000000007  0.3613500000000001  1.0000
  C   C251      1.0  0.40606000000000003  0.86555  0.68356  1.0000
  C   C252      1.0  0.3386100000000001  0.8829100000000001  0.6537200000000002  1.0000
  C   C253      1.0  0.9852700000000002  0.43106000000000005  0.48974  1.0000
  C   C254      1.0  0.97054  0.35693  0.47922  1.0000
  C   C255      1.0  0.9703000000000003  0.45366000000000006  0.53136  1.0000
  C   C256      1.0  0.015170000000000003  0.47763  0.45851  1.0000
  C   C257      1.0  0.38523  0.93685  0.25  1.0000
  C   C258      1.0  0.31168  0.88006  0.25  1.0000
  C   C259      1.0  0.21241  0.89585  0.25  1.0000
  C   C260      1.0  0.17295  0.7745500000000001  0.25  1.0000
  C   C261      1.0  0.27208  0.75864  0.25  1.0000
  C   C262      1.0  0.09683  0.71935  0.25  1.0000
  C   C263      1.0  0.34086  0.81108  0.25  1.0000
  C   C264      1.0  0.14378  0.84354  0.25  1.0000
  C   C265      1.0  0.88526  0.56325  0.75  1.0000
  C   C266      1.0  0.8117500000000002  0.62003  0.7500100000000002  1.0000
  C   C267      1.0  0.7125  0.60419  0.75  1.0000
  C   C268      1.0  0.67299  0.72551  0.75  1.0000
  C   C269      1.0  0.77212  0.7414000000000001  0.75  1.0000
  C   C270      1.0  0.59679  0.7807  0.75  1.0000
  C   C271      1.0  0.84094  0.6889900000000001  0.75  1.0000
  C   C272      1.0  0.64389  0.65652  0.75  1.0000
  C   C273      1.0  0.61483  0.06314  0.75  1.0000
  C   C274      1.0  0.6883400000000001  0.11991  0.7500100000000002  1.0000
  C   C275      1.0  0.7876000000000002  0.10409000000000002  0.75  1.0000
  C   C276      1.0  0.82703  0.22543000000000002  0.7500100000000002  1.0000
  C   C277      1.0  0.72789  0.24129000000000003  0.75  1.0000
  C   C278      1.0  0.90316  0.28066  0.75  1.0000
  C   C279      1.0  0.6591100000000002  0.18886000000000003  0.75  1.0000
  C   C280      1.0  0.85618  0.15644  0.75  1.0000
  C   C281      1.0  0.1147  0.43667  0.25001  1.0000
  C   C282      1.0  0.18827  0.37993  0.24999000000000005  1.0000
  C   C283      1.0  0.28753  0.3957800000000001  0.25  1.0000
  C   C284      1.0  0.32702  0.27447  0.24999000000000005  1.0000
  C   C285      1.0  0.22792  0.25859000000000004  0.24999000000000005  1.0000
  C   C286      1.0  0.40311  0.21925  0.25001  1.0000
  C   C287      1.0  0.15907  0.31097  0.25  1.0000
  C   C288      1.0  0.35616  0.34346  0.25  1.0000
  N   N1        1.0  0.6289800000000001  0.2563  0.89916  1.0000
  N   N2        1.0  0.54284  0.32522000000000006  0.9596400000000002  1.0000
  N   N3        1.0  0.35408  0.30584  0.95547  1.0000
  N   N4        1.0  0.84163  0.54591  0.1502  1.0000
  N   N5        1.0  0.95024  0.57513  0.19849  1.0000
  N   N6        1.0  0.12889  0.24368000000000004  0.10085  1.0000
  N   N7        1.0  0.04277  0.17481000000000005  0.04038000000000001  1.0000
  N   N8        1.0  0.8539500000000001  0.19413  0.04452000000000001  1.0000
  N   N9        1.0  0.34164000000000005  0.95415  0.8498100000000002  1.0000
  N   N10       1.0  0.45018  0.9248800000000001  0.80149  1.0000
  N   N11       1.0  0.37106  0.74368  0.39912  1.0000
  N   N12       1.0  0.45718  0.6747500000000001  0.4596  1.0000
  N   N13       1.0  0.64596  0.6941100000000001  0.45542  1.0000
  N   N14       1.0  0.15836  0.45413  0.6502  1.0000
  N   N15       1.0  0.049760000000000006  0.42491000000000007  0.6985  1.0000
  N   N16       1.0  0.87106  0.7563  0.6008400000000003  1.0000
  N   N17       1.0  0.95721  0.82519  0.54037  1.0000
  N   N18       1.0  0.14603  0.80587  0.54452  1.0000
  N   N19       1.0  0.65836  0.045860000000000005  0.34982000000000013  1.0000
  N   N20       1.0  0.54978  0.07514  0.30153  1.0000
  N   N21       1.0  0.37104  0.7437  0.10085  1.0000
  N   N22       1.0  0.45717  0.6747500000000001  0.04038000000000001  1.0000
  N   N23       1.0  0.6459400000000001  0.6941200000000002  0.04456  1.0000
  N   N24       1.0  0.15833000000000003  0.4541  0.8498  1.0000
  N   N25       1.0  0.04972  0.42488  0.8015  1.0000
  N   N26       1.0  0.87107  0.75631  0.89916  1.0000
  N   N27       1.0  0.95721  0.8252000000000002  0.95962  1.0000
  N   N28       1.0  0.14602000000000004  0.8059  0.95546  1.0000
  N   N29       1.0  0.65835  0.04588  0.15018000000000006  1.0000
  N   N30       1.0  0.54977  0.07514  0.19849  1.0000
  N   N31       1.0  0.62899  0.25632  0.60085  1.0000
  N   N32       1.0  0.54285  0.3252300000000001  0.54037  1.0000
  N   N33       1.0  0.35410000000000014  0.30585  0.54454  1.0000
  N   N34       1.0  0.8416100000000002  0.5459  0.3497900000000001  1.0000
  N   N35       1.0  0.95024  0.57513  0.3015100000000001  1.0000
  N   N36       1.0  0.12886  0.24367000000000003  0.39911  1.0000
  N   N37       1.0  0.042740000000000014  0.17481000000000005  0.4596  1.0000
  N   N38       1.0  0.85392  0.19413  0.45544  1.0000
  N   N39       1.0  0.34155  0.9541800000000003  0.65017  1.0000
  N   N40       1.0  0.45015  0.92492  0.6984600000000002  1.0000
  O   O1        1.0  0.44743  0.1843  0.00798  1.0000
  O   O2        1.0  0.4186300000000001  0.22253000000000003  0.86009  1.0000
  O   O3        1.0  0.4282  0.33672  0.86222  1.0000
  O   O4        1.0  0.48546  0.1593  0.93992  1.0000
  O   O5        1.0  0.94634  0.3156900000000001  0.99216  1.0000
  O   O6        1.0  0.9186400000000002  0.27748  0.13996  1.0000
  O   O7        1.0  0.92568  0.16318  0.13777  1.0000
  O   O8        1.0  0.9854200000000002  0.34074  0.06009000000000001  1.0000
  O   O9        1.0  0.55252  0.81549  0.50787  1.0000
  O   O10       1.0  0.5814400000000002  0.7774500000000002  0.36011000000000004  1.0000
  O   O11       1.0  0.57174  0.6632600000000001  0.3622500000000001  1.0000
  O   O12       1.0  0.5145  0.8407  0.43984  1.0000
  O   O13       1.0  0.05322000000000001  0.68435  0.49209000000000014  1.0000
  O   O14       1.0  0.08145  0.7225200000000003  0.63991  1.0000
  O   O15       1.0  0.0721  0.8367400000000002  0.6377900000000002  1.0000
  O   O16       1.0  0.014630000000000002  0.6592600000000001  0.56006  1.0000
  O   O17       1.0  0.5525  0.81546  0.9920600000000003  1.0000
  O   O18       1.0  0.58143  0.7774500000000002  0.13995  1.0000
  O   O19       1.0  0.57176  0.6632600000000001  0.13778  1.0000
  O   O20       1.0  0.51452  0.8406800000000001  0.06011  1.0000
  O   O21       1.0  0.053420000000000016  0.68432  0.00788  1.0000
  O   O22       1.0  0.08146  0.72253  0.8601  1.0000
  O   O23       1.0  0.07195  0.83673  0.86221  1.0000
  O   O24       1.0  0.014600000000000002  0.6592600000000001  0.93993  1.0000
  O   O25       1.0  0.44748  0.18434  0.49204  1.0000
  O   O26       1.0  0.4186300000000001  0.22253000000000003  0.6399  1.0000
  O   O27       1.0  0.42822000000000005  0.33672  0.63778  1.0000
  O   O28       1.0  0.4855  0.15932  0.5601100000000002  1.0000
  O   O29       1.0  0.94631  0.3156900000000001  0.5078200000000003  1.0000
  O   O30       1.0  0.9186  0.27748  0.3601  1.0000
  O   O31       1.0  0.92629  0.16318  0.36226  1.0000
  O   O32       1.0  0.98544  0.34076  0.4398900000000001  1.0000
  O   O33       1.0  0.34917  0.9985900000000001  0.25  1.0000
  O   O34       1.0  0.47452  0.9240900000000001  0.25  1.0000
  O   O35       1.0  0.12981  0.6568700000000001  0.25  1.0000
  O   O36       1.0  0.00913  0.73585  0.25  1.0000
  O   O37       1.0  0.84906  0.50157  0.75  1.0000
  O   O38       1.0  0.9745700000000003  0.57594  0.75  1.0000
  O   O39       1.0  0.62978  0.8431600000000001  0.75  1.0000
  O   O40       1.0  0.50908  0.76422  0.75  1.0000
  O   O41       1.0  0.65095  0.00142  0.75  1.0000
  O   O42       1.0  0.52553  0.07589  0.75  1.0000
  O   O43       1.0  0.8701200000000001  0.34311  0.75  1.0000
  O   O44       1.0  0.9909000000000002  0.26421  0.75  1.0000
  O   O45       1.0  0.15085  0.49837  0.25  1.0000
  O   O46       1.0  0.0254  0.42397000000000007  0.25  1.0000
  O   O47       1.0  0.37012  0.15678  0.25  1.0000
  O   O48       1.0  0.4908  0.23577000000000004  0.25  1.0000
