data_image0
_chemical_formula_structural       Co8H208C224N56O32
_chemical_formula_sum              "Co8 H208 C224 N56 O32"
_cell_length_a       12.35369
_cell_length_b       13.279990000000002
_cell_length_c       37.00135000000001
_cell_angle_alpha    91.93315
_cell_angle_beta     89.87741
_cell_angle_gamma    89.91456

_symmetry_space_group_name_H-M    'P 1'
_symmetry_Int_Tables_number       1

loop_
  _symmetry_equiv_pos_as_xyz
  'x,y,z'

loop_
  _atom_site_type_symbol
  _atom_site_label
  _atom_site_symmetry_multiplicity
  _atom_site_fract_x
  _atom_site_fract_y
  _atom_site_fract_z
  _atom_site_occupancy
  Co  Co1       1.0  0.61657  0.90574  0.80671  1.0000
  Co  Co2       1.0  0.58779  0.2943299999999999  0.5817100000000001  1.0000
  Co  Co3       1.0  0.11467  0.59507  0.69504  1.0000
  Co  Co4       1.0  0.08482  0.20623999999999998  0.92016  1.0000
  Co  Co5       1.0  0.38271  0.09489  0.19598  1.0000
  Co  Co6       1.0  0.41707  0.70683  0.4199100000000001  1.0000
  Co  Co7       1.0  0.88447  0.4044799999999999  0.30573  1.0000
  Co  Co8       1.0  0.91781  0.7923999999999998  0.08143  1.0000
  H   H1        1.0  0.56562  0.4181999999999999  0.45587  1.0000
  H   H2        1.0  0.85149  0.23915999999999996  0.48017000000000004  1.0000
  H   H3        1.0  0.60232  0.40488  0.4031800000000001  1.0000
  H   H4        1.0  0.91827  0.28548  0.43221  1.0000
  H   H5        1.0  0.54403  0.5036  0.7346  1.0000
  H   H6        1.0  0.54413  0.4861399999999999  0.78145  1.0000
  H   H7        1.0  0.54587  0.65701  0.8074  1.0000
  H   H8        1.0  0.79745  0.7942700000000001  0.7505900000000002  1.0000
  H   H9        1.0  0.77726  0.59613  0.7244  1.0000
  H   H10       1.0  0.62438  0.50119  0.69155  1.0000
  H   H11       1.0  0.64463  0.3933699999999999  0.664  1.0000
  H   H12       1.0  0.75458  0.47399999999999987  0.67358  1.0000
  H   H13       1.0  0.84225  0.19214999999999993  0.67107  1.0000
  H   H14       1.0  0.7694000000000001  0.29445  0.6546300000000002  1.0000
  H   H15       1.0  0.92652  0.4305599999999999  0.71751  1.0000
  H   H16       1.0  0.13854  0.41349  0.62828  1.0000
  H   H17       1.0  0.98173  0.2641  0.61951  1.0000
  H   H18       1.0  0.8426100000000001  0.07677999999999999  0.74734  1.0000
  H   H19       1.0  0.95243  0.15853999999999996  0.75633  1.0000
  H   H20       1.0  0.91102  0.13450999999999996  0.71124  1.0000
  H   H21       1.0  0.72633  0.20374  0.82895  1.0000
  H   H22       1.0  0.7971900000000001  0.11878999999999999  0.8001  1.0000
  H   H23       1.0  0.8959099999999999  0.11636  0.8696  1.0000
  H   H24       1.0  0.1175  0.34644999999999987  0.8473700000000001  1.0000
  H   H25       1.0  0.95054  0.34963  0.79645  1.0000
  H   H26       1.0  0.7367500000000001  0.37004  0.8402400000000002  1.0000
  H   H27       1.0  0.59961  0.34419  0.8302400000000001  1.0000
  H   H28       1.0  0.6543899999999999  0.4657299999999999  0.8233900000000001  1.0000
  H   H29       1.0  0.37315  0.7806099999999998  0.67891  1.0000
  H   H30       1.0  0.48688  0.70382  0.68543  1.0000
  H   H31       1.0  0.47225  0.78351  0.75217  1.0000
  H   H32       1.0  0.63867  0.05293  0.73274  1.0000
  H   H33       1.0  0.57338  0.9640599999999999  0.6666800000000002  1.0000
  H   H34       1.0  0.3211  0.97213  0.6165100000000001  1.0000
  H   H35       1.0  0.32543  0.90589  0.6568000000000002  1.0000
  H   H36       1.0  0.25735  0.85292  0.61869  1.0000
  H   H37       1.0  0.40971  0.8882899999999998  0.52459  1.0000
  H   H38       1.0  0.30926  0.8931899999999998  0.55811  1.0000
  H   H39       1.0  0.57759  0.03866000000000001  0.5669600000000001  1.0000
  H   H40       1.0  0.33000999999999997  0.25633999999999996  0.56653  1.0000
  H   H41       1.0  0.23839  0.06596000000000002  0.5525900000000001  1.0000
  H   H42       1.0  0.55803  0.87984  0.5133600000000001  1.0000
  H   H43       1.0  0.61905  0.75933  0.51266  1.0000
  H   H44       1.0  0.68884  0.8649499999999998  0.5312400000000002  1.0000
  H   H45       1.0  0.72911  0.6987  0.54594  1.0000
  H   H46       1.0  0.79876  0.7291699999999998  0.58707  1.0000
  H   H47       1.0  0.56053  0.54326  0.58122  1.0000
  H   H48       1.0  0.83987  0.36971  0.59764  1.0000
  H   H49       1.0  0.90038  0.56965  0.5895200000000002  1.0000
  H   H50       1.0  0.64753  0.6150499999999998  0.65389  1.0000
  H   H51       1.0  0.66011  0.7288  0.6798800000000003  1.0000
  H   H52       1.0  0.7536  0.70104  0.64488  1.0000
  H   H53       1.0  0.06488  0.08447  0.046  1.0000
  H   H54       1.0  0.35287  0.25875  0.02058  1.0000
  H   H55       1.0  0.10185  0.09369  0.09813  1.0000
  H   H56       1.0  0.41685  0.21577  0.06947  1.0000
  H   H57       1.0  0.04519000000000001  0.99042  0.76967  1.0000
  H   H58       1.0  0.04063  0.009279999999999998  0.72294  1.0000
  H   H59       1.0  0.04705  0.8425099999999996  0.69374  1.0000
  H   H60       1.0  0.29698  0.6995899999999998  0.7496300000000001  1.0000
  H   H61       1.0  0.27346  0.89497  0.77842  1.0000
  H   H62       1.0  0.12562  0.99738  0.8122300000000002  1.0000
  H   H63       1.0  0.1517  0.10472000000000002  0.8392400000000002  1.0000
  H   H64       1.0  0.25834  0.02114000000000002  0.8285200000000003  1.0000
  H   H65       1.0  0.34624  0.30621  0.82845  1.0000
  H   H66       1.0  0.27177  0.20755  0.8467400000000002  1.0000
  H   H67       1.0  0.43582000000000004  0.0696  0.7839300000000001  1.0000
  H   H68       1.0  0.63382  0.08200999999999999  0.87654  1.0000
  H   H69       1.0  0.4754900000000001  0.23113999999999996  0.88371  1.0000
  H   H70       1.0  0.34401  0.4149799999999999  0.7522000000000001  1.0000
  H   H71       1.0  0.45301  0.33295999999999987  0.74185  1.0000
  H   H72       1.0  0.41713  0.3579  0.78746  1.0000
  H   H73       1.0  0.22701  0.28159  0.67133  1.0000
  H   H74       1.0  0.29385  0.37057  0.69945  1.0000
  H   H75       1.0  0.40425999999999995  0.38411  0.63531  1.0000
  H   H76       1.0  0.61544  0.14076  0.6506800000000001  1.0000
  H   H77       1.0  0.4459000000000001  0.13104999999999997  0.70066  1.0000
  H   H78       1.0  0.23117  0.11934999999999997  0.66153  1.0000
  H   H79       1.0  0.09467  0.14471999999999996  0.6729700000000001  1.0000
  H   H80       1.0  0.15162  0.023929999999999996  0.67979  1.0000
  H   H81       1.0  0.8629899999999999  0.7158899999999998  0.82363  1.0000
  H   H82       1.0  0.97686  0.7918899999999998  0.8166200000000001  1.0000
  H   H83       1.0  0.9805999999999999  0.72486  0.7511500000000002  1.0000
  H   H84       1.0  0.11686  0.43900999999999984  0.76723  1.0000
  H   H85       1.0  0.04276  0.52071  0.83357  1.0000
  H   H86       1.0  0.81197  0.52561  0.8863000000000001  1.0000
  H   H87       1.0  0.81368  0.59355  0.84635  1.0000
  H   H88       1.0  0.74852  0.64533  0.88532  1.0000
  H   H89       1.0  0.90304  0.6092  0.97798  1.0000
  H   H90       1.0  0.80211  0.6040199999999998  0.94478  1.0000
  H   H91       1.0  0.07167  0.46158  0.93545  1.0000
  H   H92       1.0  0.82827  0.24025  0.93674  1.0000
  H   H93       1.0  0.73327  0.4294099999999999  0.9502800000000001  1.0000
  H   H94       1.0  0.05065000000000001  0.62111  0.98906  1.0000
  H   H95       1.0  0.1146  0.73991  0.9885  1.0000
  H   H96       1.0  0.1813  0.6318099999999999  0.9704000000000003  1.0000
  H   H97       1.0  0.22354999999999997  0.79795  0.9545800000000001  1.0000
  H   H98       1.0  0.29146  0.76608  0.9132300000000002  1.0000
  H   H99       1.0  0.05493000000000001  0.95447  0.9174100000000001  1.0000
  H   H100      1.0  0.33718  0.12583  0.90515  1.0000
  H   H101      1.0  0.39503  0.9245499999999998  0.91284  1.0000
  H   H102      1.0  0.13656  0.8768399999999997  0.84529  1.0000
  H   H103      1.0  0.15355  0.75996  0.8214200000000003  1.0000
  H   H104      1.0  0.24499000000000004  0.79514  0.8561600000000001  1.0000
  H   H105      1.0  0.43735  0.59212  0.5462400000000001  1.0000
  H   H106      1.0  0.14638  0.76122  0.5199600000000002  1.0000
  H   H107      1.0  0.39799000000000007  0.59728  0.59767  1.0000
  H   H108      1.0  0.08345  0.72137  0.5693400000000002  1.0000
  H   H109      1.0  0.45484  0.48939  0.27005  1.0000
  H   H110      1.0  0.45895  0.50746  0.22326  1.0000
  H   H111      1.0  0.4510700000000001  0.34084  0.19435  1.0000
  H   H112      1.0  0.20144  0.20015999999999995  0.25126000000000004  1.0000
  H   H113      1.0  0.22603000000000004  0.3953399999999999  0.2797200000000001  1.0000
  H   H114      1.0  0.37284999999999996  0.49529  0.31255  1.0000
  H   H115      1.0  0.34961  0.60337  0.33956  1.0000
  H   H116      1.0  0.24116000000000004  0.5216999999999999  0.32948  1.0000
  H   H117      1.0  0.15248  0.8049699999999997  0.32943  1.0000
  H   H118      1.0  0.22649  0.70565  0.3474800000000001  1.0000
  H   H119      1.0  0.0652  0.56926  0.28392  1.0000
  H   H120      1.0  0.86452  0.57873  0.3761800000000001  1.0000
  H   H121      1.0  0.02129  0.72853  0.38405  1.0000
  H   H122      1.0  0.15724  0.91559  0.25395  1.0000
  H   H123      1.0  0.04868  0.83478  0.24239  1.0000
  H   H124      1.0  0.08162  0.8569699999999998  0.28835  1.0000
  H   H125      1.0  0.27586  0.78345  0.17246  1.0000
  H   H126      1.0  0.20771  0.8716999999999999  0.2007  1.0000
  H   H127      1.0  0.10456  0.88153  0.1339  1.0000
  H   H128      1.0  0.88424  0.6475399999999998  0.15225  1.0000
  H   H129      1.0  0.05144  0.63801  0.20284  1.0000
  H   H130      1.0  0.27  0.6199599999999998  0.16225  1.0000
  H   H131      1.0  0.40616  0.64638  0.17354  1.0000
  H   H132      1.0  0.35092  0.52496  0.18021000000000006  1.0000
  H   H133      1.0  0.63755  0.21238999999999994  0.32355  1.0000
  H   H134      1.0  0.52448  0.28983  0.31684  1.0000
  H   H135      1.0  0.5177  0.22254  0.25155  1.0000
  H   H136      1.0  0.3805  0.93776  0.26841000000000004  1.0000
  H   H137      1.0  0.45685  0.019039999999999994  0.33433  1.0000
  H   H138      1.0  0.6892500000000001  0.02486000000000001  0.3869700000000001  1.0000
  H   H139      1.0  0.68844  0.09261999999999997  0.3469800000000001  1.0000
  H   H140      1.0  0.75288  0.14429999999999998  0.38598000000000005  1.0000
  H   H141      1.0  0.59835  0.11003  0.47867  1.0000
  H   H142      1.0  0.6994099999999999  0.10436  0.44537  1.0000
  H   H143      1.0  0.42955999999999994  0.9632199999999997  0.43599000000000004  1.0000
  H   H144      1.0  0.6729099999999999  0.74105  0.43649  1.0000
  H   H145      1.0  0.76772  0.92949  0.45075  1.0000
  H   H146      1.0  0.45204  0.12581  0.4903600000000001  1.0000
  H   H147      1.0  0.38842999999999994  0.24473999999999999  0.48921000000000003  1.0000
  H   H148      1.0  0.32107  0.13615  0.47211  1.0000
  H   H149      1.0  0.27708  0.29945  0.45503000000000005  1.0000
  H   H150      1.0  0.20971  0.26680999999999994  0.4137800000000001  1.0000
  H   H151      1.0  0.44613  0.45473  0.41805  1.0000
  H   H152      1.0  0.16427  0.62637  0.40447  1.0000
  H   H153      1.0  0.10630000000000002  0.4252999999999999  0.41218  1.0000
  H   H154      1.0  0.36222  0.37527  0.3457700000000001  1.0000
  H   H155      1.0  0.34772  0.25829  0.3218400000000001  1.0000
  H   H156      1.0  0.25529  0.292  0.3565900000000001  1.0000
  H   H157      1.0  0.9386999999999999  0.9150499999999998  0.95581  1.0000
  H   H158      1.0  0.65161  0.73874  0.98054  1.0000
  H   H159      1.0  0.9014  0.9037  0.90317  1.0000
  H   H160      1.0  0.58632  0.7839899999999999  0.9328200000000001  1.0000
  H   H161      1.0  0.95372  0.003579999999999997  0.2323  1.0000
  H   H162      1.0  0.95488  0.9854599999999999  0.2791  1.0000
  H   H163      1.0  0.9539000000000001  0.15581999999999996  0.30537  1.0000
  H   H164      1.0  0.70105  0.29494  0.24988  1.0000
  H   H165      1.0  0.7199899999999999  0.09694999999999997  0.2234  1.0000
  H   H166      1.0  0.87378  0.0  0.18954  1.0000
  H   H167      1.0  0.84996  0.89348  0.16177  1.0000
  H   H168      1.0  0.74204  0.9757499999999998  0.17253000000000002  1.0000
  H   H169      1.0  0.65519  0.6918799999999998  0.16984000000000005  1.0000
  H   H170      1.0  0.72749  0.7938  0.15301  1.0000
  H   H171      1.0  0.57023  0.9279  0.21731  1.0000
  H   H172      1.0  0.35961000000000004  0.9165799999999997  0.12798000000000004  1.0000
  H   H173      1.0  0.5166  0.7672  0.11816000000000002  1.0000
  H   H174      1.0  0.6585600000000001  0.57618  0.24665000000000004  1.0000
  H   H175      1.0  0.54743  0.65739  0.25489  1.0000
  H   H176      1.0  0.59097  0.63175  0.21003000000000002  1.0000
  H   H177      1.0  0.77536  0.70326  0.3272400000000001  1.0000
  H   H178      1.0  0.70442  0.6181  0.29869  1.0000
  H   H179      1.0  0.61097  0.61907  0.36984  1.0000
  H   H180      1.0  0.3810200000000001  0.8413899999999997  0.34644  1.0000
  H   H181      1.0  0.54581  0.8444  0.29450000000000004  1.0000
  H   H182      1.0  0.7635000000000001  0.87033  0.33859  1.0000
  H   H183      1.0  0.90022  0.84276  0.3282  1.0000
  H   H184      1.0  0.8467500000000001  0.96494  0.32147  1.0000
  H   H185      1.0  0.13357  0.28366  0.17775  1.0000
  H   H186      1.0  0.02041  0.20658  0.18472  1.0000
  H   H187      1.0  0.02787  0.28219  0.25107  1.0000
  H   H188      1.0  0.8673800000000002  0.5554399999999999  0.23233000000000004  1.0000
  H   H189      1.0  0.9382  0.4698  0.16626  1.0000
  H   H190      1.0  0.18475  0.47231  0.11425000000000003  1.0000
  H   H191      1.0  0.18111  0.4072899999999999  0.15481000000000006  1.0000
  H   H192      1.0  0.24787  0.35272  0.11658  1.0000
  H   H193      1.0  0.09272  0.38764  0.02306  1.0000
  H   H194      1.0  0.19441  0.3915799999999999  0.056  1.0000
  H   H195      1.0  0.9274500000000001  0.53823  0.06626  1.0000
  H   H196      1.0  0.17516  0.75534  0.06427  1.0000
  H   H197      1.0  0.26588  0.5646799999999998  0.049980000000000004  1.0000
  H   H198      1.0  0.94573  0.37523  0.01202  1.0000
  H   H199      1.0  0.88196  0.25642  0.01284  1.0000
  H   H200      1.0  0.81517  0.36483  0.030750000000000006  1.0000
  H   H201      1.0  0.77325  0.19881  0.046870000000000016  1.0000
  H   H202      1.0  0.7055  0.23020999999999997  0.08832000000000001  1.0000
  H   H203      1.0  0.94415  0.04456  0.0843  1.0000
  H   H204      1.0  0.66414  0.86937  0.0959  1.0000
  H   H205      1.0  0.6035  0.06986  0.08832000000000001  1.0000
  H   H206      1.0  0.86084  0.12017  0.15586000000000005  1.0000
  H   H207      1.0  0.84406  0.23655  0.18  1.0000
  H   H208      1.0  0.7522700000000001  0.20208  0.14532  1.0000
  C   C1        1.0  0.47031  0.3928099999999999  0.5232000000000001  1.0000
  C   C2        1.0  0.78324  0.20107  0.55082  1.0000
  C   C3        1.0  0.66283  0.43854  0.33119000000000004  1.0000
  C   C4        1.0  0.003489999999999999  0.30258  0.36253000000000013  1.0000
  C   C5        1.0  0.57769  0.35612000000000005  0.50778  1.0000
  C   C6        1.0  0.61493  0.37209999999999993  0.47302  1.0000
  C   C7        1.0  0.7151799999999999  0.33137  0.46168  1.0000
  C   C8        1.0  0.77403  0.27453  0.4866300000000001  1.0000
  C   C9        1.0  0.7317700000000001  0.2611899999999999  0.52103  1.0000
  C   C10       1.0  0.72623  0.40074  0.3632200000000001  1.0000
  C   C11       1.0  0.6865699999999999  0.3864199999999999  0.39784  1.0000
  C   C12       1.0  0.75488  0.34665999999999997  0.4245400000000001  1.0000
  C   C13       1.0  0.861  0.31922999999999996  0.41387  1.0000
  C   C14       1.0  0.8951700000000001  0.3347799999999999  0.37866  1.0000
  C   C15       1.0  0.6732299999999999  0.4082599999999998  0.75287  1.0000
  C   C16       1.0  0.70991  0.38003  0.71784  1.0000
  C   C17       1.0  0.778  0.29473  0.71306  1.0000
  C   C18       1.0  0.8059899999999999  0.23614999999999997  0.74264  1.0000
  C   C19       1.0  0.76631  0.26394000000000006  0.7773900000000001  1.0000
  C   C20       1.0  0.70387  0.35191  0.78293  1.0000
  C   C21       1.0  0.59708  0.49703  0.75818  1.0000
  C   C22       1.0  0.61315  0.6678  0.7891100000000001  1.0000
  C   C23       1.0  0.74324  0.7351999999999997  0.75873  1.0000
  C   C24       1.0  0.7336999999999998  0.6374699999999998  0.7454900000000002  1.0000
  C   C25       1.0  0.68189  0.44046  0.68547  1.0000
  C   C26       1.0  0.8253  0.27239  0.6759500000000003  1.0000
  C   C27       1.0  0.96473  0.40646  0.69239  1.0000
  C   C28       1.0  0.07201  0.39449999999999996  0.64589  1.0000
  C   C29       1.0  0.9954500000000001  0.3199  0.6410900000000003  1.0000
  C   C30       1.0  0.8813  0.14683  0.7388900000000003  1.0000
  C   C31       1.0  0.79148  0.19836999999999994  0.8088500000000001  1.0000
  C   C32       1.0  0.9337200000000001  0.17964  0.8570100000000003  1.0000
  C   C33       1.0  0.046709999999999995  0.29906  0.84418  1.0000
  C   C34       1.0  0.96508  0.3017799999999999  0.81897  1.0000
  C   C35       1.0  0.67164  0.38488999999999984  0.82099  1.0000
  C   C36       1.0  0.49745  0.7915499999999999  0.6381  1.0000
  C   C37       1.0  0.43258  0.84587  0.6144600000000001  1.0000
  C   C38       1.0  0.46634  0.8541799999999999  0.57823  1.0000
  C   C39       1.0  0.5639  0.8099399999999999  0.56587  1.0000
  C   C40       1.0  0.62499  0.75082  0.58955  1.0000
  C   C41       1.0  0.59526  0.7461899999999999  0.62617  1.0000
  C   C42       1.0  0.4615  0.77794  0.6764800000000001  1.0000
  C   C43       1.0  0.50724  0.8461999999999997  0.73847  1.0000
  C   C44       1.0  0.59373  0.98425  0.7270900000000001  1.0000
  C   C45       1.0  0.56203  0.9420099999999999  0.69428  1.0000
  C   C46       1.0  0.32907  0.8966  0.62731  1.0000
  C   C47       1.0  0.3944  0.9105599999999998  0.5529  1.0000
  C   C48       1.0  0.4985200000000001  0.07307  0.5646600000000003  1.0000
  C   C49       1.0  0.36668  0.18224  0.56492  1.0000
  C   C50       1.0  0.32088  0.08937  0.55788  1.0000
  C   C51       1.0  0.60869  0.8294499999999998  0.5288400000000001  1.0000
  C   C52       1.0  0.72476  0.69565  0.57541  1.0000
  C   C53       1.0  0.64382  0.52235  0.58527  1.0000
  C   C54       1.0  0.79053  0.4356399999999999  0.5937400000000002  1.0000
  C   C55       1.0  0.8220600000000001  0.53365  0.58938  1.0000
  C   C56       1.0  0.66799  0.69523  0.65257  1.0000
  C   C57       1.0  0.97032  0.10880999999999998  0.9788100000000001  1.0000
  C   C58       1.0  0.28676  0.29255  0.9493800000000001  1.0000
  C   C59       1.0  0.16259  0.056650000000000006  0.16991  1.0000
  C   C60       1.0  0.50314  0.19317  0.13865  1.0000
  C   C61       1.0  0.07586  0.14818  0.9943400000000001  1.0000
  C   C62       1.0  0.11368  0.13112  0.028870000000000007  1.0000
  C   C63       1.0  0.21425  0.17088999999999996  0.04  1.0000
  C   C64       1.0  0.27393  0.22593999999999995  0.014660000000000001  1.0000
  C   C65       1.0  0.23135  0.23978  0.9803300000000001  1.0000
  C   C66       1.0  0.22452  0.09936999999999997  0.13834000000000005  1.0000
  C   C67       1.0  0.18537  0.11392  0.1037  1.0000
  C   C68       1.0  0.25353  0.15505  0.07715000000000001  1.0000
  C   C69       1.0  0.35937  0.18231  0.08785000000000001  1.0000
  C   C70       1.0  0.39318999999999993  0.16590999999999997  0.12301  1.0000
  C   C71       1.0  0.17317  0.08553  0.74987  1.0000
  C   C72       1.0  0.21207  0.11500000000000002  0.7844500000000002  1.0000
  C   C73       1.0  0.28095  0.19992999999999997  0.78816  1.0000
  C   C74       1.0  0.30839  0.25613  0.7579000000000002  1.0000
  C   C75       1.0  0.26706  0.22667999999999996  0.72359  1.0000
  C   C76       1.0  0.20306000000000002  0.13961  0.7191500000000002  1.0000
  C   C77       1.0  0.09587  0.9975599999999999  0.7454700000000002  1.0000
  C   C78       1.0  0.11331  0.82959  0.71218  1.0000
  C   C79       1.0  0.24279  0.7593599999999998  0.742  1.0000
  C   C80       1.0  0.23145  0.8554899999999998  0.75662  1.0000
  C   C81       1.0  0.18552000000000002  0.05641000000000001  0.8173900000000002  1.0000
  C   C82       1.0  0.32809  0.22581  0.8249700000000002  1.0000
  C   C83       1.0  0.47001999999999994  0.09247  0.8097700000000001  1.0000
  C   C84       1.0  0.57017  0.10203999999999998  0.85801  1.0000
  C   C85       1.0  0.49277  0.17631000000000002  0.8620500000000002  1.0000
  C   C86       1.0  0.38405  0.34516  0.7603200000000002  1.0000
  C   C87       1.0  0.29128  0.2902  0.69152  1.0000
  C   C88       1.0  0.43882000000000004  0.31630999999999987  0.64582  1.0000
  C   C89       1.0  0.54639  0.18987  0.65523  1.0000
  C   C90       1.0  0.463  0.18374  0.67979  1.0000
  C   C91       1.0  0.16802  0.10491999999999997  0.6816  1.0000
  C   C92       1.0  0.98862  0.7041399999999999  0.8638700000000001  1.0000
  C   C93       1.0  0.92394  0.6512199999999998  0.8879800000000001  1.0000
  C   C94       1.0  0.95874  0.64337  0.92409  1.0000
  C   C95       1.0  0.05659  0.68761  0.9359300000000002  1.0000
  C   C96       1.0  0.11752  0.74555  0.91174  1.0000
  C   C97       1.0  0.08715  0.7487299999999998  0.8752000000000001  1.0000
  C   C98       1.0  0.9514000000000001  0.71796  0.8256800000000002  1.0000
  C   C99       1.0  0.006769999999999999  0.6569499999999999  0.7638300000000002  1.0000
  C   C100      1.0  0.0765  0.50988  0.7735900000000001  1.0000
  C   C101      1.0  0.04057  0.54877  0.80649  1.0000
  C   C102      1.0  0.8194800000000001  0.6015599999999999  0.8758200000000002  1.0000
  C   C103      1.0  0.88748  0.5870299999999999  0.94971  1.0000
  C   C104      1.0  0.99352  0.42572  0.93795  1.0000
  C   C105      1.0  0.8638  0.31476  0.9381000000000002  1.0000
  C   C106      1.0  0.81627  0.40715  0.94497  1.0000
  C   C107      1.0  0.10201  0.6692099999999999  0.9729000000000001  1.0000
  C   C108      1.0  0.21798  0.8004299999999998  0.9251400000000001  1.0000
  C   C109      1.0  0.13878  0.9747399999999999  0.9145000000000001  1.0000
  C   C110      1.0  0.28708  0.060149999999999974  0.90819  1.0000
  C   C111      1.0  0.31725  0.96166  0.9123300000000002  1.0000
  C   C112      1.0  0.15957  0.7976299999999998  0.84813  1.0000
  C   C113      1.0  0.531  0.61226  0.47878  1.0000
  C   C114      1.0  0.21321  0.7926099999999998  0.4482300000000001  1.0000
  C   C115      1.0  0.33524000000000004  0.55705  0.66913  1.0000
  C   C116      1.0  0.99523  0.6955699999999999  0.63841  1.0000
  C   C117      1.0  0.42542  0.6525599999999999  0.4942  1.0000
  C   C118      1.0  0.38763  0.6370099999999997  0.52885  1.0000
  C   C119      1.0  0.28618  0.67575  0.5397400000000002  1.0000
  C   C120      1.0  0.22592  0.72924  0.51412  1.0000
  C   C121      1.0  0.26871  0.7421399999999998  0.47969  1.0000
  C   C122      1.0  0.27409  0.60081  0.63761  1.0000
  C   C123      1.0  0.31416  0.6171599999999999  0.60319  1.0000
  C   C124      1.0  0.24635  0.65937  0.57681  1.0000
  C   C125      1.0  0.14025  0.6865699999999998  0.58756  1.0000
  C   C126      1.0  0.10539999999999998  0.66835  0.62251  1.0000
  C   C127      1.0  0.3271  0.5851399999999999  0.25044  1.0000
  C   C128      1.0  0.28784  0.6143899999999998  0.28507  1.0000
  C   C129      1.0  0.21891  0.6994399999999997  0.2888900000000001  1.0000
  C   C130      1.0  0.19198  0.75617  0.25873  1.0000
  C   C131      1.0  0.23389  0.7271199999999998  0.22440000000000002  1.0000
  C   C132      1.0  0.2978  0.63979  0.21982000000000002  1.0000
  C   C133      1.0  0.40388  0.4965799999999999  0.24598000000000003  1.0000
  C   C134      1.0  0.38496  0.32859999999999995  0.21299000000000004  1.0000
  C   C135      1.0  0.25579  0.25941  0.24335  1.0000
  C   C136      1.0  0.26768  0.35559999999999997  0.25781000000000004  1.0000
  C   C137      1.0  0.31423  0.55552  0.31794  1.0000
  C   C138      1.0  0.17079999999999998  0.7246199999999998  0.32568  1.0000
  C   C139      1.0  0.03005  0.59147  0.30975  1.0000
  C   C140      1.0  0.92845  0.59951  0.35781000000000013  1.0000
  C   C141      1.0  0.005139999999999999  0.67404  0.36222000000000004  1.0000
  C   C142      1.0  0.11644  0.84552  0.26133  1.0000
  C   C143      1.0  0.21077  0.7915499999999999  0.19249  1.0000
  C   C144      1.0  0.06714  0.8163599999999998  0.14535  1.0000
  C   C145      1.0  0.95495  0.6946399999999998  0.15618  1.0000
  C   C146      1.0  0.03693  0.6888199999999999  0.18117  1.0000
  C   C147      1.0  0.33337000000000006  0.60578  0.18220000000000006  1.0000
  C   C148      1.0  0.51244  0.20296999999999996  0.3643  1.0000
  C   C149      1.0  0.57744  0.15093999999999994  0.38854  1.0000
  C   C150      1.0  0.54291  0.1444  0.4248000000000001  1.0000
  C   C151      1.0  0.4452  0.18936999999999998  0.43670000000000003  1.0000
  C   C152      1.0  0.38371999999999995  0.24598999999999993  0.41229000000000005  1.0000
  C   C153      1.0  0.41374  0.24779  0.3756500000000001  1.0000
  C   C154      1.0  0.54923  0.21565999999999994  0.32593  1.0000
  C   C155      1.0  0.49154000000000003  0.15489  0.26438  1.0000
  C   C156      1.0  0.42138999999999993  0.008390000000000005  0.27452000000000004  1.0000
  C   C157      1.0  0.45842999999999995  0.04711  0.3072400000000001  1.0000
  C   C158      1.0  0.68204  0.10079999999999997  0.37644  1.0000
  C   C159      1.0  0.61395  0.08786  0.45038  1.0000
  C   C160      1.0  0.50765  0.92699  0.43833000000000005  1.0000
  C   C161      1.0  0.63733  0.81562  0.43811  1.0000
  C   C162      1.0  0.68478  0.90767  0.44534000000000007  1.0000
  C   C163      1.0  0.40049  0.17321  0.47401  1.0000
  C   C164      1.0  0.28304  0.30129  0.42557  1.0000
  C   C165      1.0  0.36244  0.47515999999999997  0.41476  1.0000
  C   C166      1.0  0.21435  0.56068  0.4078  1.0000
  C   C167      1.0  0.18406  0.46230999999999994  0.41196  1.0000
  C   C168      1.0  0.34078  0.2957099999999999  0.34856  1.0000
  C   C169      1.0  0.03338  0.88903  0.02304000000000001  1.0000
  C   C170      1.0  0.71777  0.70329  0.05152000000000002  1.0000
  C   C171      1.0  0.83921  0.9389499999999997  0.83138  1.0000
  C   C172      1.0  0.49943  0.80327  0.86386  1.0000
  C   C173      1.0  0.92773  0.85047  0.00737  1.0000
  C   C174      1.0  0.8900400000000002  0.8680099999999997  0.9728600000000001  1.0000
  C   C175      1.0  0.7894300000000001  0.82844  0.9617100000000001  1.0000
  C   C176      1.0  0.73004  0.77225  0.9867500000000001  1.0000
  C   C177      1.0  0.7726  0.75792  0.02102  1.0000
  C   C178      1.0  0.77634  0.9016699999999997  0.8636800000000001  1.0000
  C   C179      1.0  0.8169800000000002  0.8859399999999997  0.8980500000000001  1.0000
  C   C180      1.0  0.74923  0.84551  0.92484  1.0000
  C   C181      1.0  0.64299  0.8186699999999999  0.9144800000000001  1.0000
  C   C182      1.0  0.60783  0.8357299999999998  0.8795500000000002  1.0000
  C   C183      1.0  0.82517  0.90809  0.2510400000000001  1.0000
  C   C184      1.0  0.78784  0.8799099999999997  0.21613  1.0000
  C   C185      1.0  0.72028  0.79437  0.21156000000000003  1.0000
  C   C186      1.0  0.69358  0.7354599999999999  0.24122  1.0000
  C   C187      1.0  0.73363  0.7634099999999999  0.27586  1.0000
  C   C188      1.0  0.79554  0.85158  0.28119  1.0000
  C   C189      1.0  0.9012700000000001  0.9967399999999997  0.25609  1.0000
  C   C190      1.0  0.8862700000000001  0.1672  0.28736  1.0000
  C   C191      1.0  0.75545  0.23559999999999998  0.25771  1.0000
  C   C192      1.0  0.7643  0.13789  0.24433  1.0000
  C   C193      1.0  0.81481  0.9405599999999998  0.18373000000000006  1.0000
  C   C194      1.0  0.67226  0.77207  0.17463  1.0000
  C   C195      1.0  0.53223  0.9052499999999998  0.19206000000000004  1.0000
  C   C196      1.0  0.42577  0.8963099999999998  0.14548  1.0000
  C   C197      1.0  0.50252  0.82187  0.14011000000000007  1.0000
  C   C198      1.0  0.61938  0.64552  0.23771000000000003  1.0000
  C   C199      1.0  0.70976  0.6976999999999998  0.30741  1.0000
  C   C200      1.0  0.57052  0.6802  0.3568  1.0000
  C   C201      1.0  0.45321  0.7955799999999998  0.34334  1.0000
  C   C202      1.0  0.53371  0.79811  0.3176100000000001  1.0000
  C   C203      1.0  0.82854  0.88434  0.31914  1.0000
  C   C204      1.0  0.008199999999999999  0.29375999999999997  0.13738000000000003  1.0000
  C   C205      1.0  0.07254  0.34685  0.11321  1.0000
  C   C206      1.0  0.03777  0.35413  0.07707  1.0000
  C   C207      1.0  0.9399899999999999  0.3095699999999999  0.06531  1.0000
  C   C208      1.0  0.87931  0.25179  0.0896  1.0000
  C   C209      1.0  0.90986  0.24869999999999995  0.12612000000000007  1.0000
  C   C210      1.0  0.04520999999999999  0.2807  0.17564  1.0000
  C   C211      1.0  0.99516  0.34629999999999994  0.23761000000000002  1.0000
  C   C212      1.0  0.91206  0.48649999999999993  0.22656  1.0000
  C   C213      1.0  0.9464  0.44579  0.19375  1.0000
  C   C214      1.0  0.17663  0.39719  0.12537  1.0000
  C   C215      1.0  0.10919  0.4096899999999999  0.05128000000000001  1.0000
  C   C216      1.0  0.006259999999999999  0.57268  0.0635  1.0000
  C   C217      1.0  0.13805  0.6815  0.0629  1.0000
  C   C218      1.0  0.18356  0.58837  0.055700000000000006  1.0000
  C   C219      1.0  0.89444  0.3273699999999999  0.0283  1.0000
  C   C220      1.0  0.7791200000000001  0.19635  0.07631  1.0000
  C   C221      1.0  0.86057  0.02307  0.08704000000000003  1.0000
  C   C222      1.0  0.71338  0.9357399999999998  0.09304000000000003  1.0000
  C   C223      1.0  0.6819  0.03392  0.08896  1.0000
  C   C224      1.0  0.83781  0.19942999999999994  0.15321  1.0000
  N   N1        1.0  0.8293500000000001  0.37749  0.35479  1.0000
  N   N2        1.0  0.63656  0.30287  0.5307400000000001  1.0000
  N   N3        1.0  0.65046  0.59517  0.76509  1.0000
  N   N4        1.0  0.66796  0.7533399999999999  0.7858500000000002  1.0000
  N   N5        1.0  0.9276199999999999  0.32831  0.6709800000000002  1.0000
  N   N6        1.0  0.0523  0.44797999999999993  0.67804  1.0000
  N   N7        1.0  0.89381  0.22573999999999997  0.8274800000000002  1.0000
  N   N8        1.0  0.02641  0.22229999999999994  0.86769  1.0000
  N   N9        1.0  0.5073  0.8544299999999998  0.70208  1.0000
  N   N10       1.0  0.55957  0.9231799999999998  0.7545600000000001  1.0000
  N   N11       1.0  0.40534999999999993  0.02056  0.55776  1.0000
  N   N12       1.0  0.47725  0.17106  0.56898  1.0000
  N   N13       1.0  0.7280199999999999  0.58802  0.5840700000000001  1.0000
  N   N14       1.0  0.67888  0.4293099999999999  0.59139  1.0000
  N   N15       1.0  0.32680999999999993  0.12427999999999997  0.147  1.0000
  N   N16       1.0  0.13392  0.20207  0.9712700000000001  1.0000
  N   N17       1.0  0.14857  0.8994399999999999  0.73748  1.0000
  N   N18       1.0  0.16902  0.74396  0.7143300000000001  1.0000
  N   N19       1.0  0.42945000000000005  0.16914999999999994  0.8311300000000003  1.0000
  N   N20       1.0  0.55551  0.05010000000000002  0.8252400000000002  1.0000
  N   N21       1.0  0.3953  0.2646  0.6734900000000001  1.0000
  N   N22       1.0  0.53042  0.27285  0.6342000000000001  1.0000
  N   N23       1.0  0.9966900000000001  0.6421699999999998  0.7996800000000001  1.0000
  N   N24       1.0  0.05522  0.5785  0.7470800000000002  1.0000
  N   N25       1.0  0.8994300000000001  0.47701  0.9448500000000001  1.0000
  N   N26       1.0  0.9742299999999999  0.32736  0.93391  1.0000
  N   N27       1.0  0.22210000000000002  0.90792  0.9162200000000001  1.0000
  N   N28       1.0  0.17529  0.06776000000000001  0.9093300000000001  1.0000
  N   N29       1.0  0.17125  0.6249  0.6461900000000002  1.0000
  N   N30       1.0  0.36669000000000007  0.70472  0.47086  1.0000
  N   N31       1.0  0.35036  0.39887  0.23831  1.0000
  N   N32       1.0  0.32901  0.24333  0.21544000000000002  1.0000
  N   N33       1.0  0.06939  0.66785  0.33140000000000003  1.0000
  N   N34       1.0  0.94445  0.54842  0.32492  1.0000
  N   N35       1.0  0.10760999999999998  0.7665199999999999  0.17397000000000007  1.0000
  N   N36       1.0  0.97461  0.77461  0.13402  1.0000
  N   N37       1.0  0.50255  0.14019  0.3001900000000001  1.0000
  N   N38       1.0  0.44227  0.07675999999999997  0.24786000000000002  1.0000
  N   N39       1.0  0.60168  0.9778499999999999  0.44545  1.0000
  N   N40       1.0  0.52697  0.8286399999999999  0.4339  1.0000
  N   N41       1.0  0.27909  0.4085099999999999  0.41629000000000005  1.0000
  N   N42       1.0  0.32609  0.56815  0.40932000000000013  1.0000
  N   N43       1.0  0.6728599999999999  0.8793599999999998  0.85563  1.0000
  N   N44       1.0  0.86953  0.79626  0.03029  1.0000
  N   N45       1.0  0.84802  0.09495999999999999  0.26344  1.0000
  N   N46       1.0  0.83167  0.25311  0.28447  1.0000
  N   N47       1.0  0.56984  0.8283599999999998  0.17006000000000002  1.0000
  N   N48       1.0  0.44483  0.94783  0.17804  1.0000
  N   N49       1.0  0.60779  0.7247299999999999  0.3265400000000001  1.0000
  N   N50       1.0  0.47691  0.7214599999999998  0.36755  1.0000
  N   N51       1.0  0.99896  0.35686  0.20135000000000006  1.0000
  N   N52       1.0  0.94255  0.4231499999999999  0.25381  1.0000
  N   N53       1.0  0.09911000000000002  0.51989  0.05613  1.0000
  N   N54       1.0  0.02758  0.6706899999999999  0.06758000000000002  1.0000
  N   N55       1.0  0.77631  0.08885  0.08524  1.0000
  N   N56       1.0  0.82531  0.92955  0.09209000000000002  1.0000
  O   O1        1.0  0.46059999999999995  0.3841999999999999  0.55796  1.0000
  O   O2        1.0  0.40034  0.42406  0.5020200000000001  1.0000
  O   O3        1.0  0.72394  0.19742  0.58007  1.0000
  O   O4        1.0  0.87341  0.16151000000000001  0.5456100000000003  1.0000
  O   O5        1.0  0.7192700000000001  0.44472  0.30172  1.0000
  O   O6        1.0  0.56446  0.4590399999999999  0.33457  1.0000
  O   O7        1.0  0.01565  0.3234899999999999  0.32879  1.0000
  O   O8        1.0  0.06901  0.25708  0.3817800000000001  1.0000
  O   O9        1.0  0.96526  0.11000000000000003  0.9437100000000002  1.0000
  O   O10       1.0  0.89823  0.08079  0.9998600000000001  1.0000
  O   O11       1.0  0.23235  0.28712  0.91911  1.0000
  O   O12       1.0  0.37626  0.3331899999999999  0.9544100000000001  1.0000
  O   O13       1.0  0.22206  0.03988  0.19799  1.0000
  O   O14       1.0  0.06315  0.04075  0.16726000000000005  1.0000
  O   O15       1.0  0.51909  0.16161  0.17097  1.0000
  O   O16       1.0  0.56665  0.24338999999999997  0.12016000000000002  1.0000
  O   O17       1.0  0.53511  0.61069  0.44364  1.0000
  O   O18       1.0  0.60375  0.5860099999999999  0.49984000000000006  1.0000
  O   O19       1.0  0.26943  0.7873999999999998  0.4182300000000001  1.0000
  O   O20       1.0  0.12204  0.8310399999999999  0.45261000000000007  1.0000
  O   O21       1.0  0.27458  0.53923  0.69685  1.0000
  O   O22       1.0  0.43484  0.54116  0.6669500000000003  1.0000
  O   O23       1.0  0.97855  0.6619499999999998  0.67045  1.0000
  O   O24       1.0  0.93204  0.74759  0.6204100000000002  1.0000
  O   O25       1.0  0.03736  0.8892499999999998  0.05816000000000001  1.0000
  O   O26       1.0  0.10666  0.9146099999999999  0.00199  1.0000
  O   O27       1.0  0.7717799999999999  0.70774  0.08187000000000003  1.0000
  O   O28       1.0  0.62891  0.66181  0.045870000000000015  1.0000
  O   O29       1.0  0.7827  0.94476  0.80198  1.0000
  O   O30       1.0  0.93761  0.95917  0.83449  1.0000
  O   O31       1.0  0.48665  0.8240699999999997  0.8301500000000003  1.0000
  O   O32       1.0  0.43467999999999996  0.75741  0.8833600000000001  1.0000
