data_image0
_chemical_formula_structural       Zn16Cu6H120C252N12O88
_chemical_formula_sum              "Zn16 Cu6 H120 C252 N12 O88"
_cell_length_a       29.53224
_cell_length_b       29.53184
_cell_length_c       29.53181
_cell_angle_alpha    109.49017
_cell_angle_beta     109.49228
_cell_angle_gamma    109.49225

_space_group_name_H-M_alt    "P 1"
_space_group_IT_number       1

loop_
  _space_group_symop_operation_xyz
  'x, y, z'

loop_
  _atom_site_type_symbol
  _atom_site_label
  _atom_site_symmetry_multiplicity
  _atom_site_fract_x
  _atom_site_fract_y
  _atom_site_fract_z
  _atom_site_occupancy
  Zn  Zn1       1.0  0.49333999999999995  0.9234300000000002  0.96623  1.0000
  Zn  Zn2       1.0  0.50664  0.4728900000000001  0.43008  1.0000
  Zn  Zn3       1.0  0.04281999999999997  0.07664000000000001  0.56992  1.0000
  Zn  Zn4       1.0  0.95714  0.5269800000000001  0.03369  1.0000
  Zn  Zn5       1.0  0.52698  0.0337  0.95714  1.0000
  Zn  Zn6       1.0  0.07664  0.5699200000000001  0.04283  1.0000
  Zn  Zn7       1.0  0.4728799999999999  0.4300700000000001  0.50664  1.0000
  Zn  Zn8       1.0  0.9234199999999999  0.9662300000000003  0.49335  1.0000
  Zn  Zn9       1.0  0.5699199999999998  0.042830000000000014  0.07664  1.0000
  Zn  Zn10      1.0  0.03369000000000006  0.9571400000000002  0.52698  1.0000
  Zn  Zn11      1.0  0.9662299999999998  0.4933500000000001  0.92342  1.0000
  Zn  Zn12      1.0  0.43007999999999996  0.50664  0.47289  1.0000
  Zn  Zn13      1.0  0.4407199999999999  2.9999999999997046e-05  0.99999  1.0000
  Zn  Zn14      1.0  0.5593199999999998  0.55932  0.55932  1.0000
  Zn  Zn15      1.0  3.000000000007156e-05  0.9999800000000002  0.44072  1.0000
  Zn  Zn16      1.0  0.99998  0.44072  3e-05  1.0000
  Cu  Cu1       1.0  0.9641999999999997  0.4642100000000001  0.49992  1.0000
  Cu  Cu2       1.0  0.03581000000000008  0.5358200000000001  0.5001  1.0000
  Cu  Cu3       1.0  0.4641999999999999  0.49992  0.96421  1.0000
  Cu  Cu4       1.0  0.5358099999999998  0.5001  0.03582  1.0000
  Cu  Cu5       1.0  0.5001  0.035819999999999984  0.53582  1.0000
  Cu  Cu6       1.0  0.49990999999999997  0.9642000000000002  0.4642  1.0000
  H   H1        1.0  0.36071  0.7742200000000002  0.91246  1.0000
  H   H2        1.0  0.27067  0.6860900000000002  0.86787  1.0000
  H   H3        1.0  0.18744000000000005  0.7802100000000001  0.884  1.0000
  H   H4        1.0  0.2778799999999999  0.86843  0.9296  1.0000
  H   H5        1.0  0.2046699999999999  0.70608  0.77638  1.0000
  H   H6        1.0  0.15299999999999994  0.65217  0.6731  1.0000
  H   H7        1.0  0.024769999999999938  0.53092  0.6759999999999999  1.0000
  H   H8        1.0  0.21724999999999992  0.7169799999999998  0.9537199999999999  1.0000
  H   H9        1.0  0.17395000000000002  0.67396  0.99901  1.0000
  H   H10       1.0  0.03301  0.5449  0.83815  1.0000
  H   H11       1.0  0.6392199999999998  0.55169  0.41341  1.0000
  H   H12       1.0  0.7291799999999998  0.5970900000000001  0.41535999999999995  1.0000
  H   H13       1.0  0.8126699999999998  0.69664  0.5929  1.0000
  H   H14       1.0  0.72229  0.6518400000000002  0.59062  1.0000
  H   H15       1.0  0.79538  0.57159  0.5014  1.0000
  H   H16       1.0  0.8469899999999999  0.5200300000000002  0.49917  1.0000
  H   H17       1.0  0.9751099999999999  0.6513100000000002  0.50614  1.0000
  H   H18       1.0  0.7828200000000001  0.7364000000000003  0.49973  1.0000
  H   H19       1.0  0.8261399999999998  0.8250500000000002  0.50001  1.0000
  H   H20       1.0  0.9668999999999998  0.8051700000000002  0.51188  1.0000
  H   H21       1.0  0.13832999999999993  0.22593  0.58656  1.0000
  H   H22       1.0  0.18182  0.3139900000000001  0.5847  1.0000
  H   H23       1.0  0.10371000000000004  0.21968000000000004  0.40719  1.0000
  H   H24       1.0  0.061140000000000014  0.13154000000000005  0.40937  1.0000
  H   H25       1.0  0.07021000000000001  0.2940000000000001  0.4986099999999999  1.0000
  H   H26       1.0  0.02086999999999999  0.34783000000000003  0.50083  1.0000
  H   H27       1.0  0.14514999999999997  0.46897000000000005  0.49384999999999996  1.0000
  H   H28       1.0  0.23668999999999998  0.28311  0.50028  1.0000
  H   H29       1.0  0.32504000000000005  0.32615000000000005  0.49998  1.0000
  H   H30       1.0  0.29328  0.45502  0.48812  1.0000
  H   H31       1.0  0.8617199999999999  0.4482200000000001  0.08756000000000001  1.0000
  H   H32       1.0  0.8182699999999999  0.4028600000000001  0.13211  1.0000
  H   H33       1.0  0.8962499999999998  0.3034600000000001  0.11598999999999998  1.0000
  H   H34       1.0  0.9387799999999997  0.34823  0.07044  1.0000
  H   H35       1.0  0.9298499999999998  0.4284600000000001  0.22385  1.0000
  H   H36       1.0  0.97928  0.48013  0.32716  1.0000
  H   H37       1.0  0.8549  0.3487600000000001  0.32382  1.0000
  H   H38       1.0  0.76322  0.2635  0.04632  1.0000
  H   H39       1.0  0.6747499999999998  0.17474000000000006  0.00091  1.0000
  H   H40       1.0  0.7067299999999999  0.19485000000000002  0.1617  1.0000
  H   H41       1.0  0.44822  0.08757000000000006  0.8617199999999999  1.0000
  H   H42       1.0  0.4028599999999999  0.13212  0.8182699999999999  1.0000
  H   H43       1.0  0.30346999999999985  0.11598999999999994  0.8962499999999999  1.0000
  H   H44       1.0  0.34822999999999993  0.07043999999999996  0.9387899999999999  1.0000
  H   H45       1.0  0.4284599999999999  0.22385999999999998  0.92985  1.0000
  H   H46       1.0  0.4801199999999999  0.32717  0.97929  1.0000
  H   H47       1.0  0.34876  0.3238200000000001  0.8549  1.0000
  H   H48       1.0  0.2635  0.04633000000000003  0.76322  1.0000
  H   H49       1.0  0.17474000000000003  0.0009100000000000381  0.6747600000000001  1.0000
  H   H50       1.0  0.19484999999999986  0.1617  0.7067299999999999  1.0000
  H   H51       1.0  0.22593  0.5865600000000001  0.13834  1.0000
  H   H52       1.0  0.3139899999999999  0.5847  0.18182  1.0000
  H   H53       1.0  0.21966999999999998  0.40718  0.10371  1.0000
  H   H54       1.0  0.13153  0.40937  0.06113999999999999  1.0000
  H   H55       1.0  0.2939999999999999  0.4986100000000001  0.07021  1.0000
  H   H56       1.0  0.34783  0.50083  0.02087  1.0000
  H   H57       1.0  0.46895999999999993  0.4938500000000001  0.14516  1.0000
  H   H58       1.0  0.28311000000000003  0.5002800000000001  0.23669  1.0000
  H   H59       1.0  0.32615000000000005  0.49998000000000004  0.32505  1.0000
  H   H60       1.0  0.4550200000000001  0.4881200000000001  0.29328  1.0000
  H   H61       1.0  0.5516899999999998  0.41341  0.63922  1.0000
  H   H62       1.0  0.5970899999999998  0.41536  0.72919  1.0000
  H   H63       1.0  0.6966299999999999  0.5929000000000001  0.81267  1.0000
  H   H64       1.0  0.6518299999999999  0.59062  0.72229  1.0000
  H   H65       1.0  0.5715899999999998  0.5014  0.79539  1.0000
  H   H66       1.0  0.52003  0.49917000000000006  0.84699  1.0000
  H   H67       1.0  0.65131  0.50615  0.97512  1.0000
  H   H68       1.0  0.7364  0.49974000000000013  0.78282  1.0000
  H   H69       1.0  0.8250399999999998  0.50001  0.82614  1.0000
  H   H70       1.0  0.8051699999999998  0.51188  0.9669099999999998  1.0000
  H   H71       1.0  0.7742100000000001  0.9124600000000003  0.36071  1.0000
  H   H72       1.0  0.6860900000000001  0.8678700000000003  0.27068  1.0000
  H   H73       1.0  0.7802  0.8840000000000002  0.18744  1.0000
  H   H74       1.0  0.86843  0.9296000000000001  0.27789  1.0000
  H   H75       1.0  0.70607  0.7763800000000002  0.20468  1.0000
  H   H76       1.0  0.6521699999999999  0.6731000000000003  0.153  1.0000
  H   H77       1.0  0.5309099999999998  0.676  0.02478  1.0000
  H   H78       1.0  0.7169699999999998  0.95372  0.21725999999999998  1.0000
  H   H79       1.0  0.6739499999999999  0.99901  0.17395  1.0000
  H   H80       1.0  0.5449  0.83815  0.03301  1.0000
  H   H81       1.0  0.58656  0.13834000000000005  0.22594  1.0000
  H   H82       1.0  0.5847000000000002  0.18182000000000006  0.31399  1.0000
  H   H83       1.0  0.4071799999999999  0.10370999999999998  0.21966999999999998  1.0000
  H   H84       1.0  0.40936999999999996  0.061140000000000014  0.13154  1.0000
  H   H85       1.0  0.4986099999999999  0.07022  0.294  1.0000
  H   H86       1.0  0.5008299999999999  0.020879999999999985  0.34783  1.0000
  H   H87       1.0  0.4938499999999999  0.14515  0.46896  1.0000
  H   H88       1.0  0.50027  0.23670000000000005  0.28311  1.0000
  H   H89       1.0  0.4999799999999999  0.3250500000000001  0.32615  1.0000
  H   H90       1.0  0.4881199999999999  0.29327  0.45502  1.0000
  H   H91       1.0  0.08757000000000005  0.8617200000000002  0.44822  1.0000
  H   H92       1.0  0.13210999999999998  0.8182600000000001  0.40287  1.0000
  H   H93       1.0  0.11597999999999997  0.89625  0.30346  1.0000
  H   H94       1.0  0.07044  0.93879  0.34823  1.0000
  H   H95       1.0  0.22385000000000002  0.9298500000000002  0.42846  1.0000
  H   H96       1.0  0.32715999999999995  0.97929  0.48013  1.0000
  H   H97       1.0  0.32381  0.8549000000000002  0.34876999999999997  1.0000
  H   H98       1.0  0.04631000000000004  0.76321  0.26349  1.0000
  H   H99       1.0  0.0009099999999999952  0.67475  0.17474  1.0000
  H   H100      1.0  0.16170000000000007  0.7067400000000003  0.19486  1.0000
  H   H101      1.0  0.9124500000000001  0.36071000000000003  0.7742099999999998  1.0000
  H   H102      1.0  0.8678699999999998  0.27068  0.68609  1.0000
  H   H103      1.0  0.884  0.18745000000000012  0.78021  1.0000
  H   H104      1.0  0.9295899999999998  0.27788000000000007  0.86843  1.0000
  H   H105      1.0  0.77639  0.20467999999999995  0.70608  1.0000
  H   H106      1.0  0.6731  0.15299999999999997  0.65217  1.0000
  H   H107      1.0  0.6759999999999998  0.024779999999999986  0.53092  1.0000
  H   H108      1.0  0.95373  0.21726000000000018  0.7169800000000001  1.0000
  H   H109      1.0  0.99901  0.1739500000000001  0.67396  1.0000
  H   H110      1.0  0.8381399999999998  0.03302  0.5449  1.0000
  H   H111      1.0  0.41339999999999993  0.6392200000000001  0.55169  1.0000
  H   H112      1.0  0.4153599999999999  0.72918  0.59709  1.0000
  H   H113      1.0  0.5928999999999999  0.8126700000000001  0.6966399999999999  1.0000
  H   H114      1.0  0.5906099999999997  0.7223000000000003  0.65184  1.0000
  H   H115      1.0  0.50139  0.7953900000000003  0.5716  1.0000
  H   H116      1.0  0.49915999999999994  0.8469900000000001  0.52004  1.0000
  H   H117      1.0  0.5061399999999999  0.9751100000000001  0.6513  1.0000
  H   H118      1.0  0.49972999999999984  0.7828199999999998  0.7364099999999999  1.0000
  H   H119      1.0  0.5000100000000001  0.8261500000000003  0.82506  1.0000
  H   H120      1.0  0.5118699999999999  0.9669  0.80516  1.0000
  C   C1        1.0  0.37750999999999985  0.8777600000000001  0.94646  1.0000
  C   C2        1.0  0.32424  0.8261700000000002  0.9230799999999999  1.0000
  C   C3        1.0  0.32261  0.7749400000000002  0.90636  1.0000
  C   C4        1.0  0.27276000000000017  0.7261700000000002  0.88173  1.0000
  C   C5        1.0  0.2241899999999998  0.7284599999999999  0.8731799999999998  1.0000
  C   C6        1.0  0.22570999999999994  0.7795000000000001  0.8909999999999999  1.0000
  C   C7        1.0  0.27577999999999997  0.82835  0.9161399999999998  1.0000
  C   C8        1.0  0.14423000000000005  0.6490300000000001  0.78464  1.0000
  C   C9        1.0  0.16543999999999998  0.6677  0.7543099999999999  1.0000
  C   C10       1.0  0.1365  0.6375100000000002  0.69642  1.0000
  C   C11       1.0  0.08591000000000007  0.5879000000000002  0.66756  1.0000
  C   C12       1.0  0.06415999999999991  0.56909  0.6975399999999999  1.0000
  C   C13       1.0  0.09279999999999997  0.59953  0.7549  1.0000
  C   C14       1.0  0.09769999999999998  0.60607  0.83896  1.0000
  C   C15       1.0  0.14975000000000005  0.6552900000000003  0.87071  1.0000
  C   C16       1.0  0.17700999999999986  0.6792599999999999  0.9287499999999999  1.0000
  C   C17       1.0  0.15279000000000006  0.6552000000000002  0.95412  1.0000
  C   C18       1.0  0.10055999999999994  0.607  0.9220099999999999  1.0000
  C   C19       1.0  0.07336999999999999  0.5824700000000002  0.8638799999999999  1.0000
  C   C20       1.0  0.05489000000000006  0.5554800000000002  0.60602  1.0000
  C   C21       1.0  0.07253999999999995  0.5809700000000002  0.94714  1.0000
  C   C22       1.0  0.6225099999999999  0.56897  0.50022  1.0000
  C   C23       1.0  0.6757799999999999  0.5988400000000001  0.50192  1.0000
  C   C24       1.0  0.6773499999999998  0.5837100000000002  0.45229  1.0000
  C   C25       1.0  0.7272  0.6088800000000002  0.45341  1.0000
  C   C26       1.0  0.7758400000000001  0.6489300000000001  0.50432  1.0000
  C   C27       1.0  0.7743800000000002  0.6653000000000002  0.55387  1.0000
  C   C28       1.0  0.7243099999999996  0.64041  0.5526  1.0000
  C   C29       1.0  0.8557499999999998  0.6403700000000002  0.50481  1.0000
  C   C30       1.0  0.83459  0.5888  0.50226  1.0000
  C   C31       1.0  0.8634899999999998  0.55986  0.501  1.0000
  C   C32       1.0  0.9140599999999995  0.58163  0.50199  1.0000
  C   C33       1.0  0.9357600000000001  0.6333900000000001  0.50493  1.0000
  C   C34       1.0  0.90714  0.66209  0.50673  1.0000
  C   C35       1.0  0.90226  0.74124  0.50837  1.0000
  C   C36       1.0  0.8502499999999997  0.72091  0.50556  1.0000
  C   C37       1.0  0.82303  0.7516900000000001  0.50225  1.0000
  C   C38       1.0  0.8472399999999998  0.8012800000000001  0.50241  1.0000
  C   C39       1.0  0.89943  0.8214300000000001  0.50643  1.0000
  C   C40       1.0  0.9265699999999999  0.7904900000000002  0.50909  1.0000
  C   C41       1.0  0.9450599999999998  0.5511200000000003  0.50059  1.0000
  C   C42       1.0  0.9274499999999998  0.8745900000000001  0.50841  1.0000
  C   C43       1.0  0.06874  0.12228000000000003  0.49976  1.0000
  C   C44       1.0  0.09689999999999996  0.17385999999999993  0.49806999999999996  1.0000
  C   C45       1.0  0.13143999999999995  0.22514  0.5477  1.0000
  C   C46       1.0  0.15553999999999996  0.2739  0.54665  1.0000
  C   C47       1.0  0.14463999999999996  0.27156  0.49574999999999997  1.0000
  C   C48       1.0  0.11141999999999999  0.22047000000000005  0.4462  1.0000
  C   C49       1.0  0.08775999999999995  0.17162999999999998  0.44739999999999996  1.0000
  C   C50       1.0  0.13557000000000008  0.3509600000000001  0.49523  1.0000
  C   C51       1.0  0.08655000000000003  0.3323400000000001  0.49775  1.0000
  C   C52       1.0  0.05885999999999998  0.36249  0.49899  1.0000
  C   C53       1.0  0.07964000000000006  0.4120700000000001  0.498  1.0000
  C   C54       1.0  0.12844999999999998  0.4308300000000001  0.49506999999999995  1.0000
  C   C55       1.0  0.15536  0.40042  0.49328  1.0000
  C   C56       1.0  0.23287  0.3939000000000001  0.49163999999999997  1.0000
  C   C57       1.0  0.21536999999999995  0.34471  0.49446999999999997  1.0000
  C   C58       1.0  0.24944999999999998  0.3207999999999999  0.4977599999999999  1.0000
  C   C59       1.0  0.29888  0.34485  0.49759  1.0000
  C   C60       1.0  0.3149899999999999  0.39301  0.49357  1.0000
  C   C61       1.0  0.2813899999999998  0.41748000000000013  0.4909  1.0000
  C   C62       1.0  0.05053000000000001  0.44447000000000003  0.49940999999999997  1.0000
  C   C63       1.0  0.3661599999999998  0.41903  0.49155999999999994  1.0000
  C   C64       1.0  0.9312399999999997  0.43101000000000006  0.05355  1.0000
  C   C65       1.0  0.9030899999999997  0.4011600000000001  0.07695  1.0000
  C   C66       1.0  0.8685899999999998  0.4162400000000001  0.09367  1.0000
  C   C67       1.0  0.8445099999999998  0.39108000000000004  0.11832  1.0000
  C   C68       1.0  0.8553600000000001  0.35108  0.1269  1.0000
  C   C69       1.0  0.88855  0.3347600000000001  0.10905999999999998  1.0000
  C   C70       1.0  0.9121999999999999  0.35964000000000007  0.0839  1.0000
  C   C71       1.0  0.8644799999999998  0.35968  0.21541  1.0000
  C   C72       1.0  0.9135299999999996  0.4112800000000001  0.24586  1.0000
  C   C73       1.0  0.9412600000000001  0.4402700000000001  0.30376  1.0000
  C   C74       1.0  0.9204599999999998  0.41848  0.3325099999999999  1.0000
  C   C75       1.0  0.8716199999999997  0.3667000000000001  0.30242  1.0000
  C   C76       1.0  0.8446899999999998  0.33795  0.24507  1.0000
  C   C77       1.0  0.76712  0.25874000000000014  0.16097  1.0000
  C   C78       1.0  0.7845999999999997  0.27905  0.12928  1.0000
  C   C79       1.0  0.75045  0.24821000000000004  0.07123  1.0000
  C   C80       1.0  0.7009799999999999  0.19857000000000005  0.04581  1.0000
  C   C81       1.0  0.68492  0.17848  0.07789  1.0000
  C   C82       1.0  0.71857  0.20947000000000002  0.13601  1.0000
  C   C83       1.0  0.9495699999999998  0.44899  0.39403  1.0000
  C   C84       1.0  0.63374  0.12531  0.052759999999999994  1.0000
  C   C85       1.0  0.43101  0.05355000000000003  0.93125  1.0000
  C   C86       1.0  0.4011599999999998  0.07696000000000001  0.9031  1.0000
  C   C87       1.0  0.41624  0.09366999999999996  0.8685899999999999  1.0000
  C   C88       1.0  0.39108  0.11833000000000003  0.84451  1.0000
  C   C89       1.0  0.3510799999999999  0.12691000000000008  0.85537  1.0000
  C   C90       1.0  0.3347599999999999  0.10905999999999999  0.88855  1.0000
  C   C91       1.0  0.3596399999999999  0.08389999999999997  0.9122  1.0000
  C   C92       1.0  0.35967999999999994  0.2154200000000001  0.86448  1.0000
  C   C93       1.0  0.41127999999999987  0.24587  0.91354  1.0000
  C   C94       1.0  0.44027  0.30376000000000003  0.94126  1.0000
  C   C95       1.0  0.41846999999999995  0.3325100000000001  0.92046  1.0000
  C   C96       1.0  0.36669  0.30242  0.87162  1.0000
  C   C97       1.0  0.3379499999999998  0.24506999999999995  0.8446899999999999  1.0000
  C   C98       1.0  0.25874  0.16097  0.76712  1.0000
  C   C99       1.0  0.27905  0.12928000000000006  0.7846  1.0000
  C   C100      1.0  0.24820999999999993  0.07124000000000001  0.75046  1.0000
  C   C101      1.0  0.19857000000000002  0.045810000000000024  0.70099  1.0000
  C   C102      1.0  0.17848000000000003  0.07789999999999998  0.68492  1.0000
  C   C103      1.0  0.2094699999999999  0.13601000000000005  0.71858  1.0000
  C   C104      1.0  0.44898999999999994  0.39403  0.94958  1.0000
  C   C105      1.0  0.12530999999999998  0.05277000000000007  0.63374  1.0000
  C   C106      1.0  0.12227999999999997  0.49976  0.06874  1.0000
  C   C107      1.0  0.17385000000000003  0.4980700000000001  0.0969  1.0000
  C   C108      1.0  0.22513999999999995  0.5477  0.13144  1.0000
  C   C109      1.0  0.27390000000000003  0.5466500000000001  0.15554  1.0000
  C   C110      1.0  0.27156  0.49575000000000014  0.14464  1.0000
  C   C111      1.0  0.22047  0.4462000000000001  0.11142  1.0000
  C   C112      1.0  0.17163000000000006  0.44740000000000013  0.08776  1.0000
  C   C113      1.0  0.35096000000000005  0.4952300000000001  0.13557  1.0000
  C   C114      1.0  0.33233999999999997  0.49775000000000014  0.08655  1.0000
  C   C115      1.0  0.36249  0.49899  0.05886  1.0000
  C   C116      1.0  0.41206000000000004  0.4980000000000001  0.07964  1.0000
  C   C117      1.0  0.4308199999999999  0.49507000000000007  0.12845  1.0000
  C   C118      1.0  0.40042  0.49328000000000005  0.15536  1.0000
  C   C119      1.0  0.39389999999999986  0.49164  0.23286999999999997  1.0000
  C   C120      1.0  0.3447099999999999  0.49447000000000013  0.21536999999999998  1.0000
  C   C121      1.0  0.3208  0.4977600000000001  0.24945  1.0000
  C   C122      1.0  0.34485  0.4975900000000001  0.29888  1.0000
  C   C123      1.0  0.39299999999999996  0.4935700000000001  0.315  1.0000
  C   C124      1.0  0.41748  0.4909000000000001  0.28139  1.0000
  C   C125      1.0  0.4444699999999999  0.49939999999999996  0.05052999999999999  1.0000
  C   C126      1.0  0.41902  0.4915600000000002  0.36617  1.0000
  C   C127      1.0  0.5689699999999998  0.50022  0.62251  1.0000
  C   C128      1.0  0.5988299999999998  0.50192  0.67578  1.0000
  C   C129      1.0  0.58371  0.45229000000000014  0.67736  1.0000
  C   C130      1.0  0.6088799999999998  0.45341000000000004  0.7271999999999998  1.0000
  C   C131      1.0  0.64892  0.5043200000000001  0.7758499999999999  1.0000
  C   C132      1.0  0.6652999999999998  0.5538700000000001  0.77439  1.0000
  C   C133      1.0  0.6404  0.5526000000000002  0.72431  1.0000
  C   C134      1.0  0.64036  0.50481  0.85576  1.0000
  C   C135      1.0  0.5887999999999998  0.50226  0.83459  1.0000
  C   C136      1.0  0.5598599999999999  0.5010000000000001  0.8634999999999999  1.0000
  C   C137      1.0  0.5816299999999999  0.5020000000000002  0.91406  1.0000
  C   C138      1.0  0.63338  0.50493  0.93576  1.0000
  C   C139      1.0  0.66209  0.5067300000000001  0.90715  1.0000
  C   C140      1.0  0.74124  0.5083700000000001  0.90227  1.0000
  C   C141      1.0  0.7209100000000002  0.5055600000000001  0.85026  1.0000
  C   C142      1.0  0.75169  0.50226  0.82304  1.0000
  C   C143      1.0  0.8012799999999998  0.50241  0.84724  1.0000
  C   C144      1.0  0.8214200000000002  0.5064300000000002  0.89943  1.0000
  C   C145      1.0  0.7904899999999998  0.5090900000000002  0.92658  1.0000
  C   C146      1.0  0.55112  0.5006000000000002  0.94506  1.0000
  C   C147      1.0  0.8745899999999996  0.5084200000000001  0.92745  1.0000
  C   C148      1.0  0.87775  0.94646  0.37750999999999996  1.0000
  C   C149      1.0  0.8261699999999998  0.9230800000000002  0.32425  1.0000
  C   C150      1.0  0.7749399999999999  0.9063600000000003  0.32261  1.0000
  C   C151      1.0  0.7261699999999996  0.88173  0.27276  1.0000
  C   C152      1.0  0.7284599999999999  0.8731800000000002  0.22419  1.0000
  C   C153      1.0  0.7794999999999999  0.8910000000000002  0.22571  1.0000
  C   C154      1.0  0.8283499999999999  0.9161400000000002  0.27578  1.0000
  C   C155      1.0  0.6490299999999999  0.7846400000000001  0.14424  1.0000
  C   C156      1.0  0.6676999999999998  0.7543000000000004  0.16544  1.0000
  C   C157      1.0  0.6375099999999999  0.6964200000000003  0.1365  1.0000
  C   C158      1.0  0.5879000000000001  0.6675600000000003  0.08591  1.0000
  C   C159      1.0  0.5690900000000001  0.6975400000000003  0.06416  1.0000
  C   C160      1.0  0.5995299999999998  0.7549000000000002  0.0928  1.0000
  C   C161      1.0  0.6060600000000002  0.8389600000000003  0.0977  1.0000
  C   C162      1.0  0.6552899999999998  0.8707100000000001  0.14975  1.0000
  C   C163      1.0  0.6792500000000001  0.9287500000000002  0.17701  1.0000
  C   C164      1.0  0.6552  0.9541100000000001  0.1528  1.0000
  C   C165      1.0  0.6069900000000001  0.9220000000000003  0.10057  1.0000
  C   C166      1.0  0.5824699999999998  0.8638700000000001  0.07337  1.0000
  C   C167      1.0  0.5554800000000001  0.6060200000000002  0.05489  1.0000
  C   C168      1.0  0.5809699999999999  0.9471400000000002  0.07255  1.0000
  C   C169      1.0  0.4997500000000001  0.06874000000000001  0.12228999999999998  1.0000
  C   C170      1.0  0.49806999999999996  0.09690000000000001  0.17386000000000001  1.0000
  C   C171      1.0  0.5476899999999998  0.13144000000000006  0.22514  1.0000
  C   C172      1.0  0.54665  0.15554000000000007  0.2739  1.0000
  C   C173      1.0  0.49575  0.14465000000000006  0.27156  1.0000
  C   C174      1.0  0.4462  0.11143  0.22047  1.0000
  C   C175      1.0  0.4474  0.08776  0.17163  1.0000
  C   C176      1.0  0.4952299999999999  0.13558000000000006  0.35096  1.0000
  C   C177      1.0  0.4977499999999998  0.08654999999999997  0.33233999999999997  1.0000
  C   C178      1.0  0.49899  0.05886000000000001  0.36249  1.0000
  C   C179      1.0  0.4979999999999999  0.07963999999999997  0.41207  1.0000
  C   C180      1.0  0.49506999999999984  0.12845  0.43083  1.0000
  C   C181      1.0  0.49327999999999994  0.15537  0.40042  1.0000
  C   C182      1.0  0.49164  0.23287000000000005  0.39389  1.0000
  C   C183      1.0  0.4944699999999999  0.21536999999999998  0.34471  1.0000
  C   C184      1.0  0.4977500000000001  0.24946000000000004  0.3208  1.0000
  C   C185      1.0  0.49759  0.29889  0.34485  1.0000
  C   C186      1.0  0.49355999999999994  0.315  0.39300999999999997  1.0000
  C   C187      1.0  0.49089999999999984  0.28139  0.41748  1.0000
  C   C188      1.0  0.4993999999999998  0.05052999999999997  0.4444699999999999  1.0000
  C   C189      1.0  0.4915599999999999  0.36617  0.41903  1.0000
  C   C190      1.0  0.05355000000000004  0.9312500000000001  0.43100999999999995  1.0000
  C   C191      1.0  0.07694999999999992  0.9030899999999998  0.40116  1.0000
  C   C192      1.0  0.09367000000000003  0.8685900000000002  0.41624  1.0000
  C   C193      1.0  0.11832000000000005  0.8445100000000001  0.39108  1.0000
  C   C194      1.0  0.1268999999999999  0.85536  0.35108  1.0000
  C   C195      1.0  0.10905000000000001  0.8885500000000002  0.33475999999999995  1.0000
  C   C196      1.0  0.08389000000000003  0.9122  0.35964  1.0000
  C   C197      1.0  0.21541  0.8644800000000001  0.35968  1.0000
  C   C198      1.0  0.24585999999999986  0.9135299999999998  0.41128  1.0000
  C   C199      1.0  0.30375000000000013  0.9412600000000001  0.44026999999999994  1.0000
  C   C200      1.0  0.33249999999999996  0.9204600000000002  0.41847999999999996  1.0000
  C   C201      1.0  0.30241  0.8716200000000001  0.3667  1.0000
  C   C202      1.0  0.24506  0.8446900000000003  0.33795  1.0000
  C   C203      1.0  0.16095999999999996  0.76712  0.25874  1.0000
  C   C204      1.0  0.12927  0.7846  0.27905  1.0000
  C   C205      1.0  0.07122999999999995  0.75045  0.2482  1.0000
  C   C206      1.0  0.04580000000000003  0.7009800000000003  0.19857  1.0000
  C   C207      1.0  0.07789000000000001  0.6849200000000001  0.17847999999999997  1.0000
  C   C208      1.0  0.1360000000000001  0.7185800000000003  0.20946999999999996  1.0000
  C   C209      1.0  0.39403000000000005  0.9495800000000002  0.44899  1.0000
  C   C210      1.0  0.05276000000000006  0.6337400000000002  0.12531  1.0000
  C   C211      1.0  0.9464499999999998  0.3775100000000001  0.87775  1.0000
  C   C212      1.0  0.92307  0.32425  0.82617  1.0000
  C   C213      1.0  0.9063599999999998  0.32261  0.77494  1.0000
  C   C214      1.0  0.8817299999999998  0.27277  0.72617  1.0000
  C   C215      1.0  0.87319  0.22420000000000007  0.72846  1.0000
  C   C216      1.0  0.8909999999999998  0.22570999999999994  0.7794999999999999  1.0000
  C   C217      1.0  0.9161399999999997  0.27579  0.82835  1.0000
  C   C218      1.0  0.78464  0.14424000000000006  0.64903  1.0000
  C   C219      1.0  0.7543099999999999  0.16543999999999995  0.6676999999999998  1.0000
  C   C220      1.0  0.6964199999999999  0.13651  0.63751  1.0000
  C   C221      1.0  0.6675599999999998  0.08591  0.5879  1.0000
  C   C222      1.0  0.6975399999999998  0.06417  0.5691  1.0000
  C   C223      1.0  0.7548999999999998  0.0928  0.59953  1.0000
  C   C224      1.0  0.8389599999999999  0.09771000000000005  0.60607  1.0000
  C   C225      1.0  0.8707099999999998  0.14976  0.6553  1.0000
  C   C226      1.0  0.92875  0.17701999999999996  0.67926  1.0000
  C   C227      1.0  0.9541099999999997  0.15280000000000007  0.6552  1.0000
  C   C228      1.0  0.9219999999999998  0.10057000000000002  0.607  1.0000
  C   C229      1.0  0.8638699999999998  0.07338000000000006  0.58248  1.0000
  C   C230      1.0  0.60602  0.05489999999999999  0.55548  1.0000
  C   C231      1.0  0.9471399999999996  0.07255  0.58097  1.0000
  C   C232      1.0  0.50022  0.62252  0.56897  1.0000
  C   C233      1.0  0.5019199999999999  0.67578  0.59884  1.0000
  C   C234      1.0  0.4522899999999999  0.6773600000000001  0.58371  1.0000
  C   C235      1.0  0.45341  0.7272000000000002  0.60889  1.0000
  C   C236      1.0  0.50431  0.7758400000000002  0.64893  1.0000
  C   C237      1.0  0.5538599999999999  0.7743900000000001  0.66531  1.0000
  C   C238      1.0  0.5525999999999999  0.7243100000000002  0.64041  1.0000
  C   C239      1.0  0.50481  0.85576  0.64037  1.0000
  C   C240      1.0  0.50226  0.83459  0.58881  1.0000
  C   C241      1.0  0.501  0.8634900000000002  0.55986  1.0000
  C   C242      1.0  0.50199  0.9140600000000001  0.58163  1.0000
  C   C243      1.0  0.50493  0.9357600000000003  0.63339  1.0000
  C   C244      1.0  0.50673  0.9071500000000002  0.6621  1.0000
  C   C245      1.0  0.50837  0.9022600000000002  0.74124  1.0000
  C   C246      1.0  0.5055599999999999  0.8502500000000001  0.72092  1.0000
  C   C247      1.0  0.5022499999999998  0.82303  0.7517  1.0000
  C   C248      1.0  0.5024  0.8472400000000002  0.8012899999999998  1.0000
  C   C249      1.0  0.5064299999999999  0.89943  0.82143  1.0000
  C   C250      1.0  0.5090899999999999  0.9265700000000002  0.7904899999999999  1.0000
  C   C251      1.0  0.50059  0.9450600000000002  0.55112  1.0000
  C   C252      1.0  0.50841  0.92745  0.8745899999999999  1.0000
  N   N1        1.0  0.17194000000000004  0.67786  0.84309  1.0000
  N   N2        1.0  0.8280699999999999  0.67109  0.50597  1.0000
  N   N3        1.0  0.1651699999999999  0.3221399999999999  0.49411999999999995  1.0000
  N   N4        1.0  0.83485  0.3289200000000001  0.15695  1.0000
  N   N5        1.0  0.32891999999999977  0.15696  0.83486  1.0000
  N   N6        1.0  0.3221399999999999  0.4941200000000001  0.16517  1.0000
  N   N7        1.0  0.6710899999999997  0.5059700000000001  0.82807  1.0000
  N   N8        1.0  0.6778599999999998  0.84309  0.17194  1.0000
  N   N9        1.0  0.49412  0.16517  0.32214  1.0000
  N   N10       1.0  0.15694999999999998  0.8348500000000002  0.32892  1.0000
  N   N11       1.0  0.8430899999999996  0.17195000000000005  0.67786  1.0000
  N   N12       1.0  0.50597  0.8280700000000001  0.6711  1.0000
  O   O1        1.0  0.41755000000000003  0.8707700000000003  0.94531  1.0000
  O   O2        1.0  0.37817999999999996  0.9239400000000002  0.96498  1.0000
  O   O3        1.0  0.06791000000000001  0.57928  0.78154  1.0000
  O   O4        1.0  0.008640000000000038  0.5106600000000001  0.58238  1.0000
  O   O5        1.0  0.0769  0.57506  0.5811  1.0000
  O   O6        1.0  0.022419999999999995  0.54086  0.9138  1.0000
  O   O7        1.0  0.09995  0.6001900000000002  0.9996499999999999  1.0000
  O   O8        1.0  0.5824199999999998  0.52773  0.45314  1.0000
  O   O9        1.0  0.6218599999999997  0.58683  0.54575  1.0000
  O   O10       1.0  0.9320399999999998  0.71364  0.51137  1.0000
  O   O11       1.0  0.9912899999999998  0.57378  0.50206  1.0000
  O   O12       1.0  0.9230799999999998  0.50416  0.49814  1.0000
  O   O13       1.0  0.9775199999999997  0.89135  0.51838  1.0000
  O   O14       1.0  0.9000800000000002  0.8997000000000003  0.50026  1.0000
  O   O15       1.0  0.07457999999999998  0.12929000000000004  0.5468  1.0000
  O   O16       1.0  0.04107999999999999  0.07606000000000002  0.45422  1.0000
  O   O17       1.0  0.2022599999999999  0.42067  0.48863999999999996  1.0000
  O   O18       1.0  0.07175000000000001  0.4892700000000001  0.49798999999999993  1.0000
  O   O19       1.0  0.005999999999999966  0.42492  0.50181  1.0000
  O   O20       1.0  0.37293999999999994  0.45911000000000013  0.48157  1.0000
  O   O21       1.0  0.3994299999999999  0.39982  0.49973  1.0000
  O   O22       1.0  0.9254  0.4722000000000001  0.05467999999999999  1.0000
  O   O23       1.0  0.95891  0.41316  0.03504  1.0000
  O   O24       1.0  0.7977699999999998  0.28638000000000013  0.21839  1.0000
  O   O25       1.0  0.92831  0.4263  0.41754  1.0000
  O   O26       1.0  0.9941299999999997  0.4959600000000001  0.41907999999999995  1.0000
  O   O27       1.0  0.6269899999999998  0.10859000000000003  0.08611  1.0000
  O   O28       1.0  0.6004299999999998  0.10018000000000003  0.00026  1.0000
  O   O29       1.0  0.4721899999999998  0.054679999999999916  0.9253999999999999  1.0000
  O   O30       1.0  0.41317  0.03505  0.95892  1.0000
  O   O31       1.0  0.28637999999999997  0.21840000000000007  0.7977699999999999  1.0000
  O   O32       1.0  0.4263  0.41754000000000013  0.92832  1.0000
  O   O33       1.0  0.4959499999999998  0.41908  0.99413  1.0000
  O   O34       1.0  0.10859  0.08611000000000008  0.627  1.0000
  O   O35       1.0  0.10017999999999998  0.0002599999999999744  0.60043  1.0000
  O   O36       1.0  0.12929000000000004  0.5468000000000002  0.07458  1.0000
  O   O37       1.0  0.07606000000000003  0.45422000000000007  0.04108  1.0000
  O   O38       1.0  0.42066999999999993  0.48864000000000013  0.20226  1.0000
  O   O39       1.0  0.48926  0.4979900000000001  0.07175  1.0000
  O   O40       1.0  0.42492  0.5018  0.005989999999999999  1.0000
  O   O41       1.0  0.45910000000000006  0.4815700000000001  0.37293999999999994  1.0000
  O   O42       1.0  0.39982  0.4997300000000001  0.39943999999999996  1.0000
  O   O43       1.0  0.5277299999999999  0.45313999999999993  0.58242  1.0000
  O   O44       1.0  0.5868299999999997  0.5457500000000002  0.62186  1.0000
  O   O45       1.0  0.7136399999999998  0.51137  0.9320499999999999  1.0000
  O   O46       1.0  0.57378  0.50206  0.9913  1.0000
  O   O47       1.0  0.50416  0.49815000000000004  0.9230899999999999  1.0000
  O   O48       1.0  0.89135  0.5183900000000002  0.9775299999999999  1.0000
  O   O49       1.0  0.8996899999999998  0.5002500000000002  0.90008  1.0000
  O   O50       1.0  0.87077  0.9453100000000002  0.41756  1.0000
  O   O51       1.0  0.9239400000000001  0.96497  0.37818  1.0000
  O   O52       1.0  0.5792699999999997  0.78153  0.06791  1.0000
  O   O53       1.0  0.51066  0.5823700000000002  0.00864  1.0000
  O   O54       1.0  0.57506  0.5811  0.0769  1.0000
  O   O55       1.0  0.54086  0.9137900000000002  0.022419999999999995  1.0000
  O   O56       1.0  0.6001799999999998  0.9996400000000001  0.09995999999999998  1.0000
  O   O57       1.0  0.5468  0.07458  0.12929  1.0000
  O   O58       1.0  0.45422  0.04108  0.07606  1.0000
  O   O59       1.0  0.48862999999999984  0.20226  0.42067  1.0000
  O   O60       1.0  0.49799  0.07175000000000002  0.48927  1.0000
  O   O61       1.0  0.5018  0.006000000000000016  0.42492  1.0000
  O   O62       1.0  0.48155999999999993  0.3729400000000001  0.45911  1.0000
  O   O63       1.0  0.4997199999999999  0.3994300000000001  0.39982  1.0000
  O   O64       1.0  0.05467999999999989  0.9254  0.4722  1.0000
  O   O65       1.0  0.03505000000000002  0.95892  0.4131699999999999  1.0000
  O   O66       1.0  0.21839000000000003  0.79777  0.28638  1.0000
  O   O67       1.0  0.41754  0.9283200000000003  0.4263  1.0000
  O   O68       1.0  0.41906999999999994  0.9941300000000002  0.49595999999999996  1.0000
  O   O69       1.0  0.08611  0.627  0.10859  1.0000
  O   O70       1.0  0.0002599999999999986  0.60043  0.10017999999999999  1.0000
  O   O71       1.0  0.9453  0.41756000000000004  0.87077  1.0000
  O   O72       1.0  0.9649699999999998  0.37818  0.92394  1.0000
  O   O73       1.0  0.7815399999999998  0.06791000000000001  0.57928  1.0000
  O   O74       1.0  0.5823700000000002  0.00864000000000001  0.51066  1.0000
  O   O75       1.0  0.5811  0.0769  0.57506  1.0000
  O   O76       1.0  0.91379  0.022429999999999995  0.54086  1.0000
  O   O77       1.0  0.9996399999999999  0.09996  0.60019  1.0000
  O   O78       1.0  0.45313  0.58242  0.52773  1.0000
  O   O79       1.0  0.54574  0.6218700000000003  0.58683  1.0000
  O   O80       1.0  0.51137  0.93205  0.71364  1.0000
  O   O81       1.0  0.50205  0.9913000000000003  0.57378  1.0000
  O   O82       1.0  0.49813999999999997  0.9230800000000002  0.50416  1.0000
  O   O83       1.0  0.51838  0.9775300000000002  0.89135  1.0000
  O   O84       1.0  0.5002499999999999  0.9000800000000002  0.8997  1.0000
  O   O85       1.0  0.50697  0.0  1e-05  1.0000
  O   O86       1.0  0.49301  0.49301  0.49301  1.0000
  O   O87       1.0  0.9999999999999999  9.999999999999015e-06  0.50697  1.0000
  O   O88       1.0  9.999999999983753e-06  0.50697  0.0  1.0000
