data_image0
_chemical_formula_structural       Zn16H216C288O81
_chemical_formula_sum              "Zn16 H216 C288 O81"
_cell_length_a       21.53455
_cell_length_b       21.537060000000004
_cell_length_c       21.53548
_cell_angle_alpha    89.52963
_cell_angle_beta     89.58866999999998
_cell_angle_gamma    89.55671

_symmetry_space_group_name_H-M    'P 1'
_symmetry_Int_Tables_number       1

loop_
  _symmetry_equiv_pos_as_xyz
  'x,y,z'

loop_
  _atom_site_type_symbol
  _atom_site_label
  _atom_site_symmetry_multiplicity
  _atom_site_fract_x
  _atom_site_fract_y
  _atom_site_fract_z
  _atom_site_occupancy
  Zn  Zn1       1.0  0.94275  0.9261799999999998  0.0571  1.0000
  Zn  Zn2       1.0  0.054769999999999985  0.9447  0.9272  1.0000
  Zn  Zn3       1.0  0.9265699999999998  0.05725  0.94455  1.0000
  Zn  Zn4       1.0  0.055319999999999994  0.0734  0.9429100000000001  1.0000
  Zn  Zn5       1.0  0.94249  0.05514  0.07339  1.0000
  Zn  Zn6       1.0  0.07334  0.9422099999999999  0.05718  1.0000
  Zn  Zn7       1.0  0.07364999999999998  0.07339  0.07423  1.0000
  Zn  Zn8       1.0  0.9232  0.92379  0.9242699999999999  1.0000
  Zn  Zn9       1.0  0.8421399999999999  0.7384899999999998  0.84499  1.0000
  Zn  Zn10      1.0  0.8449699999999999  0.84213  0.73851  1.0000
  Zn  Zn11      1.0  0.73882  0.8451  0.84228  1.0000
  Zn  Zn12      1.0  0.7389999999999999  0.739  0.73897  1.0000
  Zn  Zn13      1.0  0.15785999999999997  0.26151  0.15496  1.0000
  Zn  Zn14      1.0  0.15501  0.15788999999999997  0.26146  1.0000
  Zn  Zn15      1.0  0.26146  0.15497  0.15789  1.0000
  Zn  Zn16      1.0  0.2610199999999999  0.26101  0.26101  1.0000
  H   H1        1.0  0.90766  0.75953  0.9789000000000001  1.0000
  H   H2        1.0  0.90791  0.64432  0.97871  1.0000
  H   H3        1.0  0.10233  0.64463  0.02367  1.0000
  H   H4        1.0  0.10152  0.75953  0.02104  1.0000
  H   H5        1.0  0.010739999999999994  0.6170299999999999  0.88615  1.0000
  H   H6        1.0  0.012799999999999999  0.64212  0.72097  1.0000
  H   H7        1.0  0.05062  0.6509399999999999  0.79409  1.0000
  H   H8        1.0  0.9675699999999998  0.64578  0.79136  1.0000
  H   H9        1.0  0.00403  0.38592  0.88471  1.0000
  H   H10       1.0  0.012459999999999999  0.36526999999999993  0.7192  1.0000
  H   H11       1.0  0.96426  0.36134  0.78711  1.0000
  H   H12       1.0  0.04708  0.35281  0.79368  1.0000
  H   H13       1.0  0.97868  0.9084799999999998  0.76016  1.0000
  H   H14       1.0  0.97892  0.9080099999999999  0.64496  1.0000
  H   H15       1.0  0.02349  0.1026  0.64436  1.0000
  H   H16       1.0  0.02021  0.10232  0.75935  1.0000
  H   H17       1.0  0.8861599999999998  0.01052  0.61714  1.0000
  H   H18       1.0  0.72102  0.012780000000000001  0.64214  1.0000
  H   H19       1.0  0.79413  0.0506  0.65095  1.0000
  H   H20       1.0  0.7914499999999999  0.9675799999999999  0.64585  1.0000
  H   H21       1.0  0.8846999999999999  0.004060000000000001  0.38605  1.0000
  H   H22       1.0  0.7191899999999999  0.01243  0.36517  1.0000
  H   H23       1.0  0.78718  0.96428  0.36132  1.0000
  H   H24       1.0  0.7936499999999997  0.04711  0.35278  1.0000
  H   H25       1.0  0.75945  0.9791899999999999  0.9077400000000001  1.0000
  H   H26       1.0  0.6441999999999999  0.9789  0.90788  1.0000
  H   H27       1.0  0.64452  0.024029999999999996  0.10232  1.0000
  H   H28       1.0  0.75953  0.02142  0.10140000000000002  1.0000
  H   H29       1.0  0.6169199999999999  0.88628  0.0108  1.0000
  H   H30       1.0  0.64213  0.72111  0.012770000000000002  1.0000
  H   H31       1.0  0.65097  0.7942299999999999  0.05056  1.0000
  H   H32       1.0  0.6456999999999999  0.79152  0.9675  1.0000
  H   H33       1.0  0.38582  0.88465  0.00388  1.0000
  H   H34       1.0  0.36513999999999996  0.71918  0.012480000000000002  1.0000
  H   H35       1.0  0.3612  0.78709  0.96423  1.0000
  H   H36       1.0  0.3527199999999999  0.79364  0.04704  1.0000
  H   H37       1.0  0.09148  0.23982999999999996  0.02131  1.0000
  H   H38       1.0  0.09192  0.3549999999999999  0.02118  1.0000
  H   H39       1.0  0.89732  0.35556  0.9766200000000002  1.0000
  H   H40       1.0  0.89761  0.24063  0.97964  1.0000
  H   H41       1.0  0.9893899999999999  0.38287  0.11398  1.0000
  H   H42       1.0  0.98724  0.35785  0.27903  1.0000
  H   H43       1.0  0.94939  0.34909  0.20589  1.0000
  H   H44       1.0  0.03242  0.35423  0.20859000000000003  1.0000
  H   H45       1.0  0.99609  0.61395  0.11517  1.0000
  H   H46       1.0  0.98757  0.63476  0.28078  1.0000
  H   H47       1.0  0.03572  0.63874  0.21285000000000004  1.0000
  H   H48       1.0  0.9529  0.64724  0.20633  1.0000
  H   H49       1.0  0.020529999999999996  0.09051  0.23915  1.0000
  H   H50       1.0  0.02133  0.09163  0.35433  1.0000
  H   H51       1.0  0.97606  0.89721  0.35644  1.0000
  H   H52       1.0  0.97823  0.89679  0.24151  1.0000
  H   H53       1.0  0.11383  0.98942  0.3829  1.0000
  H   H54       1.0  0.27892999999999996  0.98723  0.35787  1.0000
  H   H55       1.0  0.20578  0.94948  0.34904  1.0000
  H   H56       1.0  0.20853999999999995  0.0325  0.35423  1.0000
  H   H57       1.0  0.11531  0.99591  0.61401  1.0000
  H   H58       1.0  0.28085  0.9875299999999999  0.63481  1.0000
  H   H59       1.0  0.21291999999999997  0.03573  0.6387  1.0000
  H   H60       1.0  0.2064  0.9529099999999999  0.64726  1.0000
  H   H61       1.0  0.23966999999999997  0.02062  0.09182  1.0000
  H   H62       1.0  0.35472  0.02152  0.09177  1.0000
  H   H63       1.0  0.35481  0.97637  0.89744  1.0000
  H   H64       1.0  0.23998  0.9783599999999999  0.8980699999999999  1.0000
  H   H65       1.0  0.38268  0.11394999999999998  0.98926  1.0000
  H   H66       1.0  0.3578299999999999  0.27911  0.9872200000000001  1.0000
  H   H67       1.0  0.34893  0.20602  0.94937  1.0000
  H   H68       1.0  0.35413  0.20863  0.03241  1.0000
  H   H69       1.0  0.6137899999999998  0.11517  0.9961300000000001  1.0000
  H   H70       1.0  0.6347299999999999  0.2807  0.98754  1.0000
  H   H71       1.0  0.63859  0.21274  0.03575  1.0000
  H   H72       1.0  0.64707  0.20623000000000005  0.95296  1.0000
  H   H73       1.0  0.0293  0.7536499999999999  0.8841300000000001  1.0000
  H   H74       1.0  0.14465  0.7562299999999998  0.8891399999999999  1.0000
  H   H75       1.0  0.1517  0.82367  0.70037  1.0000
  H   H76       1.0  0.035840000000000004  0.8217899999999999  0.69612  1.0000
  H   H77       1.0  0.17618000000000003  0.67538  0.80361  1.0000
  H   H78       1.0  0.154  0.51141  0.82144  1.0000
  H   H79       1.0  0.14839  0.57812  0.77156  1.0000
  H   H80       1.0  0.14422999999999997  0.58699  0.8544400000000001  1.0000
  H   H81       1.0  0.43122  0.51539  0.84524  1.0000
  H   H82       1.0  0.43276  0.59145  0.87881  1.0000
  H   H83       1.0  0.44186999999999993  0.58249  0.7964200000000001  1.0000
  H   H84       1.0  0.4059  0.6781199999999998  0.82308  1.0000
  H   H85       1.0  0.4055  0.9037199999999999  0.77911  1.0000
  H   H86       1.0  0.43596  0.9871599999999999  0.72396  1.0000
  H   H87       1.0  0.43669  0.0019500000000000014  0.8058499999999998  1.0000
  H   H88       1.0  0.4300199999999999  0.06542  0.75153  1.0000
  H   H89       1.0  0.14024999999999999  0.99559  0.74215  1.0000
  H   H90       1.0  0.15421  0.07343  0.76688  1.0000
  H   H91       1.0  0.14935  0.01213  0.8231500000000002  1.0000
  H   H92       1.0  0.17446999999999993  0.9076899999999999  0.78854  1.0000
  H   H93       1.0  0.4330499999999999  0.8434099999999999  0.8844199999999999  1.0000
  H   H94       1.0  0.54855  0.8423499999999999  0.88293  1.0000
  H   H95       1.0  0.54807  0.7364999999999999  0.71474  1.0000
  H   H96       1.0  0.43167999999999995  0.7378100000000001  0.7157  1.0000
  H   H97       1.0  0.8839699999999999  0.029259999999999994  0.7536500000000002  1.0000
  H   H98       1.0  0.88909  0.14457  0.7563200000000001  1.0000
  H   H99       1.0  0.70032  0.15178  0.82366  1.0000
  H   H100      1.0  0.696  0.03594  0.8217  1.0000
  H   H101      1.0  0.8036299999999997  0.17609  0.6754  1.0000
  H   H102      1.0  0.82142  0.15388  0.5114  1.0000
  H   H103      1.0  0.77158  0.14826  0.57808  1.0000
  H   H104      1.0  0.8544699999999998  0.14407  0.58699  1.0000
  H   H105      1.0  0.8452  0.4311  0.51533  1.0000
  H   H106      1.0  0.87882  0.43260999999999994  0.59142  1.0000
  H   H107      1.0  0.79641  0.44173999999999997  0.58241  1.0000
  H   H108      1.0  0.82312  0.40577  0.67803  1.0000
  H   H109      1.0  0.77916  0.40553  0.9036300000000002  1.0000
  H   H110      1.0  0.7239699999999999  0.43613  0.98712  1.0000
  H   H111      1.0  0.80587  0.43679999999999997  0.00201  1.0000
  H   H112      1.0  0.7515299999999999  0.43007  0.0654  1.0000
  H   H113      1.0  0.7421499999999998  0.14037  0.99559  1.0000
  H   H114      1.0  0.7664199999999999  0.15443  0.07357  1.0000
  H   H115      1.0  0.82306  0.1494  0.012709999999999999  1.0000
  H   H116      1.0  0.78845  0.17451  0.9077800000000001  1.0000
  H   H117      1.0  0.8844699999999999  0.43292  0.8433500000000002  1.0000
  H   H118      1.0  0.88288  0.5484399999999999  0.84223  1.0000
  H   H119      1.0  0.71458  0.54795  0.73639  1.0000
  H   H120      1.0  0.7156199999999999  0.43154  0.73774  1.0000
  H   H121      1.0  0.75409  0.88452  0.02922  1.0000
  H   H122      1.0  0.75627  0.8892399999999999  0.14459  1.0000
  H   H123      1.0  0.82342  0.70039  0.15156  1.0000
  H   H124      1.0  0.82172  0.69633  0.03576  1.0000
  H   H125      1.0  0.67534  0.8037  0.17605  1.0000
  H   H126      1.0  0.51139  0.8214199999999999  0.15371  1.0000
  H   H127      1.0  0.5781  0.7715799999999999  0.14821  1.0000
  H   H128      1.0  0.58697  0.85447  0.14399  1.0000
  H   H129      1.0  0.51538  0.8452099999999999  0.43103  1.0000
  H   H130      1.0  0.59145  0.8787899999999997  0.43256999999999995  1.0000
  H   H131      1.0  0.58246  0.7963899999999999  0.44173  1.0000
  H   H132      1.0  0.67809  0.8230899999999999  0.40573  1.0000
  H   H133      1.0  0.9036999999999998  0.77913  0.40553000000000006  1.0000
  H   H134      1.0  0.9871799999999997  0.7239099999999999  0.43609  1.0000
  H   H135      1.0  0.0019799999999999996  0.80581  0.43678  1.0000
  H   H136      1.0  0.06545  0.75151  0.43013  1.0000
  H   H137      1.0  0.9955599999999999  0.7425  0.14027  1.0000
  H   H138      1.0  0.07348999999999999  0.7668899999999998  0.15442  1.0000
  H   H139      1.0  0.012449999999999996  0.82342  0.14966  1.0000
  H   H140      1.0  0.90771  0.78849  0.1745  1.0000
  H   H141      1.0  0.8433999999999999  0.88446  0.43298000000000003  1.0000
  H   H142      1.0  0.84223  0.8828399999999998  0.5485  1.0000
  H   H143      1.0  0.73641  0.71462  0.54794  1.0000
  H   H144      1.0  0.7378  0.71564  0.43151  1.0000
  H   H145      1.0  0.9706899999999999  0.24630999999999995  0.11594  1.0000
  H   H146      1.0  0.85535  0.24367999999999998  0.11092  1.0000
  H   H147      1.0  0.84829  0.17625  0.2997  1.0000
  H   H148      1.0  0.96417  0.17815  0.30395  1.0000
  H   H149      1.0  0.82391  0.3246  0.19637999999999997  1.0000
  H   H150      1.0  0.8461299999999998  0.48855  0.17857  1.0000
  H   H151      1.0  0.85172  0.42184  0.22844  1.0000
  H   H152      1.0  0.8558799999999998  0.41298  0.14555  1.0000
  H   H153      1.0  0.56888  0.48463999999999996  0.15477  1.0000
  H   H154      1.0  0.56731  0.40858  0.12120000000000002  1.0000
  H   H155      1.0  0.5582199999999999  0.41755  0.20359  1.0000
  H   H156      1.0  0.59419  0.3219  0.17689  1.0000
  H   H157      1.0  0.59444  0.09634999999999999  0.22089  1.0000
  H   H158      1.0  0.56389  0.012859999999999998  0.27605  1.0000
  H   H159      1.0  0.5631599999999999  0.99807  0.19415  1.0000
  H   H160      1.0  0.5698399999999999  0.9346  0.24847  1.0000
  H   H161      1.0  0.85966  0.004250000000000001  0.25781  1.0000
  H   H162      1.0  0.84549  0.9263899999999999  0.23328000000000002  1.0000
  H   H163      1.0  0.8504199999999998  0.9875  0.17686  1.0000
  H   H164      1.0  0.82548  0.09222  0.21157  1.0000
  H   H165      1.0  0.56701  0.15673  0.1156  1.0000
  H   H166      1.0  0.45148  0.15783  0.11717  1.0000
  H   H167      1.0  0.45208  0.26362  0.28539  1.0000
  H   H168      1.0  0.56849  0.26228  0.28437  1.0000
  H   H169      1.0  0.11564  0.9706599999999999  0.24581  1.0000
  H   H170      1.0  0.11073999999999999  0.8553499999999999  0.24326  1.0000
  H   H171      1.0  0.2996  0.8482599999999999  0.17624  1.0000
  H   H172      1.0  0.30378  0.96415  0.17812  1.0000
  H   H173      1.0  0.19636999999999996  0.8239199999999999  0.32463  1.0000
  H   H174      1.0  0.17858  0.8460799999999999  0.48865  1.0000
  H   H175      1.0  0.22841999999999996  0.85172  0.42197  1.0000
  H   H176      1.0  0.14551999999999995  0.85592  0.41306  1.0000
  H   H177      1.0  0.15479  0.56888  0.4846599999999999  1.0000
  H   H178      1.0  0.12119  0.56737  0.40856999999999993  1.0000
  H   H179      1.0  0.20359  0.55824  0.4175900000000001  1.0000
  H   H180      1.0  0.17688  0.59423  0.32197  1.0000
  H   H181      1.0  0.22081999999999993  0.5944999999999999  0.09637000000000001  1.0000
  H   H182      1.0  0.27606  0.56401  0.012889999999999999  1.0000
  H   H183      1.0  0.19415999999999997  0.56331  0.99803  1.0000
  H   H184      1.0  0.24847999999999998  0.57003  0.93461  1.0000
  H   H185      1.0  0.25757  0.85975  0.0044  1.0000
  H   H186      1.0  0.23323999999999998  0.84565  0.92646  1.0000
  H   H187      1.0  0.17663999999999994  0.85054  0.9873800000000001  1.0000
  H   H188      1.0  0.21149999999999997  0.8255299999999999  0.09226  1.0000
  H   H189      1.0  0.11553999999999999  0.56708  0.15663  1.0000
  H   H190      1.0  0.11714  0.45157  0.15774  1.0000
  H   H191      1.0  0.28542999999999996  0.45205  0.26358  1.0000
  H   H192      1.0  0.28439  0.56847  0.26225  1.0000
  H   H193      1.0  0.24619999999999997  0.11579999999999999  0.9707700000000001  1.0000
  H   H194      1.0  0.24377999999999997  0.11088  0.85542  1.0000
  H   H195      1.0  0.17635999999999996  0.29965  0.84819  1.0000
  H   H196      1.0  0.17817999999999998  0.30384000000000005  0.96403  1.0000
  H   H197      1.0  0.32463999999999993  0.19639  0.8238300000000001  1.0000
  H   H198      1.0  0.48858  0.17856999999999998  0.8461700000000001  1.0000
  H   H199      1.0  0.42187  0.22841999999999996  0.85169  1.0000
  H   H200      1.0  0.41298999999999997  0.14554  0.8559000000000001  1.0000
  H   H201      1.0  0.48462  0.15479  0.56888  1.0000
  H   H202      1.0  0.4085499999999999  0.12119999999999999  0.56733  1.0000
  H   H203      1.0  0.41754  0.2036  0.55816  1.0000
  H   H204      1.0  0.32189  0.17689  0.59415  1.0000
  H   H205      1.0  0.09620999999999999  0.22079999999999997  0.59444  1.0000
  H   H206      1.0  0.012799999999999999  0.27604  0.56387  1.0000
  H   H207      1.0  0.99794  0.19416  0.5632  1.0000
  H   H208      1.0  0.93452  0.24849999999999994  0.56982  1.0000
  H   H209      1.0  0.004540000000000001  0.25787  0.85962  1.0000
  H   H210      1.0  0.92654  0.23359  0.84561  1.0000
  H   H211      1.0  0.98744  0.17694  0.85065  1.0000
  H   H212      1.0  0.09230999999999999  0.21154  0.82546  1.0000
  H   H213      1.0  0.1565  0.11549999999999999  0.56695  1.0000
  H   H214      1.0  0.15767999999999996  0.11715  0.45141  1.0000
  H   H215      1.0  0.26355  0.28533  0.45202  1.0000
  H   H216      1.0  0.26214  0.28426999999999997  0.56847  1.0000
  C   C1        1.0  0.00367  0.83918  0.99341  1.0000
  C   C2        1.0  0.004049999999999998  0.76778  0.99945  1.0000
  C   C3        1.0  0.95007  0.73408  0.98848  1.0000
  C   C4        1.0  0.9504499999999999  0.6693  0.9886399999999999  1.0000
  C   C5        1.0  0.005089999999999999  0.63571  0.00114  1.0000
  C   C6        1.0  0.05931  0.66947  0.013529999999999999  1.0000
  C   C7        1.0  0.05883999999999999  0.73448  0.012300000000000002  1.0000
  C   C8        1.0  0.0037400000000000003  0.56644  0.00062  1.0000
  C   C9        1.0  0.99849  0.53253  0.05708  1.0000
  C   C10       1.0  0.004830000000000002  0.53422  0.94345  1.0000
  C   C11       1.0  0.00955  0.56665  0.8854600000000001  1.0000
  C   C12       1.0  0.012050000000000002  0.53556  0.8296399999999999  1.0000
  C   C13       1.0  0.011350000000000002  0.6295  0.77029  1.0000
  C   C14       1.0  0.011049999999999997  0.46872  0.8292900000000001  1.0000
  C   C15       1.0  0.005420000000000001  0.43631  0.88461  1.0000
  C   C16       1.0  0.009370000000000002  0.37656999999999996  0.7685799999999999  1.0000
  C   C17       1.0  0.9924199999999999  0.004989999999999998  0.8392700000000001  1.0000
  C   C18       1.0  0.9989099999999999  0.00495  0.76791  1.0000
  C   C19       1.0  0.98833  0.95072  0.73448  1.0000
  C   C20       1.0  0.98879  0.95073  0.66969  1.0000
  C   C21       1.0  0.0011399999999999995  0.00527  0.63587  1.0000
  C   C22       1.0  0.013419999999999998  0.05967  0.66938  1.0000
  C   C23       1.0  0.011839999999999998  0.05954  0.73439  1.0000
  C   C24       1.0  0.00066  0.0036699999999999997  0.56659  1.0000
  C   C25       1.0  0.05711  0.99845  0.53264  1.0000
  C   C26       1.0  0.94348  0.00476  0.53433  1.0000
  C   C27       1.0  0.88551  0.009419999999999998  0.56675  1.0000
  C   C28       1.0  0.8296799999999999  0.012  0.53563  1.0000
  C   C29       1.0  0.77033  0.011339999999999996  0.62952  1.0000
  C   C30       1.0  0.82928  0.01104  0.46879  1.0000
  C   C31       1.0  0.8845899999999999  0.0054399999999999995  0.43642000000000003  1.0000
  C   C32       1.0  0.7685899999999999  0.00938  0.37652  1.0000
  C   C33       1.0  0.83877  0.99372  0.00373  1.0000
  C   C34       1.0  0.76749  6.999999999999998e-05  0.00398  1.0000
  C   C35       1.0  0.73389  0.98889  0.95002  1.0000
  C   C36       1.0  0.66912  0.9888299999999999  0.95045  1.0000
  C   C37       1.0  0.63555  0.0012999999999999997  0.00508  1.0000
  C   C38       1.0  0.6692899999999999  0.01383  0.05931  1.0000
  C   C39       1.0  0.73429  0.012779999999999998  0.05879999999999999  1.0000
  C   C40       1.0  0.56629  0.00067  0.00373  1.0000
  C   C41       1.0  0.53232  0.057089999999999995  0.9984700000000001  1.0000
  C   C42       1.0  0.53407  0.94349  0.00478  1.0000
  C   C43       1.0  0.56653  0.88553  0.00953  1.0000
  C   C44       1.0  0.53549  0.8296799999999999  0.01204  1.0000
  C   C45       1.0  0.62949  0.77042  0.01133  1.0000
  C   C46       1.0  0.4686399999999999  0.82929  0.01101  1.0000
  C   C47       1.0  0.4362  0.8846  0.00534  1.0000
  C   C48       1.0  0.37645999999999996  0.76856  0.00935  1.0000
  C   C49       1.0  0.9954599999999998  0.16072  0.007340000000000001  1.0000
  C   C50       1.0  0.9950899999999998  0.23208  0.0009400000000000001  1.0000
  C   C51       1.0  0.04926  0.26553  0.01163  1.0000
  C   C52       1.0  0.04920999999999998  0.33028  0.01129  1.0000
  C   C53       1.0  0.99467  0.36410000000000003  0.99895  1.0000
  C   C54       1.0  0.9402699999999999  0.33056  0.98665  1.0000
  C   C55       1.0  0.94043  0.26555  0.98807  1.0000
  C   C56       1.0  0.99632  0.43337  0.9994  1.0000
  C   C57       1.0  0.0016300000000000004  0.46729  0.94292  1.0000
  C   C58       1.0  0.99529  0.46561  0.05656  1.0000
  C   C59       1.0  0.9905699999999997  0.43324999999999997  0.11458  1.0000
  C   C60       1.0  0.9879999999999999  0.4643999999999999  0.17035  1.0000
  C   C61       1.0  0.98866  0.3704999999999999  0.22971  1.0000
  C   C62       1.0  0.989  0.53123  0.17068  1.0000
  C   C63       1.0  0.99468  0.56358  0.11534  1.0000
  C   C64       1.0  0.99063  0.62347  0.23139000000000004  1.0000
  C   C65       1.0  0.00534  0.99409  0.16088  1.0000
  C   C66       1.0  0.9995699999999998  0.9941699999999999  0.23226  1.0000
  C   C67       1.0  0.01098  0.04847  0.26524  1.0000
  C   C68       1.0  0.011239999999999997  0.04878  0.33  1.0000
  C   C69       1.0  0.9988199999999999  0.99452  0.36424  1.0000
  C   C70       1.0  0.98618  0.9399599999999999  0.33115  1.0000
  C   C71       1.0  0.9870499999999999  0.93969  0.26616  1.0000
  C   C72       1.0  0.99936  0.99637  0.43348  1.0000
  C   C73       1.0  0.94291  0.0016200000000000006  0.46738999999999997  1.0000
  C   C74       1.0  0.05654999999999999  0.99531  0.46571  1.0000
  C   C75       1.0  0.11451  0.9905899999999999  0.43329  1.0000
  C   C76       1.0  0.17034  0.98801  0.46441  1.0000
  C   C77       1.0  0.22962999999999997  0.9887  0.3705  1.0000
  C   C78       1.0  0.17075  0.98896  0.53125  1.0000
  C   C79       1.0  0.11543  0.99458  0.56363  1.0000
  C   C80       1.0  0.23145999999999997  0.99062  0.62349  1.0000
  C   C81       1.0  0.15997  0.006019999999999999  0.9961300000000001  1.0000
  C   C82       1.0  0.23146000000000003  0.9996199999999998  0.99556  1.0000
  C   C83       1.0  0.26515  0.010920000000000001  0.0495  1.0000
  C   C84       1.0  0.32994  0.01119  0.04922  1.0000
  C   C85       1.0  0.36373  0.9988399999999998  0.99469  1.0000
  C   C86       1.0  0.32998  0.98622  0.94049  1.0000
  C   C87       1.0  0.26492  0.98706  0.9408399999999999  1.0000
  C   C88       1.0  0.43308  0.9993899999999999  0.99622  1.0000
  C   C89       1.0  0.46711  0.94295  0.00152  1.0000
  C   C90       1.0  0.46538  0.05655000000000002  0.99521  1.0000
  C   C91       1.0  0.43306  0.11458  0.9905000000000002  1.0000
  C   C92       1.0  0.46424999999999994  0.17035999999999998  0.9879800000000001  1.0000
  C   C93       1.0  0.3703999999999999  0.22977999999999996  0.9886399999999999  1.0000
  C   C94       1.0  0.53109  0.17068  0.9890099999999998  1.0000
  C   C95       1.0  0.56341  0.11533999999999998  0.99469  1.0000
  C   C96       1.0  0.62335  0.23132  0.99064  1.0000
  C   C97       1.0  0.95706  0.7872599999999998  0.78842  1.0000
  C   C98       1.0  0.025779999999999997  0.7872  0.7898099999999999  1.0000
  C   C99       1.0  0.05640999999999999  0.7683  0.84405  1.0000
  C   C100      1.0  0.12088  0.76996  0.8467000000000001  1.0000
  C   C101      1.0  0.15561  0.7903099999999998  0.79507  1.0000
  C   C102      1.0  0.1246  0.80873  0.74053  1.0000
  C   C103      1.0  0.060160000000000005  0.8073599999999999  0.73791  1.0000
  C   C104      1.0  0.22418999999999994  0.7911899999999998  0.79756  1.0000
  C   C105      1.0  0.25713  0.73435  0.8050000000000002  1.0000
  C   C106      1.0  0.22627  0.67593  0.80795  1.0000
  C   C107      1.0  0.2584  0.6208  0.8157200000000001  1.0000
  C   C108      1.0  0.16568  0.56058  0.81632  1.0000
  C   C109      1.0  0.32485  0.62169  0.82205  1.0000
  C   C110      1.0  0.4186  0.5643  0.83833  1.0000
  C   C111      1.0  0.35585  0.67732  0.81835  1.0000
  C   C112      1.0  0.32378  0.73463  0.80805  1.0000
  C   C113      1.0  0.35605  0.7911699999999999  0.80045  1.0000
  C   C114      1.0  0.3233  0.84768  0.79156  1.0000
  C   C115      1.0  0.3552  0.9046399999999999  0.7809800000000001  1.0000
  C   C116      1.0  0.3236899999999999  0.95994  0.7729  1.0000
  C   C117      1.0  0.41745  0.01709  0.76096  1.0000
  C   C118      1.0  0.25686  0.96128  0.77612  1.0000
  C   C119      1.0  0.16461999999999996  0.024379999999999995  0.7759300000000001  1.0000
  C   C120      1.0  0.22480999999999995  0.90656  0.78553  1.0000
  C   C121      1.0  0.25642  0.8481599999999999  0.79159  1.0000
  C   C122      1.0  0.42477  0.79065  0.80009  1.0000
  C   C123      1.0  0.45810999999999996  0.82016  0.8471100000000001  1.0000
  C   C124      1.0  0.52274  0.81959  0.84649  1.0000
  C   C125      1.0  0.5551  0.7891999999999999  0.7986800000000001  1.0000
  C   C126      1.0  0.62413  0.7889599999999999  0.7974  1.0000
  C   C127      1.0  0.5221599999999998  0.75952  0.7515600000000001  1.0000
  C   C128      1.0  0.45758  0.76035  0.75227  1.0000
  C   C129      1.0  0.7882399999999999  0.9571199999999997  0.7870400000000001  1.0000
  C   C130      1.0  0.7896499999999999  0.02582  0.7870600000000001  1.0000
  C   C131      1.0  0.84391  0.0564  0.76828  1.0000
  C   C132      1.0  0.84662  0.12084999999999997  0.76999  1.0000
  C   C133      1.0  0.7950199999999998  0.15561  0.7903400000000002  1.0000
  C   C134      1.0  0.74047  0.12465  0.80873  1.0000
  C   C135      1.0  0.73779  0.06023  0.8072800000000001  1.0000
  C   C136      1.0  0.79754  0.22417  0.79122  1.0000
  C   C137      1.0  0.8050099999999998  0.25705  0.73434  1.0000
  C   C138      1.0  0.8079699999999999  0.22616999999999998  0.67594  1.0000
  C   C139      1.0  0.81574  0.25828  0.62079  1.0000
  C   C140      1.0  0.81633  0.16554  0.56057  1.0000
  C   C141      1.0  0.8220699999999997  0.32471  0.62165  1.0000
  C   C142      1.0  0.83832  0.41847  0.56425  1.0000
  C   C143      1.0  0.8183799999999998  0.35573  0.67727  1.0000
  C   C144      1.0  0.80807  0.32368  0.73458  1.0000
  C   C145      1.0  0.8004699999999999  0.35597  0.7911000000000001  1.0000
  C   C146      1.0  0.79155  0.32328  0.84764  1.0000
  C   C147      1.0  0.7809999999999998  0.35523  0.90458  1.0000
  C   C148      1.0  0.7729  0.32376  0.9599100000000002  1.0000
  C   C149      1.0  0.7609699999999999  0.41754  0.01707  1.0000
  C   C150      1.0  0.77608  0.25692  0.9612899999999999  1.0000
  C   C151      1.0  0.77577  0.16474  0.02456  1.0000
  C   C152      1.0  0.7854699999999999  0.22484  0.9066  1.0000
  C   C153      1.0  0.7915599999999999  0.25641  0.84817  1.0000
  C   C154      1.0  0.8000999999999999  0.42467  0.7905500000000001  1.0000
  C   C155      1.0  0.84713  0.45798  0.82007  1.0000
  C   C156      1.0  0.84645  0.5226  0.8194799999999999  1.0000
  C   C157      1.0  0.79858  0.55491  0.7890699999999999  1.0000
  C   C158      1.0  0.79728  0.6239  0.78894  1.0000
  C   C159      1.0  0.75144  0.52202  0.75939  1.0000
  C   C160      1.0  0.75221  0.45745  0.7602400000000001  1.0000
  C   C161      1.0  0.7881899999999998  0.7896  0.95688  1.0000
  C   C162      1.0  0.7874699999999999  0.79028  0.02561  1.0000
  C   C163      1.0  0.7685399999999999  0.84437  0.05636  1.0000
  C   C164      1.0  0.76996  0.84681  0.12083000000000002  1.0000
  C   C165      1.0  0.79021  0.79509  0.15553  1.0000
  C   C166      1.0  0.80854  0.7406099999999999  0.12444  1.0000
  C   C167      1.0  0.80732  0.7381599999999999  0.05997000000000001  1.0000
  C   C168      1.0  0.7911599999999999  0.7975499999999999  0.22412  1.0000
  C   C169      1.0  0.7343199999999999  0.8050499999999999  0.25702  1.0000
  C   C170      1.0  0.6758899999999999  0.8080099999999999  0.22612999999999997  1.0000
  C   C171      1.0  0.62076  0.81576  0.25823  1.0000
  C   C172      1.0  0.56056  0.81633  0.16544  1.0000
  C   C173      1.0  0.62165  0.8220699999999999  0.32467  1.0000
  C   C174      1.0  0.56428  0.83831  0.41842  1.0000
  C   C175      1.0  0.6773  0.8183799999999999  0.35568  1.0000
  C   C176      1.0  0.7346000000000001  0.80809  0.32365  1.0000
  C   C177      1.0  0.7911499999999999  0.80047  0.35595  1.0000
  C   C178      1.0  0.84766  0.7915499999999999  0.32326  1.0000
  C   C179      1.0  0.9046199999999998  0.78096  0.35522  1.0000
  C   C180      1.0  0.95993  0.77285  0.32376  1.0000
  C   C181      1.0  0.017100000000000004  0.7609299999999999  0.41756  1.0000
  C   C182      1.0  0.96127  0.77604  0.25692  1.0000
  C   C183      1.0  0.02445  0.77608  0.16477  1.0000
  C   C184      1.0  0.9065499999999999  0.7854599999999999  0.22483000000000003  1.0000
  C   C185      1.0  0.84814  0.79156  0.25638  1.0000
  C   C186      1.0  0.7906199999999998  0.80009  0.42466  1.0000
  C   C187      1.0  0.8201199999999998  0.84711  0.458  1.0000
  C   C188      1.0  0.8195  0.84643  0.52262  1.0000
  C   C189      1.0  0.78907  0.79857  0.55491  1.0000
  C   C190      1.0  0.7889199999999998  0.79728  0.62389  1.0000
  C   C191      1.0  0.75942  0.7514499999999998  0.522  1.0000
  C   C192      1.0  0.7603099999999998  0.7522099999999999  0.45743  1.0000
  C   C193      1.0  0.04293  0.21269  0.21162  1.0000
  C   C194      1.0  0.9742199999999999  0.21274  0.21025  1.0000
  C   C195      1.0  0.94359  0.23163  0.15603  1.0000
  C   C196      1.0  0.87913  0.22998  0.15337  1.0000
  C   C197      1.0  0.8444  0.20965  0.20501  1.0000
  C   C198      1.0  0.8753999999999998  0.19119999999999998  0.25954  1.0000
  C   C199      1.0  0.93985  0.19255999999999998  0.26216  1.0000
  C   C200      1.0  0.77583  0.20877999999999997  0.20249  1.0000
  C   C201      1.0  0.7429299999999999  0.26565  0.19501999999999997  1.0000
  C   C202      1.0  0.77382  0.32406  0.19205  1.0000
  C   C203      1.0  0.7416899999999997  0.3791999999999999  0.18427  1.0000
  C   C204      1.0  0.83444  0.43938999999999995  0.18368  1.0000
  C   C205      1.0  0.6752499999999999  0.37832  0.17794  1.0000
  C   C206      1.0  0.5814899999999998  0.43573  0.16168  1.0000
  C   C207      1.0  0.64424  0.3227  0.18164  1.0000
  C   C208      1.0  0.6763  0.2654  0.19196000000000002  1.0000
  C   C209      1.0  0.64401  0.20886999999999997  0.19958  1.0000
  C   C210      1.0  0.6767  0.15234  0.20846  1.0000
  C   C211      1.0  0.64474  0.09539  0.21902  1.0000
  C   C212      1.0  0.67621  0.04006  0.22709000000000001  1.0000
  C   C213      1.0  0.58241  0.98294  0.23904  1.0000
  C   C214      1.0  0.74304  0.03869  0.22389  1.0000
  C   C215      1.0  0.8351799999999999  0.9754499999999999  0.22413  1.0000
  C   C216      1.0  0.77514  0.09339999999999998  0.21451  1.0000
  C   C217      1.0  0.74358  0.15182  0.20845  1.0000
  C   C218      1.0  0.57531  0.20945  0.19996  1.0000
  C   C219      1.0  0.5419599999999999  0.17997  0.15293  1.0000
  C   C220      1.0  0.47733999999999993  0.18057  0.15359  1.0000
  C   C221      1.0  0.44506  0.21095  0.20145  1.0000
  C   C222      1.0  0.37606999999999996  0.21109  0.20274  1.0000
  C   C223      1.0  0.47799  0.24062  0.24856000000000003  1.0000
  C   C224      1.0  0.54256  0.23975999999999997  0.24781000000000003  1.0000
  C   C225      1.0  0.21169  0.04292  0.21283000000000002  1.0000
  C   C226      1.0  0.21018999999999996  0.97419  0.21281999999999998  1.0000
  C   C227      1.0  0.15586999999999998  0.9435899999999999  0.23146  1.0000
  C   C228      1.0  0.15324  0.87913  0.22977  1.0000
  C   C229      1.0  0.20493  0.8443899999999999  0.20961  1.0000
  C   C230      1.0  0.25946  0.8753699999999999  0.19123000000000004  1.0000
  C   C231      1.0  0.26206999999999997  0.9398  0.19264  1.0000
  C   C232      1.0  0.20245999999999997  0.7758299999999999  0.20880000000000004  1.0000
  C   C233      1.0  0.19501999999999997  0.7429499999999999  0.26568  1.0000
  C   C234      1.0  0.19205  0.7738399999999999  0.32409  1.0000
  C   C235      1.0  0.18428  0.7417199999999999  0.37923  1.0000
  C   C236      1.0  0.18367  0.8344299999999999  0.43947  1.0000
  C   C237      1.0  0.17795  0.6752799999999999  0.37835  1.0000
  C   C238      1.0  0.16168  0.5815199999999999  0.4357500000000001  1.0000
  C   C239      1.0  0.18163999999999994  0.64427  0.32274  1.0000
  C   C240      1.0  0.19194999999999998  0.67632  0.26543  1.0000
  C   C241      1.0  0.19953  0.64405  0.2089  1.0000
  C   C242      1.0  0.20841999999999994  0.67674  0.15236  1.0000
  C   C243      1.0  0.21896999999999997  0.6448  0.09542000000000002  1.0000
  C   C244      1.0  0.22705999999999996  0.6763  0.0401  1.0000
  C   C245      1.0  0.23904  0.58256  0.9829499999999999  1.0000
  C   C246      1.0  0.22383999999999996  0.74313  0.03873  1.0000
  C   C247      1.0  0.22397  0.83531  0.97548  1.0000
  C   C248      1.0  0.21444999999999997  0.77519  0.09343  1.0000
  C   C249      1.0  0.20841  0.7435999999999999  0.15185  1.0000
  C   C250      1.0  0.19991  0.57535  0.20945  1.0000
  C   C251      1.0  0.15287999999999996  0.54204  0.17991  1.0000
  C   C252      1.0  0.15356999999999998  0.47741999999999996  0.1805  1.0000
  C   C253      1.0  0.20144  0.4451  0.21091  1.0000
  C   C254      1.0  0.20272  0.37612  0.21106999999999998  1.0000
  C   C255      1.0  0.24858  0.47799  0.24059  1.0000
  C   C256      1.0  0.24781  0.5425599999999999  0.23974  1.0000
  C   C257      1.0  0.21273  0.21156  0.04294  1.0000
  C   C258      1.0  0.21273999999999998  0.21015999999999999  0.97421  1.0000
  C   C259      1.0  0.23162  0.15592  0.9436300000000001  1.0000
  C   C260      1.0  0.23001999999999997  0.15331  0.8791599999999999  1.0000
  C   C261      1.0  0.20971999999999996  0.20495  0.8443600000000001  1.0000
  C   C262      1.0  0.19128  0.25947  0.8753200000000001  1.0000
  C   C263      1.0  0.19261  0.26205999999999996  0.9397700000000001  1.0000
  C   C264      1.0  0.20882  0.20243999999999998  0.77578  1.0000
  C   C265      1.0  0.26566  0.19498  0.74287  1.0000
  C   C266      1.0  0.32409  0.19204  0.7737500000000002  1.0000
  C   C267      1.0  0.37921999999999995  0.18428000000000003  0.74165  1.0000
  C   C268      1.0  0.43941  0.18368  0.83445  1.0000
  C   C269      1.0  0.37832  0.17794  0.67521  1.0000
  C   C270      1.0  0.4357099999999999  0.16169  0.58148  1.0000
  C   C271      1.0  0.32266999999999996  0.18162  0.6442  1.0000
  C   C272      1.0  0.26536  0.1919  0.67624  1.0000
  C   C273      1.0  0.20879  0.19946  0.64397  1.0000
  C   C274      1.0  0.15229  0.20837  0.67667  1.0000
  C   C275      1.0  0.09530999999999999  0.21894  0.64474  1.0000
  C   C276      1.0  0.040019999999999986  0.22706999999999997  0.67622  1.0000
  C   C277      1.0  0.98285  0.23905  0.58241  1.0000
  C   C278      1.0  0.03869  0.22387999999999997  0.74306  1.0000
  C   C279      1.0  0.9755499999999999  0.22424  0.8353  1.0000
  C   C280      1.0  0.09344  0.21449  0.77512  1.0000
  C   C281      1.0  0.15183  0.20838999999999996  0.7435500000000002  1.0000
  C   C282      1.0  0.20930999999999997  0.19984  0.57527  1.0000
  C   C283      1.0  0.17978999999999998  0.15284  0.54193  1.0000
  C   C284      1.0  0.18043  0.15354  0.47731  1.0000
  C   C285      1.0  0.21087999999999998  0.2014  0.44505  1.0000
  C   C286      1.0  0.21106  0.20271  0.37607  1.0000
  C   C287      1.0  0.24054  0.24849999999999994  0.47796  1.0000
  C   C288      1.0  0.23963999999999996  0.24772  0.54253  1.0000
  O   O1        1.0  0.01877  0.8663299999999998  0.05253000000000001  1.0000
  O   O2        1.0  0.04339999999999999  0.85622  0.9471800000000001  1.0000
  O   O3        1.0  0.9403099999999998  0.85954  0.98384  1.0000
  O   O4        1.0  0.015589999999999998  0.56272  0.77233  1.0000
  O   O5        1.0  0.01537  0.44299  0.77188  1.0000
  O   O6        1.0  0.051989999999999995  0.018879999999999997  0.8668000000000001  1.0000
  O   O7        1.0  0.94745  0.04620999999999999  0.85607  1.0000
  O   O8        1.0  0.9812899999999999  0.94196  0.8593900000000001  1.0000
  O   O9        1.0  0.77237  0.015569999999999999  0.56275  1.0000
  O   O10       1.0  0.77188  0.01535  0.44296  1.0000
  O   O11       1.0  0.8661999999999999  0.05273  0.01909  1.0000
  O   O12       1.0  0.85521  0.94745  0.04369  1.0000
  O   O13       1.0  0.8594799999999999  0.98406  0.9406700000000001  1.0000
  O   O14       1.0  0.56271  0.7723799999999998  0.01558  1.0000
  O   O15       1.0  0.44289  0.7718699999999998  0.01535  1.0000
  O   O16       1.0  0.9812  0.13343  0.9478000000000001  1.0000
  O   O17       1.0  0.95465  0.14378  0.05268  1.0000
  O   O18       1.0  0.058359999999999995  0.14066  0.01839  1.0000
  O   O19       1.0  0.9844299999999999  0.43726999999999994  0.22767  1.0000
  O   O20       1.0  0.98465  0.55703  0.22807000000000002  1.0000
  O   O21       1.0  0.94624  0.97939  0.13343  1.0000
  O   O22       1.0  0.05082999999999999  0.95331  0.14447  1.0000
  O   O23       1.0  0.01589  0.05689  0.14025  1.0000
  O   O24       1.0  0.22763  0.9844099999999998  0.43727000000000005  1.0000
  O   O25       1.0  0.22815999999999997  0.9846299999999999  0.55705  1.0000
  O   O26       1.0  0.13158  0.9473299999999999  0.9812  1.0000
  O   O27       1.0  0.14354  0.052669999999999995  0.9565000000000001  1.0000
  O   O28       1.0  0.14015  0.01581  0.05947  1.0000
  O   O29       1.0  0.43717999999999996  0.22769  0.98442  1.0000
  O   O30       1.0  0.55691  0.22807  0.98464  1.0000
  O   O31       1.0  0.99984  0.00025  0.00019  1.0000
  O   O32       1.0  0.92889  0.7627899999999999  0.8349199999999999  1.0000
  O   O33       1.0  0.6513899999999999  0.81856  0.84055  1.0000
  O   O34       1.0  0.9309199999999999  0.8121599999999999  0.74078  1.0000
  O   O35       1.0  0.65046  0.7592699999999999  0.7529799999999999  1.0000
  O   O36       1.0  0.23233999999999994  0.5632  0.81891  1.0000
  O   O37       1.0  0.35233999999999993  0.56512  0.83143  1.0000
  O   O38       1.0  0.23127  0.018629999999999997  0.76887  1.0000
  O   O39       1.0  0.35068  0.016099999999999993  0.7624200000000001  1.0000
  O   O40       1.0  0.8347099999999998  0.9289299999999999  0.76254  1.0000
  O   O41       1.0  0.8404399999999999  0.65092  0.81869  1.0000
  O   O42       1.0  0.7407  0.9309699999999999  0.81205  1.0000
  O   O43       1.0  0.7529199999999999  0.65042  0.75923  1.0000
  O   O44       1.0  0.8189099999999999  0.23219999999999996  0.5632  1.0000
  O   O45       1.0  0.8314399999999998  0.35221  0.56508  1.0000
  O   O46       1.0  0.7688299999999999  0.23136999999999996  0.01865  1.0000
  O   O47       1.0  0.76243  0.35077  0.01604  1.0000
  O   O48       1.0  0.76591  0.8373  0.92863  1.0000
  O   O49       1.0  0.8186599999999999  0.84043  0.6509  1.0000
  O   O50       1.0  0.81158  0.74123  0.93073  1.0000
  O   O51       1.0  0.7592299999999998  0.75293  0.65041  1.0000
  O   O52       1.0  0.56317  0.81891  0.23208999999999996  1.0000
  O   O53       1.0  0.56509  0.8314399999999998  0.35216  1.0000
  O   O54       1.0  0.018619999999999998  0.76883  0.23138000000000003  1.0000
  O   O55       1.0  0.016079999999999997  0.76242  0.35079  1.0000
  O   O56       1.0  0.7907799999999999  0.79079  0.79077  1.0000
  O   O57       1.0  0.0711  0.23732  0.1652  1.0000
  O   O58       1.0  0.34903  0.18136  0.15959  1.0000
  O   O59       1.0  0.06905  0.18770999999999996  0.25924  1.0000
  O   O60       1.0  0.34958  0.24076  0.24708  1.0000
  O   O61       1.0  0.76778  0.43679  0.18108  1.0000
  O   O62       1.0  0.64775  0.43488999999999994  0.16856  1.0000
  O   O63       1.0  0.7685799999999999  0.98134  0.23118000000000002  1.0000
  O   O64       1.0  0.64919  0.98392  0.23757000000000003  1.0000
  O   O65       1.0  0.16528  0.07112  0.23736000000000002  1.0000
  O   O66       1.0  0.15953999999999996  0.34911  0.18132  1.0000
  O   O67       1.0  0.25929  0.06901  0.18786  1.0000
  O   O68       1.0  0.24707  0.34958999999999996  0.24076  1.0000
  O   O69       1.0  0.18108  0.76778  0.43683000000000005  1.0000
  O   O70       1.0  0.16856  0.64777  0.43492  1.0000
  O   O71       1.0  0.23110999999999998  0.7687  0.9813699999999999  1.0000
  O   O72       1.0  0.23756999999999995  0.64933  0.9839599999999998  1.0000
  O   O73       1.0  0.23733999999999997  0.16515  0.07112  1.0000
  O   O74       1.0  0.18133  0.15956  0.34905  1.0000
  O   O75       1.0  0.18783  0.2592  0.06904  1.0000
  O   O76       1.0  0.24075999999999995  0.24706  0.34958  1.0000
  O   O77       1.0  0.43681  0.18109  0.76779  1.0000
  O   O78       1.0  0.43488999999999994  0.16857  0.64773  1.0000
  O   O79       1.0  0.9813699999999997  0.23117  0.7686400000000001  1.0000
  O   O80       1.0  0.98387  0.23757999999999999  0.64918  1.0000
  O   O81       1.0  0.20921999999999996  0.20921  0.20918000000000003  1.0000
