data_image0
_chemical_formula_structural       Cd6Co6H132C204N60Cl6O24
_chemical_formula_sum              "Cd6 Co6 H132 C204 N60 Cl6 O24"
_cell_length_a       22.06553
_cell_length_b       22.06549
_cell_length_c       23.44951
_cell_angle_alpha    89.99516
_cell_angle_beta     90.00498
_cell_angle_gamma    120.08256999999999

_space_group_name_H-M_alt    "P 1"
_space_group_IT_number       1

loop_
  _space_group_symop_operation_xyz
  'x, y, z'

loop_
  _atom_site_type_symbol
  _atom_site_label
  _atom_site_symmetry_multiplicity
  _atom_site_fract_x
  _atom_site_fract_y
  _atom_site_fract_z
  _atom_site_occupancy
  Cd  Cd1       1.0  0.4029499999999999  0.53638  0.13279  1.0000
  Cd  Cd2       1.0  0.59727  0.13372  0.20039999999999994  1.0000
  Cd  Cd3       1.0  0.46353  0.86643  0.46622  1.0000
  Cd  Cd4       1.0  0.86643  0.46353999999999995  0.53378  1.0000
  Cd  Cd5       1.0  0.13372  0.59727  0.7996  1.0000
  Cd  Cd6       1.0  0.53638  0.40296  0.86721  1.0000
  Co  Co1       1.0  0.47354  0.36403  0.14593999999999996  1.0000
  Co  Co2       1.0  0.52627  0.89035  0.18737  1.0000
  Co  Co3       1.0  0.6361  0.10987999999999999  0.47912999999999994  1.0000
  Co  Co4       1.0  0.10986999999999998  0.6361  0.5208699999999999  1.0000
  Co  Co5       1.0  0.8903499999999999  0.52627  0.8126299999999999  1.0000
  Co  Co6       1.0  0.36402999999999996  0.47355  0.85406  1.0000
  H   H1        1.0  0.5365299999999998  0.64576  0.18887999999999996  1.0000
  H   H2        1.0  0.62773  0.6777  0.26141  1.0000
  H   H3        1.0  0.64081  0.58015  0.30778  1.0000
  H   H4        1.0  0.55466  0.45594  0.28026  1.0000
  H   H5        1.0  0.27471  0.26037  0.27849  1.0000
  H   H6        1.0  0.22836999999999996  0.13617  0.24219999999999997  1.0000
  H   H7        1.0  0.29374999999999996  0.11627999999999998  0.16201  1.0000
  H   H8        1.0  0.55365  0.23695999999999998  0.08096999999999999  1.0000
  H   H9        1.0  0.62605  0.25474  0.99485  1.0000
  H   H10       1.0  0.61574  0.32023  0.9113499999999998  1.0000
  H   H11       1.0  0.4759  0.36001  0.9989999999999999  1.0000
  H   H12       1.0  0.24976999999999994  0.42199  0.13724999999999998  1.0000
  H   H13       1.0  0.16314  0.30036  0.10383  1.0000
  H   H14       1.0  0.20973  0.22785  0.05901999999999999  1.0000
  H   H15       1.0  0.34004  0.27988  0.05071999999999999  1.0000
  H   H16       1.0  0.60966  0.58979  0.04970999999999999  1.0000
  H   H17       1.0  0.72612  0.61224  0.08894  1.0000
  H   H18       1.0  0.7277699999999999  0.52045  0.15321999999999997  1.0000
  H   H19       1.0  0.46962  0.11078  0.29307  1.0000
  H   H20       1.0  0.42151  0.18384  0.3338799999999999  1.0000
  H   H21       1.0  0.45658  0.30026  0.28893  1.0000
  H   H22       1.0  0.57818  0.25806999999999997  0.16819999999999996  1.0000
  H   H23       1.0  0.46371000000000007  0.10917000000000002  0.14441  1.0000
  H   H24       1.0  0.37225  0.04956  0.0721  1.0000
  H   H25       1.0  0.35928999999999994  0.93912  0.0254  1.0000
  H   H26       1.0  0.44548  0.90129  0.05272999999999999  1.0000
  H   H27       1.0  0.72461  0.9853300000000002  0.05461  1.0000
  H   H28       1.0  0.77112  0.9077299999999999  0.09108999999999999  1.0000
  H   H29       1.0  0.7063299999999999  0.82312  0.17201999999999998  1.0000
  H   H30       1.0  0.44595999999999997  0.68328  0.25233999999999995  1.0000
  H   H31       1.0  0.37364  0.62829  0.3385099999999999  1.0000
  H   H32       1.0  0.38399  0.70416  0.42201  1.0000
  H   H33       1.0  0.52368  0.8841599999999998  0.33432999999999996  1.0000
  H   H34       1.0  0.7507  0.17259999999999998  0.19607999999999998  1.0000
  H   H35       1.0  0.83704  0.13753  0.22958  1.0000
  H   H36       1.0  0.79003  0.0182  0.2743399999999999  1.0000
  H   H37       1.0  0.6596899999999998  0.93982  0.2825  1.0000
  H   H38       1.0  0.39053  0.98019  0.28299  1.0000
  H   H39       1.0  0.2738999999999998  0.8857299999999999  0.24399  1.0000
  H   H40       1.0  0.2719799999999999  0.79166  0.18029999999999996  1.0000
  H   H41       1.0  0.53067  0.64145  0.04028999999999999  1.0000
  H   H42       1.0  0.5783599999999998  0.76269  0.9993999999999998  1.0000
  H   H43       1.0  0.54297  0.8436800000000001  0.0444  1.0000
  H   H44       1.0  0.4217999999999999  0.6794699999999999  0.16513999999999998  1.0000
  H   H45       1.0  0.3541699999999998  0.8905899999999999  0.52213  1.0000
  H   H46       1.0  0.3224299999999999  0.9500499999999998  0.59459  1.0000
  H   H47       1.0  0.42026  0.0606  0.64117  1.0000
  H   H48       1.0  0.54439  0.09868  0.61356  1.0000
  H   H49       1.0  0.73941  0.014739999999999998  0.6116  1.0000
  H   H50       1.0  0.8636899999999998  0.09291  0.5754  1.0000
  H   H51       1.0  0.8835199999999999  0.17714  0.4942799999999999  1.0000
  H   H52       1.0  0.76249  0.31679  0.41431999999999997  1.0000
  H   H53       1.0  0.74527  0.37177  0.32818  1.0000
  H   H54       1.0  0.68011  0.29596  0.24444  1.0000
  H   H55       1.0  0.6398199999999999  0.116  0.33192999999999995  1.0000
  H   H56       1.0  0.57779  0.82772  0.4705899999999999  1.0000
  H   H57       1.0  0.6993299999999999  0.86284  0.43709  1.0000
  H   H58       1.0  0.77191  0.98214  0.3922099999999999  1.0000
  H   H59       1.0  0.72005  0.06035999999999999  0.38390999999999986  1.0000
  H   H60       1.0  0.4102099999999999  0.01953  0.38362999999999997  1.0000
  H   H61       1.0  0.38805999999999996  0.11387999999999998  0.42250999999999994  1.0000
  H   H62       1.0  0.48063000000000006  0.20847  0.48578999999999994  1.0000
  H   H63       1.0  0.88956  0.35893  0.62661  1.0000
  H   H64       1.0  0.8160199999999999  0.23753  0.6672699999999999  1.0000
  H   H65       1.0  0.6996499999999998  0.15627  0.6220799999999999  1.0000
  H   H66       1.0  0.7428699999999999  0.32047  0.50143  1.0000
  H   H67       1.0  0.8905899999999999  0.35417  0.4778799999999999  1.0000
  H   H68       1.0  0.95005  0.32243  0.40541  1.0000
  H   H69       1.0  0.06060000000000002  0.42026  0.35882999999999987  1.0000
  H   H70       1.0  0.09868000000000005  0.54439  0.38643999999999995  1.0000
  H   H71       1.0  0.01473999999999991  0.73941  0.3884  1.0000
  H   H72       1.0  0.09291000000000005  0.8637  0.4245999999999999  1.0000
  H   H73       1.0  0.17714000000000005  0.88352  0.5057199999999998  1.0000
  H   H74       1.0  0.3167799999999999  0.7625  0.58568  1.0000
  H   H75       1.0  0.37177  0.74528  0.67182  1.0000
  H   H76       1.0  0.29595999999999995  0.68011  0.7555599999999999  1.0000
  H   H77       1.0  0.11599999999999998  0.63982  0.66807  1.0000
  H   H78       1.0  0.8277099999999998  0.5778  0.52941  1.0000
  H   H79       1.0  0.8628399999999999  0.69934  0.5629099999999999  1.0000
  H   H80       1.0  0.9821299999999998  0.77192  0.60779  1.0000
  H   H81       1.0  0.06035999999999998  0.72005  0.61609  1.0000
  H   H82       1.0  0.019530000000000002  0.41021  0.61637  1.0000
  H   H83       1.0  0.11388  0.38805999999999996  0.5774999999999999  1.0000
  H   H84       1.0  0.20847  0.48064  0.51421  1.0000
  H   H85       1.0  0.35892  0.88956  0.3733899999999999  1.0000
  H   H86       1.0  0.23752  0.81602  0.33273  1.0000
  H   H87       1.0  0.1562699999999999  0.6996499999999999  0.37791999999999987  1.0000
  H   H88       1.0  0.32046999999999987  0.74287  0.49857  1.0000
  H   H89       1.0  0.10916999999999999  0.46371  0.8555999999999999  1.0000
  H   H90       1.0  0.04955999999999999  0.37226  0.9278999999999997  1.0000
  H   H91       1.0  0.93912  0.35929  0.9745999999999998  1.0000
  H   H92       1.0  0.9012899999999999  0.44548  0.9472699999999998  1.0000
  H   H93       1.0  0.9853299999999999  0.72462  0.9453899999999998  1.0000
  H   H94       1.0  0.90773  0.77113  0.9089099999999999  1.0000
  H   H95       1.0  0.82312  0.70634  0.8279799999999998  1.0000
  H   H96       1.0  0.6832799999999999  0.4459699999999999  0.7476599999999999  1.0000
  H   H97       1.0  0.62829  0.37364  0.66149  1.0000
  H   H98       1.0  0.7041599999999999  0.38399  0.5779899999999999  1.0000
  H   H99       1.0  0.88415  0.52368  0.66567  1.0000
  H   H100      1.0  0.17260000000000003  0.75071  0.80392  1.0000
  H   H101      1.0  0.13753  0.83705  0.7704299999999997  1.0000
  H   H102      1.0  0.018189999999999977  0.79003  0.72566  1.0000
  H   H103      1.0  0.93982  0.6596899999999999  0.7175  1.0000
  H   H104      1.0  0.9801899999999999  0.39054  0.7170099999999999  1.0000
  H   H105      1.0  0.8857199999999998  0.27391  0.7560099999999998  1.0000
  H   H106      1.0  0.79166  0.27199  0.8197  1.0000
  H   H107      1.0  0.64145  0.53067  0.9597099999999997  1.0000
  H   H108      1.0  0.7626899999999999  0.57837  0.0006  1.0000
  H   H109      1.0  0.8436799999999999  0.54298  0.9556  1.0000
  H   H110      1.0  0.6794700000000001  0.4218  0.83486  1.0000
  H   H111      1.0  0.64576  0.53654  0.8111199999999997  1.0000
  H   H112      1.0  0.6777  0.62773  0.73859  1.0000
  H   H113      1.0  0.58014  0.64082  0.6922199999999998  1.0000
  H   H114      1.0  0.45593999999999996  0.55466  0.71974  1.0000
  H   H115      1.0  0.26037  0.27471  0.7215099999999999  1.0000
  H   H116      1.0  0.13617  0.22837  0.7577999999999999  1.0000
  H   H117      1.0  0.11628  0.29375  0.8379899999999998  1.0000
  H   H118      1.0  0.23695999999999995  0.55365  0.91903  1.0000
  H   H119      1.0  0.25473  0.62605  0.005149999999999999  1.0000
  H   H120      1.0  0.32023  0.61574  0.08865  1.0000
  H   H121      1.0  0.35999999999999993  0.4759  0.001  1.0000
  H   H122      1.0  0.42199  0.24977000000000002  0.8627499999999998  1.0000
  H   H123      1.0  0.30036  0.16315  0.8961699999999998  1.0000
  H   H124      1.0  0.22784999999999997  0.20973999999999998  0.9409799999999999  1.0000
  H   H125      1.0  0.27988  0.34005  0.9492799999999999  1.0000
  H   H126      1.0  0.58979  0.60967  0.9503  1.0000
  H   H127      1.0  0.6122299999999999  0.72612  0.9110599999999999  1.0000
  H   H128      1.0  0.52045  0.72778  0.8467799999999998  1.0000
  H   H129      1.0  0.11077  0.46962  0.7069299999999998  1.0000
  H   H130      1.0  0.18384  0.42152  0.6661199999999999  1.0000
  H   H131      1.0  0.30025999999999997  0.45659000000000005  0.7110699999999998  1.0000
  H   H132      1.0  0.25806  0.57819  0.8317999999999998  1.0000
  C   C1        1.0  0.542  0.60495  0.21009999999999998  1.0000
  C   C2        1.0  0.59428  0.62273  0.25065999999999994  1.0000
  C   C3        1.0  0.6001899999999999  0.56888  0.27637  1.0000
  C   C4        1.0  0.55272  0.49993  0.26136999999999994  1.0000
  C   C5        1.0  0.5006799999999999  0.48610000000000003  0.22076  1.0000
  C   C6        1.0  0.39663  0.37726  0.23850999999999997  1.0000
  C   C7        1.0  0.35924  0.30263  0.21891999999999995  1.0000
  C   C8        1.0  0.29934  0.24797  0.24369  1.0000
  C   C9        1.0  0.27462999999999993  0.17996  0.22325999999999993  1.0000
  C   C10       1.0  0.31002  0.16811  0.17901999999999996  1.0000
  C   C11       1.0  0.36897  0.22522999999999999  0.15548999999999996  1.0000
  C   C12       1.0  0.41211  0.22311000000000003  0.10724999999999997  1.0000
  C   C13       1.0  0.50815  0.2971  0.04709  1.0000
  C   C14       1.0  0.55122  0.26718  0.04532  1.0000
  C   C15       1.0  0.59129  0.27635  0.9967199999999998  1.0000
  C   C16       1.0  0.58638  0.31344  0.9505099999999997  1.0000
  C   C17       1.0  0.50754  0.3349  0.9993  1.0000
  C   C18       1.0  0.26650999999999997  0.38783  0.11784999999999997  1.0000
  C   C19       1.0  0.21902999999999997  0.32043  0.09931  1.0000
  C   C20       1.0  0.24524  0.28053  0.07457  1.0000
  C   C21       1.0  0.31725  0.3088  0.06972  1.0000
  C   C22       1.0  0.362  0.37679  0.09019  1.0000
  C   C23       1.0  0.48059  0.46944  0.07373  1.0000
  C   C24       1.0  0.55375  0.48845999999999995  0.08806  1.0000
  C   C25       1.0  0.61428  0.55136  0.0755  1.0000
  C   C26       1.0  0.6781199999999998  0.56336  0.09797  1.0000
  C   C27       1.0  0.68  0.51333  0.13345  1.0000
  C   C28       1.0  0.61733  0.45236  0.14564  1.0000
  C   C29       1.0  0.60783  0.39659  0.18681  1.0000
  C   C30       1.0  0.48097  0.16042  0.27418999999999993  1.0000
  C   C31       1.0  0.4554  0.20167  0.29664  1.0000
  C   C32       1.0  0.4746099999999999  0.26629  0.27164  1.0000
  C   C33       1.0  0.51864  0.28765  0.22391999999999995  1.0000
  C   C34       1.0  0.54202  0.24283999999999997  0.20408999999999994  1.0000
  C   C35       1.0  0.4580999999999999  0.06278  0.12325999999999998  1.0000
  C   C36       1.0  0.4057299999999999  0.028129999999999995  0.08276999999999998  1.0000
  C   C37       1.0  0.39984  0.9684600000000001  0.056899999999999985  1.0000
  C   C38       1.0  0.44734  0.94709  0.07181  1.0000
  C   C39       1.0  0.4993399999999999  0.98532  0.11250999999999997  1.0000
  C   C40       1.0  0.6037399999999998  0.9812399999999999  0.0953  1.0000
  C   C41       1.0  0.64067  0.9435300000000001  0.11461  1.0000
  C   C42       1.0  0.70027  0.9485299999999999  0.08963999999999997  1.0000
  C   C43       1.0  0.72498  0.90529  0.11012999999999999  1.0000
  C   C44       1.0  0.68984  0.85832  0.15465999999999996  1.0000
  C   C45       1.0  0.63086  0.85635  0.17808999999999994  1.0000
  C   C46       1.0  0.58782  0.81125  0.22650999999999996  1.0000
  C   C47       1.0  0.49153  0.78892  0.28631  1.0000
  C   C48       1.0  0.4484  0.71583  0.28803999999999996  1.0000
  C   C49       1.0  0.40833  0.68477  0.33663  1.0000
  C   C50       1.0  0.41326  0.72678  0.3828299999999999  1.0000
  C   C51       1.0  0.49207  0.82733  0.33404999999999996  1.0000
  C   C52       1.0  0.73374  0.1216  0.21545999999999998  1.0000
  C   C53       1.0  0.7810999999999999  0.10165  0.23402  1.0000
  C   C54       1.0  0.75467  0.03542  0.25872  1.0000
  C   C55       1.0  0.68261  0.99163  0.26352  1.0000
  C   C56       1.0  0.638  0.01495  0.24307  1.0000
  C   C57       1.0  0.51936  0.98879  0.25962  1.0000
  C   C58       1.0  0.4462099999999999  0.9345899999999999  0.24494999999999995  1.0000
  C   C59       1.0  0.38573  0.93693  0.25737  1.0000
  C   C60       1.0  0.32184  0.88482  0.23504  1.0000
  C   C61       1.0  0.31982  0.8325599999999999  0.19991999999999993  1.0000
  C   C62       1.0  0.38243  0.83425  0.18784  1.0000
  C   C63       1.0  0.3919299999999999  0.7876099999999999  0.14704  1.0000
  C   C64       1.0  0.5192  0.67963  0.05917  1.0000
  C   C65       1.0  0.54451  0.74645  0.03667  1.0000
  C   C66       1.0  0.52514  0.79167  0.06167999999999999  1.0000
  C   C67       1.0  0.48122  0.76879  0.10945  1.0000
  C   C68       1.0  0.458  0.70058  0.12928999999999996  1.0000
  C   C69       1.0  0.39503999999999995  0.9369399999999999  0.54335  1.0000
  C   C70       1.0  0.3773899999999999  0.9714999999999999  0.5838899999999999  1.0000
  C   C71       1.0  0.43137  0.03125  0.60967  1.0000
  C   C72       1.0  0.50028  0.052790000000000004  0.59463  1.0000
  C   C73       1.0  0.51394  0.0146  0.55392  1.0000
  C   C74       1.0  0.6224499999999998  0.01866  0.57091  1.0000
  C   C75       1.0  0.69723  0.05658  0.5517199999999999  1.0000
  C   C76       1.0  0.7518799999999999  0.05165  0.5766699999999999  1.0000
  C   C77       1.0  0.8199099999999999  0.09507999999999998  0.5562399999999998  1.0000
  C   C78       1.0  0.8317599999999998  0.1419  0.51162  1.0000
  C   C79       1.0  0.7746699999999999  0.14368  0.4881499999999999  1.0000
  C   C80       1.0  0.77666  0.18843  0.43955999999999995  1.0000
  C   C81       1.0  0.70273  0.21120000000000003  0.38015999999999994  1.0000
  C   C82       1.0  0.7325099999999999  0.28424  0.37852999999999987  1.0000
  C   C83       1.0  0.72358  0.31532  0.3299599999999999  1.0000
  C   C84       1.0  0.68668  0.27335  0.28365  1.0000
  C   C85       1.0  0.66501  0.17281  0.33233  1.0000
  C   C86       1.0  0.61196  0.8787  0.4511599999999999  1.0000
  C   C87       1.0  0.6793199999999999  0.8986599999999999  0.43258999999999986  1.0000
  C   C88       1.0  0.71926  0.96485  0.4077999999999999  1.0000
  C   C89       1.0  0.69108  0.0086  0.4029499999999999  1.0000
  C   C90       1.0  0.62314  0.9853300000000002  0.4234799999999999  1.0000
  C   C91       1.0  0.53054  0.01121  0.40731999999999996  1.0000
  C   C92       1.0  0.5117299999999999  0.06548  0.42156  1.0000
  C   C93       1.0  0.44878  0.06290999999999998  0.40915  1.0000
  C   C94       1.0  0.43704  0.11499999999999999  0.43137  1.0000
  C   C95       1.0  0.48745999999999995  0.1675  0.46631  1.0000
  C   C96       1.0  0.54846  0.16593  0.4784199999999999  1.0000
  C   C97       1.0  0.60467  0.21262999999999999  0.51921  1.0000
  C   C98       1.0  0.83995  0.32062  0.6076199999999999  1.0000
  C   C99       1.0  0.79841  0.25371  0.63001  1.0000
  C   C100      1.0  0.7337899999999999  0.20836999999999997  0.60491  1.0000
  C   C101      1.0  0.7127  0.23124  0.55718  1.0000
  C   C102      1.0  0.7578499999999999  0.29944  0.53736  1.0000
  C   C103      1.0  0.93694  0.39504  0.45664999999999994  1.0000
  C   C104      1.0  0.9714999999999998  0.37739  0.41611  1.0000
  C   C105      1.0  0.031250000000000035  0.43137000000000003  0.39033  1.0000
  C   C106      1.0  0.05277999999999999  0.50028  0.40536999999999995  1.0000
  C   C107      1.0  0.014589999999999988  0.51394  0.44608  1.0000
  C   C108      1.0  0.018659999999999996  0.62245  0.42909  1.0000
  C   C109      1.0  0.05657999999999987  0.6972299999999999  0.44828  1.0000
  C   C110      1.0  0.05164000000000002  0.75188  0.42333  1.0000
  C   C111      1.0  0.09506999999999999  0.81992  0.4437599999999999  1.0000
  C   C112      1.0  0.14189999999999994  0.83176  0.48837999999999987  1.0000
  C   C113      1.0  0.14367  0.77467  0.51185  1.0000
  C   C114      1.0  0.18842999999999988  0.77666  0.5604399999999999  1.0000
  C   C115      1.0  0.2112  0.70273  0.61984  1.0000
  C   C116      1.0  0.2842299999999999  0.73251  0.6214699999999999  1.0000
  C   C117      1.0  0.31531999999999993  0.72358  0.6700399999999999  1.0000
  C   C118      1.0  0.27335  0.68669  0.7163499999999998  1.0000
  C   C119      1.0  0.17281000000000002  0.66501  0.66767  1.0000
  C   C120      1.0  0.8787  0.61197  0.54884  1.0000
  C   C121      1.0  0.89866  0.67932  0.5674099999999999  1.0000
  C   C122      1.0  0.9648499999999999  0.71926  0.5921999999999998  1.0000
  C   C123      1.0  0.008600000000000005  0.69108  0.59705  1.0000
  C   C124      1.0  0.9853199999999999  0.62314  0.57652  1.0000
  C   C125      1.0  0.011209999999999987  0.53054  0.59268  1.0000
  C   C126      1.0  0.06548  0.51173  0.57844  1.0000
  C   C127      1.0  0.06290999999999997  0.44877999999999996  0.5908499999999999  1.0000
  C   C128      1.0  0.11500000000000002  0.43704  0.56863  1.0000
  C   C129      1.0  0.16749  0.48747  0.5336899999999999  1.0000
  C   C130      1.0  0.16593  0.54846  0.52159  1.0000
  C   C131      1.0  0.21262999999999987  0.60467  0.48078999999999994  1.0000
  C   C132      1.0  0.3206199999999999  0.83996  0.39237999999999995  1.0000
  C   C133      1.0  0.25371  0.79841  0.36999  1.0000
  C   C134      1.0  0.20837  0.73379  0.39509  1.0000
  C   C135      1.0  0.23124  0.7127  0.4428199999999999  1.0000
  C   C136      1.0  0.29944  0.75785  0.46263999999999994  1.0000
  C   C137      1.0  0.06277999999999993  0.45809999999999995  0.8767399999999999  1.0000
  C   C138      1.0  0.02813000000000001  0.4057299999999999  0.9172299999999998  1.0000
  C   C139      1.0  0.9684600000000001  0.39985  0.9430999999999998  1.0000
  C   C140      1.0  0.9470899999999999  0.44734  0.92819  1.0000
  C   C141      1.0  0.9853199999999999  0.49935000000000007  0.88749  1.0000
  C   C142      1.0  0.9812299999999999  0.60375  0.9046999999999998  1.0000
  C   C143      1.0  0.9435199999999999  0.64067  0.88539  1.0000
  C   C144      1.0  0.94852  0.70028  0.9103599999999997  1.0000
  C   C145      1.0  0.9052899999999998  0.7249799999999998  0.88987  1.0000
  C   C146      1.0  0.8583099999999999  0.68985  0.8453399999999999  1.0000
  C   C147      1.0  0.85635  0.63086  0.8219099999999999  1.0000
  C   C148      1.0  0.81124  0.58782  0.77349  1.0000
  C   C149      1.0  0.78892  0.49154  0.7136899999999999  1.0000
  C   C150      1.0  0.71583  0.4484  0.7119599999999998  1.0000
  C   C151      1.0  0.6847599999999999  0.4083399999999999  0.6633699999999999  1.0000
  C   C152      1.0  0.7267799999999999  0.41326  0.61717  1.0000
  C   C153      1.0  0.8273199999999999  0.49207  0.6659499999999999  1.0000
  C   C154      1.0  0.1216  0.73374  0.7845399999999999  1.0000
  C   C155      1.0  0.10164999999999999  0.78111  0.7659899999999997  1.0000
  C   C156      1.0  0.03542000000000007  0.75467  0.7412799999999999  1.0000
  C   C157      1.0  0.9916199999999998  0.68262  0.73648  1.0000
  C   C158      1.0  0.014949999999999991  0.63801  0.75693  1.0000
  C   C159      1.0  0.9887900000000001  0.51936  0.74038  1.0000
  C   C160      1.0  0.93459  0.44622000000000006  0.75505  1.0000
  C   C161      1.0  0.9369299999999999  0.38572999999999996  0.7426299999999999  1.0000
  C   C162      1.0  0.88482  0.32184  0.76496  1.0000
  C   C163      1.0  0.8325599999999999  0.31982  0.8000799999999998  1.0000
  C   C164      1.0  0.8342499999999999  0.38244  0.81216  1.0000
  C   C165      1.0  0.78761  0.39194  0.8529599999999999  1.0000
  C   C166      1.0  0.67962  0.51921  0.94083  1.0000
  C   C167      1.0  0.74645  0.54452  0.9633399999999998  1.0000
  C   C168      1.0  0.7916699999999999  0.52515  0.93833  1.0000
  C   C169      1.0  0.76879  0.48122999999999994  0.89055  1.0000
  C   C170      1.0  0.70058  0.45801  0.87071  1.0000
  C   C171      1.0  0.60495  0.542  0.7899  1.0000
  C   C172      1.0  0.62273  0.59428  0.74934  1.0000
  C   C173      1.0  0.5688799999999999  0.60019  0.7236299999999998  1.0000
  C   C174      1.0  0.49993  0.55273  0.73863  1.0000
  C   C175      1.0  0.4860999999999999  0.50068  0.7792499999999999  1.0000
  C   C176      1.0  0.37726  0.39663  0.7614899999999998  1.0000
  C   C177      1.0  0.30263  0.35924  0.78108  1.0000
  C   C178      1.0  0.24796999999999997  0.29934999999999995  0.75631  1.0000
  C   C179      1.0  0.17995999999999998  0.27464  0.7767399999999999  1.0000
  C   C180      1.0  0.16810999999999998  0.31002  0.8209899999999998  1.0000
  C   C181      1.0  0.22523  0.36897  0.84451  1.0000
  C   C182      1.0  0.22310999999999998  0.41211  0.8927499999999999  1.0000
  C   C183      1.0  0.29710000000000003  0.50815  0.95291  1.0000
  C   C184      1.0  0.2671799999999999  0.55123  0.9546799999999998  1.0000
  C   C185      1.0  0.27634  0.59129  0.0032799999999999995  1.0000
  C   C186      1.0  0.31342999999999993  0.5863799999999999  0.04949  1.0000
  C   C187      1.0  0.33488999999999997  0.50754  0.0006999999999999999  1.0000
  C   C188      1.0  0.38782999999999995  0.26652  0.88215  1.0000
  C   C189      1.0  0.32043  0.21902999999999997  0.90069  1.0000
  C   C190      1.0  0.28053  0.24524  0.9254299999999998  1.0000
  C   C191      1.0  0.3088  0.31725  0.9302799999999998  1.0000
  C   C192      1.0  0.37679  0.362  0.9098099999999998  1.0000
  C   C193      1.0  0.4694399999999999  0.48059  0.9262699999999999  1.0000
  C   C194      1.0  0.48846  0.55376  0.91194  1.0000
  C   C195      1.0  0.55136  0.61429  0.9245  1.0000
  C   C196      1.0  0.56336  0.67813  0.90203  1.0000
  C   C197      1.0  0.51333  0.68  0.8665499999999999  1.0000
  C   C198      1.0  0.45236  0.61733  0.8543699999999997  1.0000
  C   C199      1.0  0.39658999999999994  0.60783  0.81319  1.0000
  C   C200      1.0  0.16042  0.48097  0.7258199999999998  1.0000
  C   C201      1.0  0.2016699999999999  0.45539999999999997  0.70336  1.0000
  C   C202      1.0  0.26629  0.47461000000000003  0.72836  1.0000
  C   C203      1.0  0.28764  0.51865  0.7760799999999998  1.0000
  C   C204      1.0  0.24284  0.54203  0.79592  1.0000
  N   N1        1.0  0.4959299999999999  0.53839  0.19452999999999998  1.0000
  N   N2        1.0  0.45411999999999997  0.41614  0.20501999999999995  1.0000
  N   N3        1.0  0.39144999999999996  0.29009999999999997  0.17567999999999995  1.0000
  N   N4        1.0  0.4645499999999999  0.28916  0.0942  1.0000
  N   N5        1.0  0.54503  0.34229  0.9519499999999997  1.0000
  N   N6        1.0  0.33635999999999994  0.41533999999999993  0.11353999999999999  1.0000
  N   N7        1.0  0.43444999999999995  0.40314  0.09068  1.0000
  N   N8        1.0  0.55695  0.44081  0.12185999999999997  1.0000
  N   N9        1.0  0.53775  0.35007  0.19436  1.0000
  N   N10       1.0  0.52358  0.18088  0.22826999999999997  1.0000
  N   N11       1.0  0.50418  0.0424  0.13877  1.0000
  N   N12       1.0  0.5457699999999999  0.9618899999999999  0.12827  1.0000
  N   N13       1.0  0.60836  0.89863  0.15778  1.0000
  N   N14       1.0  0.5352100000000001  0.8245899999999999  0.23923999999999998  1.0000
  N   N15       1.0  0.45454  0.7971  0.38136  1.0000
  N   N16       1.0  0.66385  0.07927  0.21975999999999996  1.0000
  N   N17       1.0  0.5654999999999998  0.9688299999999999  0.24251  1.0000
  N   N18       1.0  0.4429  0.88352  0.21136999999999995  1.0000
  N   N19       1.0  0.46203999999999995  0.81196  0.13902  1.0000
  N   N20       1.0  0.47662  0.65726  0.10511  1.0000
  N   N21       1.0  0.4615499999999999  0.9574299999999999  0.5277799999999999  1.0000
  N   N22       1.0  0.58387  0.03819  0.5380899999999998  1.0000
  N   N23       1.0  0.70986  0.10151  0.50861  1.0000
  N   N24       1.0  0.71077  0.17561  0.42726  1.0000
  N   N25       1.0  0.65775  0.20306  0.28504  1.0000
  N   N26       1.0  0.5845399999999997  0.92105  0.4468499999999999  1.0000
  N   N27       1.0  0.59692  0.03148999999999999  0.42396  1.0000
  N   N28       1.0  0.55959  0.11667  0.45503  1.0000
  N   N29       1.0  0.65023  0.18813  0.52759  1.0000
  N   N30       1.0  0.8198  0.34288  0.5616099999999999  1.0000
  N   N31       1.0  0.95743  0.46155  0.47222  1.0000
  N   N32       1.0  0.03818000000000001  0.58387  0.4619099999999999  1.0000
  N   N33       1.0  0.10151000000000002  0.70986  0.4913899999999999  1.0000
  N   N34       1.0  0.17561  0.71077  0.57275  1.0000
  N   N35       1.0  0.20306  0.65775  0.7149599999999998  1.0000
  N   N36       1.0  0.92104  0.58454  0.55315  1.0000
  N   N37       1.0  0.03149  0.59692  0.5760399999999999  1.0000
  N   N38       1.0  0.11667  0.55959  0.54497  1.0000
  N   N39       1.0  0.18813000000000002  0.65023  0.4724099999999999  1.0000
  N   N40       1.0  0.34287  0.81981  0.43838999999999995  1.0000
  N   N41       1.0  0.04239999999999998  0.50418  0.8612299999999998  1.0000
  N   N42       1.0  0.96189  0.54577  0.8717299999999998  1.0000
  N   N43       1.0  0.8986299999999999  0.60836  0.84222  1.0000
  N   N44       1.0  0.8245899999999999  0.53522  0.7607599999999999  1.0000
  N   N45       1.0  0.7971  0.45454999999999995  0.6186399999999999  1.0000
  N   N46       1.0  0.07926999999999997  0.66385  0.7802399999999998  1.0000
  N   N47       1.0  0.9688299999999997  0.56551  0.7574899999999999  1.0000
  N   N48       1.0  0.8835199999999999  0.4429  0.7886299999999998  1.0000
  N   N49       1.0  0.81196  0.46205  0.86098  1.0000
  N   N50       1.0  0.6572599999999998  0.47662999999999994  0.89489  1.0000
  N   N51       1.0  0.53839  0.49593  0.80547  1.0000
  N   N52       1.0  0.41613  0.45412  0.79498  1.0000
  N   N53       1.0  0.2901  0.39145  0.82432  1.0000
  N   N54       1.0  0.2891599999999999  0.46455  0.9058099999999999  1.0000
  N   N55       1.0  0.34228  0.54503  0.04804999999999999  1.0000
  N   N56       1.0  0.41534  0.33636  0.88646  1.0000
  N   N57       1.0  0.40314  0.43446  0.9093199999999998  1.0000
  N   N58       1.0  0.4408099999999999  0.55695  0.8781399999999998  1.0000
  N   N59       1.0  0.35007  0.53776  0.8056399999999998  1.0000
  N   N60       1.0  0.18088  0.52359  0.77173  1.0000
  Cl  Cl1       1.0  0.33347  0.55653  0.20461  1.0000
  Cl  Cl2       1.0  0.66646  0.22383999999999998  0.12864  1.0000
  Cl  Cl3       1.0  0.44294  0.77656  0.538  1.0000
  Cl  Cl4       1.0  0.77655  0.44294000000000006  0.462  1.0000
  Cl  Cl5       1.0  0.22384  0.66646  0.8713599999999998  1.0000
  Cl  Cl6       1.0  0.55653  0.33347  0.7953899999999999  1.0000
  O   O1        1.0  0.3766599999999999  0.39683  0.28035999999999994  1.0000
  O   O2        1.0  0.3971  0.16701  0.08292999999999999  1.0000
  O   O3        1.0  0.46697999999999995  0.51292  0.05122999999999999  1.0000
  O   O4        1.0  0.65772  0.39644  0.21106  1.0000
  O   O5        1.0  0.62447  0.02171  0.05399999999999999  1.0000
  O   O6        1.0  0.60303  0.77059  0.25128  1.0000
  O   O7        1.0  0.53292  0.04559  0.28274999999999995  1.0000
  O   O8        1.0  0.34218  0.73662  0.12342999999999997  1.0000
  O   O9        1.0  0.60252  0.97784  0.61194  1.0000
  O   O10       1.0  0.8324699999999999  0.2284  0.41432999999999987  1.0000
  O   O11       1.0  0.4867899999999999  0.9539499999999999  0.38511  1.0000
  O   O12       1.0  0.60595  0.26371  0.54251  1.0000
  O   O13       1.0  0.97784  0.60252  0.38806999999999997  1.0000
  O   O14       1.0  0.22839999999999996  0.83247  0.58568  1.0000
  O   O15       1.0  0.95395  0.48679999999999995  0.6149  1.0000
  O   O16       1.0  0.26371  0.60595  0.4574899999999999  1.0000
  O   O17       1.0  0.021709999999999993  0.62448  0.946  1.0000
  O   O18       1.0  0.77059  0.60303  0.74872  1.0000
  O   O19       1.0  0.04558000000000001  0.53292  0.7172499999999998  1.0000
  O   O20       1.0  0.7366199999999999  0.34218  0.8765699999999997  1.0000
  O   O21       1.0  0.39682999999999996  0.37666  0.7196399999999997  1.0000
  O   O22       1.0  0.16701  0.3971  0.9170699999999999  1.0000
  O   O23       1.0  0.51292  0.46699  0.9487699999999998  1.0000
  O   O24       1.0  0.39644  0.65773  0.7889399999999999  1.0000
