data_image0
_chemical_formula_structural       Zn32H128C240O112
_chemical_formula_sum              "Zn32 H128 C240 O112"
_cell_length_a       16.36997
_cell_length_b       16.36997
_cell_length_c       30.50704
_cell_angle_alpha    90.0
_cell_angle_beta     90.0
_cell_angle_gamma    90.0

_space_group_name_H-M_alt    "P 1"
_space_group_IT_number       1

loop_
  _space_group_symop_operation_xyz
  'x, y, z'

loop_
  _atom_site_type_symbol
  _atom_site_label
  _atom_site_symmetry_multiplicity
  _atom_site_fract_x
  _atom_site_fract_y
  _atom_site_fract_z
  _atom_site_occupancy
  Zn  Zn1       1.0  0.62815  0.89117  0.7925  1.0000
  Zn  Zn2       1.0  0.62436  0.8897099999999998  0.8991299999999998  1.0000
  Zn  Zn3       1.0  0.87185  0.6088299999999998  0.7925  1.0000
  Zn  Zn4       1.0  0.87564  0.61029  0.8991299999999998  1.0000
  Zn  Zn5       1.0  0.6088299999999998  0.62815  0.7925  1.0000
  Zn  Zn6       1.0  0.61029  0.62436  0.8991299999999998  1.0000
  Zn  Zn7       1.0  0.89117  0.87185  0.7925  1.0000
  Zn  Zn8       1.0  0.8897099999999998  0.87564  0.8991299999999998  1.0000
  Zn  Zn9       1.0  0.37185  0.3911699999999999  0.7075  1.0000
  Zn  Zn10      1.0  0.37564  0.38971  0.6008699999999998  1.0000
  Zn  Zn11      1.0  0.12815  0.10882999999999997  0.7075  1.0000
  Zn  Zn12      1.0  0.12436  0.11028999999999997  0.6008699999999998  1.0000
  Zn  Zn13      1.0  0.3911699999999999  0.12815  0.7075  1.0000
  Zn  Zn14      1.0  0.38971  0.12436  0.6008699999999998  1.0000
  Zn  Zn15      1.0  0.10882999999999997  0.37185  0.7075  1.0000
  Zn  Zn16      1.0  0.11028999999999997  0.37564  0.6008699999999998  1.0000
  Zn  Zn17      1.0  0.37185  0.10882999999999997  0.20749999999999993  1.0000
  Zn  Zn18      1.0  0.37564  0.11028999999999997  0.10087  1.0000
  Zn  Zn19      1.0  0.12815  0.3911699999999999  0.20749999999999993  1.0000
  Zn  Zn20      1.0  0.12436  0.38971  0.10087  1.0000
  Zn  Zn21      1.0  0.3911699999999999  0.37185  0.20749999999999993  1.0000
  Zn  Zn22      1.0  0.38971  0.37564  0.10087  1.0000
  Zn  Zn23      1.0  0.10882999999999997  0.12815  0.20749999999999993  1.0000
  Zn  Zn24      1.0  0.11028999999999997  0.12436  0.10087  1.0000
  Zn  Zn25      1.0  0.62815  0.6088299999999998  0.2925  1.0000
  Zn  Zn26      1.0  0.62436  0.61029  0.3991299999999999  1.0000
  Zn  Zn27      1.0  0.87185  0.89117  0.2925  1.0000
  Zn  Zn28      1.0  0.87564  0.8897099999999998  0.3991299999999999  1.0000
  Zn  Zn29      1.0  0.6088299999999998  0.87185  0.2925  1.0000
  Zn  Zn30      1.0  0.61029  0.87564  0.3991299999999999  1.0000
  Zn  Zn31      1.0  0.89117  0.62815  0.2925  1.0000
  Zn  Zn32      1.0  0.8897099999999998  0.62436  0.3991299999999999  1.0000
  H   H1        1.0  0.39067  0.97842  0.9142899999999998  1.0000
  H   H2        1.0  0.17710999999999993  0.05418999999999999  0.842  1.0000
  H   H3        1.0  0.4040699999999999  0.00861  0.77483  1.0000
  H   H4        1.0  0.32612999999999986  0.05894999999999999  0.9663299999999998  1.0000
  H   H5        1.0  0.10361  0.99613  0.03317  1.0000
  H   H6        1.0  0.04131  0.95398  0.9618799999999997  1.0000
  H   H7        1.0  0.12032  0.9653899999999997  0.8934499999999997  1.0000
  H   H8        1.0  0.73537  0.8463  0.8468199999999998  1.0000
  H   H9        1.0  0.10933  0.5215699999999999  0.9142899999999998  1.0000
  H   H10       1.0  0.3228899999999999  0.44581  0.842  1.0000
  H   H11       1.0  0.09593  0.49139  0.77483  1.0000
  H   H12       1.0  0.17386999999999994  0.4410499999999999  0.9663299999999998  1.0000
  H   H13       1.0  0.39639  0.5038699999999998  0.03317  1.0000
  H   H14       1.0  0.4586899999999999  0.5460199999999997  0.9618799999999997  1.0000
  H   H15       1.0  0.3796799999999999  0.53461  0.8934499999999997  1.0000
  H   H16       1.0  0.76463  0.6536999999999997  0.8468199999999998  1.0000
  H   H17       1.0  0.5215699999999999  0.39067  0.9142899999999998  1.0000
  H   H18       1.0  0.44581  0.17710999999999993  0.842  1.0000
  H   H19       1.0  0.49139  0.4040699999999999  0.77483  1.0000
  H   H20       1.0  0.4410499999999999  0.32612999999999986  0.9663299999999998  1.0000
  H   H21       1.0  0.5038699999999998  0.10361  0.03317  1.0000
  H   H22       1.0  0.5460199999999997  0.04131  0.9618799999999997  1.0000
  H   H23       1.0  0.53461  0.12032  0.8934499999999997  1.0000
  H   H24       1.0  0.6536999999999997  0.73537  0.8468199999999998  1.0000
  H   H25       1.0  0.97842  0.10933  0.9142899999999998  1.0000
  H   H26       1.0  0.05418999999999999  0.3228899999999999  0.842  1.0000
  H   H27       1.0  0.00861  0.09593  0.77483  1.0000
  H   H28       1.0  0.05894999999999999  0.17386999999999994  0.9663299999999998  1.0000
  H   H29       1.0  0.99613  0.39639  0.03317  1.0000
  H   H30       1.0  0.95398  0.4586899999999999  0.9618799999999997  1.0000
  H   H31       1.0  0.9653899999999997  0.3796799999999999  0.8934499999999997  1.0000
  H   H32       1.0  0.8463  0.76463  0.8468199999999998  1.0000
  H   H33       1.0  0.60933  0.4784299999999999  0.5857099999999997  1.0000
  H   H34       1.0  0.82289  0.55419  0.65801  1.0000
  H   H35       1.0  0.5959299999999997  0.5086099999999998  0.7251799999999998  1.0000
  H   H36       1.0  0.6738699999999997  0.5589499999999998  0.5336699999999998  1.0000
  H   H37       1.0  0.8963799999999997  0.49612999999999996  0.4668299999999999  1.0000
  H   H38       1.0  0.95869  0.4539799999999999  0.53813  1.0000
  H   H39       1.0  0.87968  0.46539  0.60656  1.0000
  H   H40       1.0  0.26463  0.3463  0.65319  1.0000
  H   H41       1.0  0.89067  0.02157  0.5857099999999997  1.0000
  H   H42       1.0  0.6771099999999998  0.94581  0.65801  1.0000
  H   H43       1.0  0.90407  0.9913899999999999  0.7251799999999998  1.0000
  H   H44       1.0  0.82613  0.94105  0.5336699999999998  1.0000
  H   H45       1.0  0.60361  0.00387  0.4668299999999999  1.0000
  H   H46       1.0  0.5413099999999997  0.04602  0.53813  1.0000
  H   H47       1.0  0.6203199999999998  0.03461  0.60656  1.0000
  H   H48       1.0  0.23537  0.1537  0.65319  1.0000
  H   H49       1.0  0.4784299999999999  0.89067  0.5857099999999997  1.0000
  H   H50       1.0  0.55419  0.6771099999999998  0.65801  1.0000
  H   H51       1.0  0.5086099999999998  0.90407  0.7251799999999998  1.0000
  H   H52       1.0  0.5589499999999998  0.82613  0.5336699999999998  1.0000
  H   H53       1.0  0.49612999999999996  0.60361  0.4668299999999999  1.0000
  H   H54       1.0  0.4539799999999999  0.5413099999999997  0.53813  1.0000
  H   H55       1.0  0.46539  0.6203199999999998  0.60656  1.0000
  H   H56       1.0  0.3463  0.23537  0.65319  1.0000
  H   H57       1.0  0.02157  0.60933  0.5857099999999997  1.0000
  H   H58       1.0  0.94581  0.82289  0.65801  1.0000
  H   H59       1.0  0.9913899999999999  0.5959299999999997  0.7251799999999998  1.0000
  H   H60       1.0  0.94105  0.6738699999999997  0.5336699999999998  1.0000
  H   H61       1.0  0.00387  0.8963799999999997  0.4668299999999999  1.0000
  H   H62       1.0  0.04602  0.95869  0.53813  1.0000
  H   H63       1.0  0.03461  0.87968  0.60656  1.0000
  H   H64       1.0  0.1537  0.26463  0.65319  1.0000
  H   H65       1.0  0.60933  0.02157  0.08570999999999997  1.0000
  H   H66       1.0  0.82289  0.94581  0.15799999999999995  1.0000
  H   H67       1.0  0.5959299999999997  0.9913899999999999  0.22518  1.0000
  H   H68       1.0  0.6738699999999997  0.94105  0.033669999999999985  1.0000
  H   H69       1.0  0.8963799999999997  0.00387  0.9668299999999997  1.0000
  H   H70       1.0  0.95869  0.04602  0.03811999999999999  1.0000
  H   H71       1.0  0.87968  0.03461  0.10656  1.0000
  H   H72       1.0  0.26463  0.1537  0.15318  1.0000
  H   H73       1.0  0.89067  0.4784299999999999  0.08570999999999997  1.0000
  H   H74       1.0  0.6771099999999998  0.55419  0.15799999999999995  1.0000
  H   H75       1.0  0.90407  0.5086099999999998  0.22518  1.0000
  H   H76       1.0  0.82613  0.5589499999999998  0.033669999999999985  1.0000
  H   H77       1.0  0.60361  0.49612999999999996  0.9668299999999997  1.0000
  H   H78       1.0  0.5413099999999997  0.4539799999999999  0.03811999999999999  1.0000
  H   H79       1.0  0.6203199999999998  0.46539  0.10656  1.0000
  H   H80       1.0  0.23537  0.3463  0.15318  1.0000
  H   H81       1.0  0.4784299999999999  0.60933  0.08570999999999997  1.0000
  H   H82       1.0  0.55419  0.82289  0.15799999999999995  1.0000
  H   H83       1.0  0.5086099999999998  0.5959299999999997  0.22518  1.0000
  H   H84       1.0  0.5589499999999998  0.6738699999999997  0.033669999999999985  1.0000
  H   H85       1.0  0.49612999999999996  0.8963799999999997  0.9668299999999997  1.0000
  H   H86       1.0  0.4539799999999999  0.95869  0.03811999999999999  1.0000
  H   H87       1.0  0.46539  0.87968  0.10656  1.0000
  H   H88       1.0  0.3463  0.26463  0.15318  1.0000
  H   H89       1.0  0.02157  0.89067  0.08570999999999997  1.0000
  H   H90       1.0  0.94581  0.6771099999999998  0.15799999999999995  1.0000
  H   H91       1.0  0.9913899999999999  0.90407  0.22518  1.0000
  H   H92       1.0  0.94105  0.82613  0.033669999999999985  1.0000
  H   H93       1.0  0.00387  0.60361  0.9668299999999997  1.0000
  H   H94       1.0  0.04602  0.5413099999999997  0.03811999999999999  1.0000
  H   H95       1.0  0.03461  0.6203199999999998  0.10656  1.0000
  H   H96       1.0  0.1537  0.23537  0.15318  1.0000
  H   H97       1.0  0.39067  0.5215699999999999  0.41428999999999994  1.0000
  H   H98       1.0  0.17710999999999993  0.44581  0.3419999999999999  1.0000
  H   H99       1.0  0.4040699999999999  0.49139  0.27483  1.0000
  H   H100      1.0  0.32612999999999986  0.4410499999999999  0.4663299999999999  1.0000
  H   H101      1.0  0.10361  0.5038699999999998  0.5331699999999998  1.0000
  H   H102      1.0  0.04131  0.5460199999999997  0.46188  1.0000
  H   H103      1.0  0.12032  0.53461  0.3934399999999999  1.0000
  H   H104      1.0  0.73537  0.6536999999999997  0.34682  1.0000
  H   H105      1.0  0.10933  0.97842  0.41428999999999994  1.0000
  H   H106      1.0  0.3228899999999999  0.05418999999999999  0.3419999999999999  1.0000
  H   H107      1.0  0.09593  0.00861  0.27483  1.0000
  H   H108      1.0  0.17386999999999994  0.05894999999999999  0.4663299999999999  1.0000
  H   H109      1.0  0.39639  0.99613  0.5331699999999998  1.0000
  H   H110      1.0  0.4586899999999999  0.95398  0.46188  1.0000
  H   H111      1.0  0.3796799999999999  0.9653899999999997  0.3934399999999999  1.0000
  H   H112      1.0  0.76463  0.8463  0.34682  1.0000
  H   H113      1.0  0.5215699999999999  0.10933  0.41428999999999994  1.0000
  H   H114      1.0  0.44581  0.3228899999999999  0.3419999999999999  1.0000
  H   H115      1.0  0.49139  0.09593  0.27483  1.0000
  H   H116      1.0  0.4410499999999999  0.17386999999999994  0.4663299999999999  1.0000
  H   H117      1.0  0.5038699999999998  0.39639  0.5331699999999998  1.0000
  H   H118      1.0  0.5460199999999997  0.4586899999999999  0.46188  1.0000
  H   H119      1.0  0.53461  0.3796799999999999  0.3934399999999999  1.0000
  H   H120      1.0  0.6536999999999997  0.76463  0.34682  1.0000
  H   H121      1.0  0.97842  0.39067  0.41428999999999994  1.0000
  H   H122      1.0  0.05418999999999999  0.17710999999999993  0.3419999999999999  1.0000
  H   H123      1.0  0.00861  0.4040699999999999  0.27483  1.0000
  H   H124      1.0  0.05894999999999999  0.32612999999999986  0.4663299999999999  1.0000
  H   H125      1.0  0.99613  0.10361  0.5331699999999998  1.0000
  H   H126      1.0  0.95398  0.04131  0.46188  1.0000
  H   H127      1.0  0.9653899999999997  0.12032  0.3934399999999999  1.0000
  H   H128      1.0  0.8463  0.73537  0.34682  1.0000
  C   C1        1.0  0.40583999999999987  0.99214  0.8448  1.0000
  C   C2        1.0  0.3606999999999999  0.9952399999999999  0.8837999999999998  1.0000
  C   C3        1.0  0.27756  0.01623  0.88365  1.0000
  C   C4        1.0  0.2411  0.03642999999999998  0.8434799999999998  1.0000
  C   C5        1.0  0.28639  0.03522  0.80443  1.0000
  C   C6        1.0  0.3687199999999999  0.012299999999999997  0.8049099999999998  1.0000
  C   C7        1.0  0.24522  0.058189999999999985  0.7627999999999998  1.0000
  C   C8        1.0  0.22906999999999994  0.01334  0.9246  1.0000
  C   C9        1.0  0.26392  0.03573  0.9648499999999998  1.0000
  C   C10       1.0  0.21855  0.0304  0.003769999999999999  1.0000
  C   C11       1.0  0.13787999999999995  0.00153  0.00276  1.0000
  C   C12       1.0  0.10296  0.97863  0.9629199999999998  1.0000
  C   C13       1.0  0.14794999999999994  0.98489  0.9241699999999998  1.0000
  C   C14       1.0  0.25702  0.05541  0.04577  1.0000
  C   C15       1.0  0.4926  0.9636  0.84571  1.0000
  C   C16       1.0  0.09415999999999998  0.50785  0.8448  1.0000
  C   C17       1.0  0.1393  0.50476  0.8837999999999998  1.0000
  C   C18       1.0  0.22244  0.48377  0.88365  1.0000
  C   C19       1.0  0.2589  0.46357  0.8434799999999998  1.0000
  C   C20       1.0  0.21360999999999994  0.46478  0.80443  1.0000
  C   C21       1.0  0.13128  0.4877  0.8049099999999998  1.0000
  C   C22       1.0  0.25478  0.44181  0.7627999999999998  1.0000
  C   C23       1.0  0.2709299999999999  0.48666  0.9246  1.0000
  C   C24       1.0  0.23608  0.46427  0.9648499999999998  1.0000
  C   C25       1.0  0.28145  0.4695999999999999  0.003769999999999999  1.0000
  C   C26       1.0  0.3621199999999999  0.49847  0.00276  1.0000
  C   C27       1.0  0.3970399999999999  0.52137  0.9629199999999998  1.0000
  C   C28       1.0  0.35204999999999986  0.51511  0.9241699999999998  1.0000
  C   C29       1.0  0.24298  0.44459  0.04577  1.0000
  C   C30       1.0  0.0074  0.5364  0.84571  1.0000
  C   C31       1.0  0.50785  0.40583999999999987  0.8448  1.0000
  C   C32       1.0  0.50476  0.3606999999999999  0.8837999999999998  1.0000
  C   C33       1.0  0.48377  0.27756  0.88365  1.0000
  C   C34       1.0  0.46357  0.2411  0.8434799999999998  1.0000
  C   C35       1.0  0.46478  0.28639  0.80443  1.0000
  C   C36       1.0  0.4877  0.3687199999999999  0.8049099999999998  1.0000
  C   C37       1.0  0.44181  0.24522  0.7627999999999998  1.0000
  C   C38       1.0  0.48666  0.22906999999999994  0.9246  1.0000
  C   C39       1.0  0.46427  0.26392  0.9648499999999998  1.0000
  C   C40       1.0  0.4695999999999999  0.21855  0.003769999999999999  1.0000
  C   C41       1.0  0.49847  0.13787999999999995  0.00276  1.0000
  C   C42       1.0  0.52137  0.10296  0.9629199999999998  1.0000
  C   C43       1.0  0.51511  0.14794999999999994  0.9241699999999998  1.0000
  C   C44       1.0  0.44459  0.25702  0.04577  1.0000
  C   C45       1.0  0.5364  0.4926  0.84571  1.0000
  C   C46       1.0  0.99214  0.09415999999999998  0.8448  1.0000
  C   C47       1.0  0.9952399999999999  0.1393  0.8837999999999998  1.0000
  C   C48       1.0  0.01623  0.22242999999999993  0.88365  1.0000
  C   C49       1.0  0.03642999999999998  0.2589  0.8434799999999998  1.0000
  C   C50       1.0  0.03522  0.21360999999999994  0.80443  1.0000
  C   C51       1.0  0.012299999999999997  0.13128  0.8049099999999998  1.0000
  C   C52       1.0  0.058189999999999985  0.25478  0.7627999999999998  1.0000
  C   C53       1.0  0.01334  0.2709299999999999  0.9246  1.0000
  C   C54       1.0  0.03573  0.23608  0.9648499999999998  1.0000
  C   C55       1.0  0.0304  0.28145  0.003769999999999999  1.0000
  C   C56       1.0  0.00153  0.3621199999999999  0.00276  1.0000
  C   C57       1.0  0.97863  0.3970399999999999  0.9629199999999998  1.0000
  C   C58       1.0  0.98489  0.35204999999999986  0.9241699999999998  1.0000
  C   C59       1.0  0.05541  0.24298  0.04577  1.0000
  C   C60       1.0  0.9636  0.0074  0.84571  1.0000
  C   C61       1.0  0.5941599999999998  0.49213999999999997  0.6552  1.0000
  C   C62       1.0  0.6392999999999998  0.49524  0.6161999999999997  1.0000
  C   C63       1.0  0.72243  0.51623  0.61635  1.0000
  C   C64       1.0  0.7588999999999998  0.53643  0.6565199999999998  1.0000
  C   C65       1.0  0.71361  0.53521  0.69558  1.0000
  C   C66       1.0  0.63128  0.5123  0.6950899999999998  1.0000
  C   C67       1.0  0.75478  0.55819  0.7372099999999998  1.0000
  C   C68       1.0  0.77093  0.51334  0.5754  1.0000
  C   C69       1.0  0.73608  0.53573  0.53516  1.0000
  C   C70       1.0  0.78145  0.5303999999999998  0.4962399999999999  1.0000
  C   C71       1.0  0.8621199999999998  0.50153  0.4972399999999999  1.0000
  C   C72       1.0  0.89704  0.4786299999999999  0.53709  1.0000
  C   C73       1.0  0.85205  0.48489  0.57584  1.0000
  C   C74       1.0  0.7429799999999999  0.55541  0.45423  1.0000
  C   C75       1.0  0.5074  0.4636  0.6543  1.0000
  C   C76       1.0  0.90583  0.00786  0.6552  1.0000
  C   C77       1.0  0.8607  0.00476  0.6161999999999997  1.0000
  C   C78       1.0  0.77756  0.98377  0.61635  1.0000
  C   C79       1.0  0.7411  0.96357  0.6565199999999998  1.0000
  C   C80       1.0  0.78639  0.9647799999999997  0.69558  1.0000
  C   C81       1.0  0.8687199999999998  0.9876999999999999  0.6950899999999998  1.0000
  C   C82       1.0  0.74522  0.94181  0.7372099999999998  1.0000
  C   C83       1.0  0.7290699999999998  0.98666  0.5754  1.0000
  C   C84       1.0  0.76392  0.96427  0.53516  1.0000
  C   C85       1.0  0.7185499999999998  0.9696  0.4962399999999999  1.0000
  C   C86       1.0  0.63788  0.99847  0.4972399999999999  1.0000
  C   C87       1.0  0.6029599999999998  0.02137  0.53709  1.0000
  C   C88       1.0  0.6479499999999998  0.015109999999999997  0.57584  1.0000
  C   C89       1.0  0.75702  0.94459  0.45423  1.0000
  C   C90       1.0  0.9926  0.0364  0.6543  1.0000
  C   C91       1.0  0.49213999999999997  0.90583  0.6552  1.0000
  C   C92       1.0  0.49524  0.8607  0.6161999999999997  1.0000
  C   C93       1.0  0.51623  0.77756  0.61635  1.0000
  C   C94       1.0  0.53643  0.7411  0.6565199999999998  1.0000
  C   C95       1.0  0.53521  0.78639  0.69558  1.0000
  C   C96       1.0  0.5123  0.8687199999999998  0.6950899999999998  1.0000
  C   C97       1.0  0.55819  0.74522  0.7372099999999998  1.0000
  C   C98       1.0  0.51334  0.7290699999999998  0.5754  1.0000
  C   C99       1.0  0.53573  0.76392  0.53516  1.0000
  C   C100      1.0  0.5303999999999998  0.7185499999999998  0.4962399999999999  1.0000
  C   C101      1.0  0.50153  0.63788  0.4972399999999999  1.0000
  C   C102      1.0  0.4786299999999999  0.6029599999999998  0.53709  1.0000
  C   C103      1.0  0.48489  0.6479499999999998  0.57584  1.0000
  C   C104      1.0  0.55541  0.75702  0.45423  1.0000
  C   C105      1.0  0.4636  0.9926  0.6543  1.0000
  C   C106      1.0  0.00786  0.5941599999999998  0.6552  1.0000
  C   C107      1.0  0.00476  0.6392999999999998  0.6161999999999997  1.0000
  C   C108      1.0  0.98377  0.72243  0.61635  1.0000
  C   C109      1.0  0.96357  0.7588999999999998  0.6565199999999998  1.0000
  C   C110      1.0  0.9647799999999997  0.71361  0.69558  1.0000
  C   C111      1.0  0.9876999999999999  0.63128  0.6950899999999998  1.0000
  C   C112      1.0  0.94181  0.75478  0.7372099999999998  1.0000
  C   C113      1.0  0.98666  0.77093  0.5754  1.0000
  C   C114      1.0  0.96427  0.73608  0.53516  1.0000
  C   C115      1.0  0.9696  0.78145  0.4962399999999999  1.0000
  C   C116      1.0  0.99847  0.8621199999999998  0.4972399999999999  1.0000
  C   C117      1.0  0.02137  0.89704  0.53709  1.0000
  C   C118      1.0  0.015109999999999997  0.85205  0.57584  1.0000
  C   C119      1.0  0.94459  0.7429799999999999  0.45423  1.0000
  C   C120      1.0  0.0364  0.5074  0.6543  1.0000
  C   C121      1.0  0.5941599999999998  0.00786  0.1552  1.0000
  C   C122      1.0  0.6392999999999998  0.00476  0.1162  1.0000
  C   C123      1.0  0.72243  0.98377  0.11634999999999997  1.0000
  C   C124      1.0  0.7588999999999998  0.96357  0.15652  1.0000
  C   C125      1.0  0.71361  0.9647799999999997  0.19558  1.0000
  C   C126      1.0  0.63128  0.9876999999999999  0.19508999999999996  1.0000
  C   C127      1.0  0.75478  0.94181  0.23721  1.0000
  C   C128      1.0  0.77093  0.98666  0.0754  1.0000
  C   C129      1.0  0.73608  0.96427  0.03515999999999998  1.0000
  C   C130      1.0  0.78145  0.9696  0.99624  1.0000
  C   C131      1.0  0.8621199999999998  0.99847  0.99724  1.0000
  C   C132      1.0  0.89704  0.02137  0.03709  1.0000
  C   C133      1.0  0.85205  0.015109999999999997  0.07583999999999998  1.0000
  C   C134      1.0  0.7429799999999999  0.94459  0.9542299999999998  1.0000
  C   C135      1.0  0.5074  0.0364  0.15429999999999994  1.0000
  C   C136      1.0  0.90583  0.49213999999999997  0.1552  1.0000
  C   C137      1.0  0.8607  0.49524  0.1162  1.0000
  C   C138      1.0  0.77756  0.51623  0.11634999999999997  1.0000
  C   C139      1.0  0.7411  0.53643  0.15652  1.0000
  C   C140      1.0  0.78639  0.53521  0.19558  1.0000
  C   C141      1.0  0.8687199999999998  0.5123  0.19508999999999996  1.0000
  C   C142      1.0  0.74522  0.55819  0.23721  1.0000
  C   C143      1.0  0.7290699999999998  0.51334  0.0754  1.0000
  C   C144      1.0  0.76392  0.53573  0.03515999999999998  1.0000
  C   C145      1.0  0.7185499999999998  0.5303999999999998  0.99624  1.0000
  C   C146      1.0  0.63788  0.50153  0.99724  1.0000
  C   C147      1.0  0.6029599999999998  0.4786299999999999  0.03709  1.0000
  C   C148      1.0  0.6479499999999998  0.48489  0.07583999999999998  1.0000
  C   C149      1.0  0.75702  0.55541  0.9542299999999998  1.0000
  C   C150      1.0  0.9926  0.4636  0.15429999999999994  1.0000
  C   C151      1.0  0.49213999999999997  0.5941599999999998  0.1552  1.0000
  C   C152      1.0  0.49524  0.6392999999999998  0.1162  1.0000
  C   C153      1.0  0.51623  0.72243  0.11634999999999997  1.0000
  C   C154      1.0  0.53643  0.7588999999999998  0.15652  1.0000
  C   C155      1.0  0.53521  0.71361  0.19558  1.0000
  C   C156      1.0  0.5123  0.63128  0.19508999999999996  1.0000
  C   C157      1.0  0.55819  0.75478  0.23721  1.0000
  C   C158      1.0  0.51334  0.77093  0.0754  1.0000
  C   C159      1.0  0.53573  0.73608  0.03515999999999998  1.0000
  C   C160      1.0  0.5303999999999998  0.78145  0.99624  1.0000
  C   C161      1.0  0.50153  0.8621199999999998  0.99724  1.0000
  C   C162      1.0  0.4786299999999999  0.89704  0.03709  1.0000
  C   C163      1.0  0.48489  0.85205  0.07583999999999998  1.0000
  C   C164      1.0  0.55541  0.7429799999999999  0.9542299999999998  1.0000
  C   C165      1.0  0.4636  0.5074  0.15429999999999994  1.0000
  C   C166      1.0  0.00786  0.90583  0.1552  1.0000
  C   C167      1.0  0.00476  0.8607  0.1162  1.0000
  C   C168      1.0  0.98377  0.77756  0.11634999999999997  1.0000
  C   C169      1.0  0.96357  0.7411  0.15652  1.0000
  C   C170      1.0  0.9647799999999997  0.78639  0.19558  1.0000
  C   C171      1.0  0.9876999999999999  0.8687199999999998  0.19508999999999996  1.0000
  C   C172      1.0  0.94181  0.74522  0.23721  1.0000
  C   C173      1.0  0.98666  0.7290699999999998  0.0754  1.0000
  C   C174      1.0  0.96427  0.76392  0.03515999999999998  1.0000
  C   C175      1.0  0.9696  0.7185499999999998  0.99624  1.0000
  C   C176      1.0  0.99847  0.63788  0.99724  1.0000
  C   C177      1.0  0.02137  0.6029599999999998  0.03709  1.0000
  C   C178      1.0  0.015109999999999997  0.6479499999999998  0.07583999999999998  1.0000
  C   C179      1.0  0.94459  0.75702  0.9542299999999998  1.0000
  C   C180      1.0  0.0364  0.9926  0.15429999999999994  1.0000
  C   C181      1.0  0.40583999999999987  0.50785  0.3448  1.0000
  C   C182      1.0  0.3606999999999999  0.50476  0.38379999999999986  1.0000
  C   C183      1.0  0.27756  0.48377  0.3836499999999999  1.0000
  C   C184      1.0  0.2411  0.46357  0.34348  1.0000
  C   C185      1.0  0.28639  0.46478  0.30442999999999987  1.0000
  C   C186      1.0  0.3687199999999999  0.4877  0.3049099999999999  1.0000
  C   C187      1.0  0.24522  0.44181  0.26279  1.0000
  C   C188      1.0  0.22906999999999994  0.48666  0.42459999999999987  1.0000
  C   C189      1.0  0.26392  0.46427  0.46485  1.0000
  C   C190      1.0  0.21855  0.4695999999999999  0.50377  1.0000
  C   C191      1.0  0.13787999999999995  0.49847  0.50276  1.0000
  C   C192      1.0  0.10296  0.52137  0.4629099999999999  1.0000
  C   C193      1.0  0.14794999999999994  0.51511  0.42417  1.0000
  C   C194      1.0  0.25702  0.44459  0.54577  1.0000
  C   C195      1.0  0.4926  0.5364  0.3457099999999999  1.0000
  C   C196      1.0  0.09415999999999998  0.99214  0.3448  1.0000
  C   C197      1.0  0.1393  0.9952399999999999  0.38379999999999986  1.0000
  C   C198      1.0  0.22242999999999993  0.01623  0.3836499999999999  1.0000
  C   C199      1.0  0.2589  0.03642999999999998  0.34348  1.0000
  C   C200      1.0  0.21360999999999994  0.03522  0.30442999999999987  1.0000
  C   C201      1.0  0.13128  0.012299999999999997  0.3049099999999999  1.0000
  C   C202      1.0  0.25478  0.058189999999999985  0.26279  1.0000
  C   C203      1.0  0.2709299999999999  0.01334  0.42459999999999987  1.0000
  C   C204      1.0  0.23608  0.03573  0.46485  1.0000
  C   C205      1.0  0.28145  0.0304  0.50377  1.0000
  C   C206      1.0  0.3621199999999999  0.00153  0.50276  1.0000
  C   C207      1.0  0.3970399999999999  0.97863  0.4629099999999999  1.0000
  C   C208      1.0  0.35204999999999986  0.98489  0.42417  1.0000
  C   C209      1.0  0.24298  0.05541  0.54577  1.0000
  C   C210      1.0  0.0074  0.9636  0.3457099999999999  1.0000
  C   C211      1.0  0.50785  0.09415999999999998  0.3448  1.0000
  C   C212      1.0  0.50476  0.1393  0.38379999999999986  1.0000
  C   C213      1.0  0.48377  0.22242999999999993  0.3836499999999999  1.0000
  C   C214      1.0  0.46357  0.2589  0.34348  1.0000
  C   C215      1.0  0.46478  0.21360999999999994  0.30442999999999987  1.0000
  C   C216      1.0  0.4877  0.13128  0.3049099999999999  1.0000
  C   C217      1.0  0.44181  0.25478  0.26279  1.0000
  C   C218      1.0  0.48666  0.2709299999999999  0.42459999999999987  1.0000
  C   C219      1.0  0.46427  0.23608  0.46485  1.0000
  C   C220      1.0  0.4695999999999999  0.28145  0.50377  1.0000
  C   C221      1.0  0.49847  0.3621199999999999  0.50276  1.0000
  C   C222      1.0  0.52137  0.3970399999999999  0.4629099999999999  1.0000
  C   C223      1.0  0.51511  0.35204999999999986  0.42417  1.0000
  C   C224      1.0  0.44459  0.24298  0.54577  1.0000
  C   C225      1.0  0.5364  0.0074  0.3457099999999999  1.0000
  C   C226      1.0  0.99214  0.40583999999999987  0.3448  1.0000
  C   C227      1.0  0.9952399999999999  0.3606999999999999  0.38379999999999986  1.0000
  C   C228      1.0  0.01623  0.27756  0.3836499999999999  1.0000
  C   C229      1.0  0.03642999999999998  0.2411  0.34348  1.0000
  C   C230      1.0  0.03522  0.28639  0.30442999999999987  1.0000
  C   C231      1.0  0.012299999999999997  0.3687199999999999  0.3049099999999999  1.0000
  C   C232      1.0  0.058189999999999985  0.24522  0.26279  1.0000
  C   C233      1.0  0.01334  0.22906999999999994  0.42459999999999987  1.0000
  C   C234      1.0  0.03573  0.26392  0.46485  1.0000
  C   C235      1.0  0.0304  0.21855  0.50377  1.0000
  C   C236      1.0  0.00153  0.13787999999999995  0.50276  1.0000
  C   C237      1.0  0.97863  0.10296  0.4629099999999999  1.0000
  C   C238      1.0  0.98489  0.14794999999999994  0.42417  1.0000
  C   C239      1.0  0.05541  0.25702  0.54577  1.0000
  C   C240      1.0  0.9636  0.4926  0.3457099999999999  1.0000
  O   O1        1.0  0.28518  0.07923999999999998  0.7287199999999998  1.0000
  O   O2        1.0  0.16683999999999993  0.05634999999999998  0.76207  1.0000
  O   O3        1.0  0.3356  0.05992999999999998  0.046609999999999985  1.0000
  O   O4        1.0  0.21509  0.07133  0.07990999999999997  1.0000
  O   O5        1.0  0.6745999999999998  0.84522  0.84644  1.0000
  O   O6        1.0  0.5277099999999998  0.9525899999999998  0.80887  1.0000
  O   O7        1.0  0.52439  0.9523  0.88358  1.0000
  O   O8        1.0  0.21480999999999995  0.4207599999999999  0.7287199999999998  1.0000
  O   O9        1.0  0.3331599999999999  0.4436499999999999  0.76207  1.0000
  O   O10       1.0  0.1644  0.44007  0.046609999999999985  1.0000
  O   O11       1.0  0.28491  0.42867  0.07990999999999997  1.0000
  O   O12       1.0  0.8254  0.6547699999999997  0.84644  1.0000
  O   O13       1.0  0.97229  0.54741  0.80887  1.0000
  O   O14       1.0  0.97561  0.5476999999999997  0.88358  1.0000
  O   O15       1.0  0.4207599999999999  0.28518  0.7287199999999998  1.0000
  O   O16       1.0  0.4436499999999999  0.16683999999999993  0.76207  1.0000
  O   O17       1.0  0.44007  0.3356  0.046609999999999985  1.0000
  O   O18       1.0  0.42867  0.21509  0.07990999999999997  1.0000
  O   O19       1.0  0.6547699999999997  0.67459  0.84644  1.0000
  O   O20       1.0  0.54741  0.5277099999999998  0.80887  1.0000
  O   O21       1.0  0.5476999999999997  0.52439  0.88358  1.0000
  O   O22       1.0  0.07923999999999998  0.21480999999999995  0.7287199999999998  1.0000
  O   O23       1.0  0.05634999999999998  0.3331599999999999  0.76207  1.0000
  O   O24       1.0  0.05992999999999998  0.1644  0.046609999999999985  1.0000
  O   O25       1.0  0.07133  0.28491  0.07990999999999997  1.0000
  O   O26       1.0  0.84522  0.8254  0.84644  1.0000
  O   O27       1.0  0.9525899999999998  0.97229  0.80887  1.0000
  O   O28       1.0  0.9523  0.97561  0.88358  1.0000
  O   O29       1.0  0.71481  0.5792399999999998  0.7712799999999997  1.0000
  O   O30       1.0  0.83316  0.5563499999999998  0.73793  1.0000
  O   O31       1.0  0.6644  0.55993  0.4533899999999999  1.0000
  O   O32       1.0  0.7849099999999998  0.57133  0.4200899999999999  1.0000
  O   O33       1.0  0.3254  0.34521999999999997  0.6535699999999999  1.0000
  O   O34       1.0  0.4722899999999999  0.4525899999999999  0.69113  1.0000
  O   O35       1.0  0.47561  0.45229999999999987  0.6164299999999999  1.0000
  O   O36       1.0  0.7851799999999998  0.92076  0.7712799999999997  1.0000
  O   O37       1.0  0.6668399999999998  0.94365  0.73793  1.0000
  O   O38       1.0  0.8356  0.94007  0.4533899999999999  1.0000
  O   O39       1.0  0.71508  0.92867  0.4200899999999999  1.0000
  O   O40       1.0  0.1746  0.15478  0.6535699999999999  1.0000
  O   O41       1.0  0.02770999999999999  0.04740999999999999  0.69113  1.0000
  O   O42       1.0  0.02438999999999999  0.0477  0.6164299999999999  1.0000
  O   O43       1.0  0.5792399999999998  0.7851799999999998  0.7712799999999997  1.0000
  O   O44       1.0  0.5563499999999998  0.6668399999999998  0.73793  1.0000
  O   O45       1.0  0.55993  0.8356  0.4533899999999999  1.0000
  O   O46       1.0  0.57133  0.71508  0.4200899999999999  1.0000
  O   O47       1.0  0.34521999999999997  0.1746  0.6535699999999999  1.0000
  O   O48       1.0  0.4525899999999999  0.02770999999999999  0.69113  1.0000
  O   O49       1.0  0.45229999999999987  0.02438999999999999  0.6164299999999999  1.0000
  O   O50       1.0  0.92076  0.71481  0.7712799999999997  1.0000
  O   O51       1.0  0.94365  0.83316  0.73793  1.0000
  O   O52       1.0  0.94007  0.6644  0.4533899999999999  1.0000
  O   O53       1.0  0.92867  0.7849099999999998  0.4200899999999999  1.0000
  O   O54       1.0  0.15478  0.3254  0.6535699999999999  1.0000
  O   O55       1.0  0.04740999999999999  0.4722899999999999  0.69113  1.0000
  O   O56       1.0  0.0477  0.47561  0.6164299999999999  1.0000
  O   O57       1.0  0.71481  0.92076  0.2712799999999999  1.0000
  O   O58       1.0  0.83316  0.94365  0.23793  1.0000
  O   O59       1.0  0.6644  0.94007  0.95339  1.0000
  O   O60       1.0  0.7849099999999998  0.92867  0.9200999999999998  1.0000
  O   O61       1.0  0.3254  0.15478  0.15357  1.0000
  O   O62       1.0  0.4722899999999999  0.04740999999999999  0.19113  1.0000
  O   O63       1.0  0.47561  0.0477  0.11643  1.0000
  O   O64       1.0  0.7851799999999998  0.5792399999999998  0.2712799999999999  1.0000
  O   O65       1.0  0.6668399999999998  0.5563499999999998  0.23793  1.0000
  O   O66       1.0  0.8356  0.55993  0.95339  1.0000
  O   O67       1.0  0.71508  0.57133  0.9200999999999998  1.0000
  O   O68       1.0  0.1746  0.34521999999999997  0.15357  1.0000
  O   O69       1.0  0.02770999999999999  0.4525899999999999  0.19113  1.0000
  O   O70       1.0  0.02438999999999999  0.45229999999999987  0.11643  1.0000
  O   O71       1.0  0.5792399999999998  0.71481  0.2712799999999999  1.0000
  O   O72       1.0  0.5563499999999998  0.83316  0.23793  1.0000
  O   O73       1.0  0.55993  0.6644  0.95339  1.0000
  O   O74       1.0  0.57133  0.7849099999999998  0.9200999999999998  1.0000
  O   O75       1.0  0.34521999999999997  0.3254  0.15357  1.0000
  O   O76       1.0  0.4525899999999999  0.4722899999999999  0.19113  1.0000
  O   O77       1.0  0.45229999999999987  0.47561  0.11643  1.0000
  O   O78       1.0  0.92076  0.7851799999999998  0.2712799999999999  1.0000
  O   O79       1.0  0.94365  0.6668399999999998  0.23793  1.0000
  O   O80       1.0  0.94007  0.8356  0.95339  1.0000
  O   O81       1.0  0.92867  0.71508  0.9200999999999998  1.0000
  O   O82       1.0  0.15478  0.1746  0.15357  1.0000
  O   O83       1.0  0.04740999999999999  0.02770999999999999  0.19113  1.0000
  O   O84       1.0  0.0477  0.02438999999999999  0.11643  1.0000
  O   O85       1.0  0.28518  0.4207599999999999  0.22872  1.0000
  O   O86       1.0  0.16683999999999993  0.4436499999999999  0.2620699999999999  1.0000
  O   O87       1.0  0.3356  0.44007  0.54661  1.0000
  O   O88       1.0  0.21509  0.42867  0.57991  1.0000
  O   O89       1.0  0.6745999999999998  0.6547699999999997  0.34643999999999997  1.0000
  O   O90       1.0  0.5277099999999998  0.54741  0.30886999999999987  1.0000
  O   O91       1.0  0.52439  0.5476999999999997  0.3835699999999999  1.0000
  O   O92       1.0  0.21480999999999995  0.07923999999999998  0.22872  1.0000
  O   O93       1.0  0.3331599999999999  0.05634999999999998  0.2620699999999999  1.0000
  O   O94       1.0  0.1644  0.05992999999999998  0.54661  1.0000
  O   O95       1.0  0.28491  0.07133  0.57991  1.0000
  O   O96       1.0  0.8254  0.84522  0.34643999999999997  1.0000
  O   O97       1.0  0.97229  0.9525899999999998  0.30886999999999987  1.0000
  O   O98       1.0  0.97561  0.9523  0.3835699999999999  1.0000
  O   O99       1.0  0.4207599999999999  0.21480999999999995  0.22872  1.0000
  O   O100      1.0  0.4436499999999999  0.3331599999999999  0.2620699999999999  1.0000
  O   O101      1.0  0.44007  0.1644  0.54661  1.0000
  O   O102      1.0  0.42867  0.28491  0.57991  1.0000
  O   O103      1.0  0.6547699999999997  0.8254  0.34643999999999997  1.0000
  O   O104      1.0  0.54741  0.97229  0.30886999999999987  1.0000
  O   O105      1.0  0.5476999999999997  0.97561  0.3835699999999999  1.0000
  O   O106      1.0  0.07923999999999998  0.28518  0.22872  1.0000
  O   O107      1.0  0.05634999999999998  0.16683999999999993  0.2620699999999999  1.0000
  O   O108      1.0  0.05992999999999998  0.3356  0.54661  1.0000
  O   O109      1.0  0.07133  0.21509  0.57991  1.0000
  O   O110      1.0  0.84522  0.67459  0.34643999999999997  1.0000
  O   O111      1.0  0.9525899999999998  0.5277099999999998  0.30886999999999987  1.0000
  O   O112      1.0  0.9523  0.52439  0.3835699999999999  1.0000
