data_image0
_chemical_formula_structural       Ni8H208C224N56O32
_chemical_formula_sum              "Ni8 H208 C224 N56 O32"
_cell_length_a       12.27958
_cell_length_b       13.23672
_cell_length_c       36.74061
_cell_angle_alpha    92.86837
_cell_angle_beta     90.28685
_cell_angle_gamma    90.08708

_space_group_name_H-M_alt    "P 1"
_space_group_IT_number       1

loop_
  _space_group_symop_operation_xyz
  'x, y, z'

loop_
  _atom_site_type_symbol
  _atom_site_label
  _atom_site_symmetry_multiplicity
  _atom_site_fract_x
  _atom_site_fract_y
  _atom_site_fract_z
  _atom_site_occupancy
  Ni  Ni1       1.0  0.61499  0.5974300000000001  0.69303  1.0000
  Ni  Ni2       1.0  0.9166100000000001  0.70479  0.41984000000000005  1.0000
  Ni  Ni3       1.0  0.11678000000000001  0.90847  0.80584  1.0000
  Ni  Ni4       1.0  0.41477  0.7942000000000002  0.08005  1.0000
  Ni  Ni5       1.0  0.385  0.40261000000000013  0.30698  1.0000
  Ni  Ni6       1.0  0.08337  0.29521000000000003  0.5801600000000002  1.0000
  Ni  Ni7       1.0  0.8828700000000003  0.09182000000000003  0.19409000000000007  1.0000
  Ni  Ni8       1.0  0.58571  0.20567000000000002  0.9197700000000002  1.0000
  H   H1        1.0  0.34858  0.19380000000000006  0.66995  1.0000
  H   H2        1.0  0.27208  0.29189000000000004  0.6521900000000002  1.0000
  H   H3        1.0  0.43018000000000006  0.43855  0.71433  1.0000
  H   H4        1.0  0.63961  0.41741  0.62385  1.0000
  H   H5        1.0  0.4841400000000001  0.2640700000000001  0.61627  1.0000
  H   H6        1.0  0.26052  0.47797  0.67104  1.0000
  H   H7        1.0  0.12903  0.50553  0.6884600000000001  1.0000
  H   H8        1.0  0.15025  0.3962400000000001  0.6608200000000001  1.0000
  H   H9        1.0  0.04658000000000002  0.51034  0.73109  1.0000
  H   H10       1.0  0.04450000000000001  0.49458000000000013  0.7782500000000002  1.0000
  H   H11       1.0  0.04516  0.66487  0.80539  1.0000
  H   H12       1.0  0.29785000000000006  0.80601  0.75012  1.0000
  H   H13       1.0  0.27924  0.6069400000000003  0.72228  1.0000
  H   H14       1.0  0.15209  0.4767300000000001  0.8215400000000003  1.0000
  H   H15       1.0  0.23638  0.38338000000000005  0.8391100000000001  1.0000
  H   H16       1.0  0.09946000000000003  0.3539200000000001  0.8280600000000002  1.0000
  H   H17       1.0  0.22684000000000007  0.21622000000000002  0.82781  1.0000
  H   H18       1.0  0.29637  0.12857  0.79902  1.0000
  H   H19       1.0  0.3965000000000001  0.11965  0.86732  1.0000
  H   H20       1.0  0.6213600000000001  0.35266  0.8511700000000002  1.0000
  H   H21       1.0  0.4551200000000001  0.3626400000000001  0.7990800000000002  1.0000
  H   H22       1.0  0.3450600000000001  0.08362  0.74429  1.0000
  H   H23       1.0  0.4536  0.16427000000000003  0.7581100000000001  1.0000
  H   H24       1.0  0.42343  0.14496000000000006  0.7113000000000002  1.0000
  H   H25       1.0  0.6505100000000001  0.76592  0.51996  1.0000
  H   H26       1.0  0.93439  0.5840100000000001  0.54504  1.0000
  H   H27       1.0  0.58268  0.72079  0.56807  1.0000
  H   H28       1.0  0.89771  0.59516  0.5971000000000001  1.0000
  H   H29       1.0  0.36807  0.7139500000000001  0.82208  1.0000
  H   H30       1.0  0.47998000000000013  0.79391  0.81558  1.0000
  H   H31       1.0  0.46779  0.7164200000000002  0.74809  1.0000
  H   H32       1.0  0.64174  0.4487800000000001  0.7647700000000001  1.0000
  H   H33       1.0  0.5731500000000002  0.53329  0.83223  1.0000
  H   H34       1.0  0.6428100000000001  0.88364  0.84612  1.0000
  H   H35       1.0  0.65691  0.7682800000000002  0.8201000000000003  1.0000
  H   H36       1.0  0.7516300000000002  0.79971  0.8550900000000002  1.0000
  H   H37       1.0  0.7293500000000003  0.8060000000000003  0.9550500000000001  1.0000
  H   H38       1.0  0.7997200000000002  0.7731000000000001  0.91376  1.0000
  H   H39       1.0  0.55895  0.9585  0.9178300000000001  1.0000
  H   H40       1.0  0.84019  0.13377  0.90437  1.0000
  H   H41       1.0  0.9015  0.93365  0.91237  1.0000
  H   H42       1.0  0.62224  0.7438500000000002  0.98871  1.0000
  H   H43       1.0  0.6928200000000002  0.6380700000000001  0.96953  1.0000
  H   H44       1.0  0.5621  0.62246  0.98795  1.0000
  H   H45       1.0  0.41201  0.61356  0.97728  1.0000
  H   H46       1.0  0.30984000000000006  0.6064000000000003  0.94382  1.0000
  H   H47       1.0  0.58063  0.46031  0.9355000000000001  1.0000
  H   H48       1.0  0.33091  0.24219000000000004  0.9355200000000001  1.0000
  H   H49       1.0  0.23890000000000003  0.43411000000000005  0.94866  1.0000
  H   H50       1.0  0.31697000000000003  0.52725  0.88598  1.0000
  H   H51       1.0  0.32536000000000004  0.5858600000000002  0.8442700000000001  1.0000
  H   H52       1.0  0.25502  0.64678  0.88112  1.0000
  H   H53       1.0  0.8496400000000001  0.3099900000000001  0.83024  1.0000
  H   H54       1.0  0.77376  0.21108  0.84765  1.0000
  H   H55       1.0  0.9318700000000002  0.06802000000000002  0.7847900000000002  1.0000
  H   H56       1.0  0.14115  0.08528000000000001  0.8760600000000001  1.0000
  H   H57       1.0  0.98532  0.23738  0.88425  1.0000
  H   H58       1.0  0.7608400000000002  0.02542000000000003  0.8282000000000003  1.0000
  H   H59       1.0  0.6287  0.9984500000000001  0.81071  1.0000
  H   H60       1.0  0.6513100000000001  0.10716000000000003  0.83863  1.0000
  H   H61       1.0  0.5456  0.9942100000000003  0.76776  1.0000
  H   H62       1.0  0.5428900000000001  0.01137000000000003  0.7206600000000002  1.0000
  H   H63       1.0  0.54339  0.84091  0.6928400000000002  1.0000
  H   H64       1.0  0.7970100000000001  0.70025  0.7484400000000002  1.0000
  H   H65       1.0  0.7781000000000001  0.89893  0.77663  1.0000
  H   H66       1.0  0.65136  0.028590000000000004  0.67776  1.0000
  H   H67       1.0  0.7368700000000002  0.12155000000000005  0.66065  1.0000
  H   H68       1.0  0.59997  0.15154000000000004  0.6708900000000002  1.0000
  H   H69       1.0  0.7261400000000001  0.2895  0.6720500000000001  1.0000
  H   H70       1.0  0.7969  0.37682  0.70095  1.0000
  H   H71       1.0  0.8936600000000001  0.38212  0.63161  1.0000
  H   H72       1.0  0.12086000000000002  0.15299000000000004  0.6502200000000001  1.0000
  H   H73       1.0  0.95589  0.14516000000000007  0.70227  1.0000
  H   H74       1.0  0.8450500000000002  0.4213600000000001  0.75493  1.0000
  H   H75       1.0  0.9548100000000002  0.34061  0.7431800000000002  1.0000
  H   H76       1.0  0.92043  0.3627800000000001  0.7894600000000002  1.0000
  H   H77       1.0  0.14601000000000003  0.7408100000000001  0.97923  1.0000
  H   H78       1.0  0.4384700000000001  0.9118600000000002  0.9549200000000002  1.0000
  H   H79       1.0  0.08175  0.78292  0.93008  1.0000
  H   H80       1.0  0.39918  0.90646  0.90309  1.0000
  H   H81       1.0  0.8664  0.7886100000000003  0.6771000000000003  1.0000
  H   H82       1.0  0.97886  0.70994  0.68416  1.0000
  H   H83       1.0  0.9660800000000002  0.79129  0.7514500000000001  1.0000
  H   H84       1.0  0.14319000000000004  0.05633  0.73316  1.0000
  H   H85       1.0  0.07228  0.9692000000000002  0.66615  1.0000
  H   H86       1.0  0.14086000000000004  0.62011  0.6543000000000002  1.0000
  H   H87       1.0  0.15556  0.73645  0.67979  1.0000
  H   H88       1.0  0.24954  0.70383  0.6450600000000002  1.0000
  H   H89       1.0  0.22840000000000005  0.6962900000000002  0.54543  1.0000
  H   H90       1.0  0.29745  0.72923  0.5872100000000001  1.0000
  H   H91       1.0  0.05664000000000002  0.54322  0.5827400000000001  1.0000
  H   H92       1.0  0.33803  0.36742  0.59461  1.0000
  H   H93       1.0  0.39954000000000006  0.568  0.5871900000000001  1.0000
  H   H94       1.0  0.12272000000000002  0.7575  0.51136  1.0000
  H   H95       1.0  0.19049  0.86539  0.53057  1.0000
  H   H96       1.0  0.059870000000000013  0.87734  0.51127  1.0000
  H   H97       1.0  0.91119  0.88828  0.5216000000000001  1.0000
  H   H98       1.0  0.80844  0.8945400000000001  0.55453  1.0000
  H   H99       1.0  0.07861000000000001  0.04174  0.56488  1.0000
  H   H100      1.0  0.8286100000000002  0.25865000000000005  0.56385  1.0000
  H   H101      1.0  0.7372700000000002  0.06647  0.54931  1.0000
  H   H102      1.0  0.8166100000000001  0.97559  0.6129800000000001  1.0000
  H   H103      1.0  0.82184  0.9143100000000002  0.6542600000000002  1.0000
  H   H104      1.0  0.7528100000000002  0.85622  0.61632  1.0000
  H   H105      1.0  0.65147  0.8061700000000003  0.33007  1.0000
  H   H106      1.0  0.7279400000000001  0.7080600000000002  0.34784  1.0000
  H   H107      1.0  0.5698000000000001  0.56145  0.28569  1.0000
  H   H108      1.0  0.36038  0.5826200000000001  0.3761700000000001  1.0000
  H   H109      1.0  0.51588  0.73593  0.38375  1.0000
  H   H110      1.0  0.73952  0.52195  0.32899  1.0000
  H   H111      1.0  0.8710000000000001  0.49442000000000014  0.31156  1.0000
  H   H112      1.0  0.84977  0.6037100000000002  0.3392  1.0000
  H   H113      1.0  0.9533500000000003  0.48951000000000006  0.26891  1.0000
  H   H114      1.0  0.9554300000000002  0.50535  0.22175000000000003  1.0000
  H   H115      1.0  0.95459  0.33519  0.1945  1.0000
  H   H116      1.0  0.70211  0.19383  0.24979  1.0000
  H   H117      1.0  0.7208000000000002  0.3928200000000001  0.27774  1.0000
  H   H118      1.0  0.84775  0.52317  0.17846000000000004  1.0000
  H   H119      1.0  0.76351  0.61658  0.16091000000000003  1.0000
  H   H120      1.0  0.90045  0.64596  0.17196  1.0000
  H   H121      1.0  0.77361  0.78386  0.1723  1.0000
  H   H122      1.0  0.7039700000000002  0.8714700000000002  0.20107000000000005  1.0000
  H   H123      1.0  0.60501  0.88067  0.13253  1.0000
  H   H124      1.0  0.37917  0.64824  0.14822  1.0000
  H   H125      1.0  0.54443  0.63782  0.20068000000000005  1.0000
  H   H126      1.0  0.6548800000000001  0.91629  0.25573  1.0000
  H   H127      1.0  0.54637  0.8356300000000002  0.24189  1.0000
  H   H128      1.0  0.5765  0.85494  0.2887100000000001  1.0000
  H   H129      1.0  0.34949  0.23409000000000005  0.48004  1.0000
  H   H130      1.0  0.0656  0.41601  0.45496  1.0000
  H   H131      1.0  0.4172900000000001  0.27923000000000003  0.4319300000000001  1.0000
  H   H132      1.0  0.10228000000000002  0.4048300000000001  0.4029  1.0000
  H   H133      1.0  0.63181  0.28612000000000004  0.17793  1.0000
  H   H134      1.0  0.51984  0.20622  0.18442000000000003  1.0000
  H   H135      1.0  0.53214  0.28367  0.25189  1.0000
  H   H136      1.0  0.35825  0.55136  0.23527000000000003  1.0000
  H   H137      1.0  0.4267300000000001  0.4669  0.16779  1.0000
  H   H138      1.0  0.35714  0.11637000000000003  0.15381  1.0000
  H   H139      1.0  0.3429  0.23168  0.17987000000000006  1.0000
  H   H140      1.0  0.24830000000000002  0.20027000000000006  0.14484  1.0000
  H   H141      1.0  0.27024  0.19417000000000006  0.04499  1.0000
  H   H142      1.0  0.20035000000000006  0.22650000000000006  0.08641000000000001  1.0000
  H   H143      1.0  0.44169000000000014  0.04197000000000002  0.08163000000000002  1.0000
  H   H144      1.0  0.16186  0.8653300000000003  0.09563  1.0000
  H   H145      1.0  0.0992  0.06539  0.08785  1.0000
  H   H146      1.0  0.3784800000000001  0.25539000000000006  0.011260000000000003  1.0000
  H   H147      1.0  0.30733  0.36108  0.03026  1.0000
  H   H148      1.0  0.43812  0.37701  0.01193  1.0000
  H   H149      1.0  0.5880700000000001  0.38628000000000007  0.02267  1.0000
  H   H150      1.0  0.6903800000000001  0.39303  0.05612000000000001  1.0000
  H   H151      1.0  0.42014000000000007  0.5401000000000002  0.06431  1.0000
  H   H152      1.0  0.67065  0.7574  0.06419  1.0000
  H   H153      1.0  0.76209  0.56521  0.05134000000000001  1.0000
  H   H154      1.0  0.68307  0.4728  0.11403000000000002  1.0000
  H   H155      1.0  0.67465  0.41414  0.15573  1.0000
  H   H156      1.0  0.7449200000000001  0.35322  0.11886  1.0000
  H   H157      1.0  0.15007  0.6901400000000002  0.16978  1.0000
  H   H158      1.0  0.22616000000000006  0.78891  0.15238  1.0000
  H   H159      1.0  0.06798  0.93229  0.21518  1.0000
  H   H160      1.0  0.8587700000000003  0.9147600000000002  0.12389  1.0000
  H   H161      1.0  0.014670000000000004  0.7626900000000002  0.11577  1.0000
  H   H162      1.0  0.23926000000000003  0.97448  0.17174  1.0000
  H   H163      1.0  0.3713600000000001  0.0014800000000000074  0.18926  1.0000
  H   H164      1.0  0.34883000000000003  0.8927000000000003  0.16138  1.0000
  H   H165      1.0  0.45438  0.005810000000000004  0.23224000000000003  1.0000
  H   H166      1.0  0.45712000000000014  0.9886300000000002  0.27933  1.0000
  H   H167      1.0  0.45663000000000004  0.15911  0.30715000000000003  1.0000
  H   H168      1.0  0.20294000000000006  0.29973  0.2515800000000001  1.0000
  H   H169      1.0  0.22184  0.10103  0.22339000000000003  1.0000
  H   H170      1.0  0.34866  0.9714300000000002  0.32224  1.0000
  H   H171      1.0  0.26314  0.8784900000000001  0.33935  1.0000
  H   H172      1.0  0.4000400000000001  0.8484700000000002  0.32910000000000006  1.0000
  H   H173      1.0  0.27387  0.71056  0.32797  1.0000
  H   H174      1.0  0.20315  0.6232  0.29906  1.0000
  H   H175      1.0  0.10631000000000003  0.61789  0.36839  1.0000
  H   H176      1.0  0.8791200000000002  0.8470200000000002  0.34977000000000014  1.0000
  H   H177      1.0  0.04413  0.8548600000000002  0.29773  1.0000
  H   H178      1.0  0.15494  0.5786900000000001  0.24511  1.0000
  H   H179      1.0  0.04514000000000001  0.6594  0.25684000000000007  1.0000
  H   H180      1.0  0.07955000000000001  0.6371700000000002  0.21056000000000002  1.0000
  H   H181      1.0  0.85395  0.25721000000000005  0.020440000000000003  1.0000
  H   H182      1.0  0.56064  0.08762000000000003  0.04507  1.0000
  H   H183      1.0  0.91719  0.21636000000000002  0.0696  1.0000
  H   H184      1.0  0.60029  0.09238000000000005  0.09705000000000003  1.0000
  H   H185      1.0  0.13351  0.21122  0.32286  1.0000
  H   H186      1.0  0.02114  0.29004  0.31584000000000007  1.0000
  H   H187      1.0  0.03367  0.20900000000000005  0.24854000000000004  1.0000
  H   H188      1.0  0.85666  0.9438100000000003  0.26667  1.0000
  H   H189      1.0  0.9276000000000002  0.030660000000000014  0.3337300000000001  1.0000
  H   H190      1.0  0.85913  0.3798600000000001  0.3456900000000001  1.0000
  H   H191      1.0  0.84438  0.2635500000000001  0.32019  1.0000
  H   H192      1.0  0.75042  0.29616  0.3549300000000001  1.0000
  H   H193      1.0  0.77164  0.30372000000000005  0.4545600000000001  1.0000
  H   H194      1.0  0.7025500000000001  0.27076  0.41279  1.0000
  H   H195      1.0  0.94336  0.45680000000000015  0.41724000000000006  1.0000
  H   H196      1.0  0.66193  0.63257  0.4054000000000001  1.0000
  H   H197      1.0  0.60045  0.4319800000000001  0.41282000000000013  1.0000
  H   H198      1.0  0.8773200000000002  0.2425  0.48863  1.0000
  H   H199      1.0  0.80951  0.13463  0.46942000000000006  1.0000
  H   H200      1.0  0.9401300000000002  0.12264000000000004  0.4887200000000001  1.0000
  H   H201      1.0  0.08879000000000002  0.11174  0.47838  1.0000
  H   H202      1.0  0.19156  0.10546000000000004  0.4454600000000001  1.0000
  H   H203      1.0  0.9213800000000002  0.95828  0.43510000000000004  1.0000
  H   H204      1.0  0.17137000000000002  0.74135  0.43615  1.0000
  H   H205      1.0  0.26271000000000005  0.9335200000000001  0.45069  1.0000
  H   H206      1.0  0.18338000000000004  0.02438  0.387  1.0000
  H   H207      1.0  0.17819  0.08566000000000003  0.3457300000000001  1.0000
  H   H208      1.0  0.24716000000000005  0.14376000000000003  0.38367  1.0000
  C   C1        1.0  0.28295  0.30047  0.71121  1.0000
  C   C2        1.0  0.21437000000000006  0.38608000000000003  0.7155200000000003  1.0000
  C   C3        1.0  0.17633  0.41639000000000004  0.75056  1.0000
  C   C4        1.0  0.20611  0.36169  0.78114  1.0000
  C   C5        1.0  0.26974  0.27379  0.77611  1.0000
  C   C6        1.0  0.31088000000000005  0.24418  0.74137  1.0000
  C   C7        1.0  0.71842  0.8001400000000001  0.44857  1.0000
  C   C8        1.0  0.03396  0.60855  0.47797  1.0000
  C   C9        1.0  0.8361300000000002  0.55885  0.66903  1.0000
  C   C10       1.0  0.49429  0.7001000000000001  0.63729  1.0000
  C   C11       1.0  0.32964000000000004  0.2743700000000001  0.67391  1.0000
  C   C12       1.0  0.4676200000000001  0.41291  0.68899  1.0000
  C   C13       1.0  0.5737400000000001  0.39885000000000004  0.64186  1.0000
  C   C14       1.0  0.49792  0.32220000000000004  0.63768  1.0000
  C   C15       1.0  0.18714000000000003  0.4446000000000001  0.6826900000000001  1.0000
  C   C16       1.0  0.09889  0.5050000000000001  0.75525  1.0000
  C   C17       1.0  0.11315000000000001  0.6765000000000002  0.7874  1.0000
  C   C18       1.0  0.2439  0.7459200000000002  0.75771  1.0000
  C   C19       1.0  0.23498000000000008  0.6478000000000003  0.7436900000000002  1.0000
  C   C20       1.0  0.17136000000000004  0.39595  0.8192300000000001  1.0000
  C   C21       1.0  0.29278  0.20893  0.80789  1.0000
  C   C22       1.0  0.43533  0.18436  0.85612  1.0000
  C   C23       1.0  0.55007  0.30555  0.8463800000000001  1.0000
  C   C24       1.0  0.46841000000000005  0.31179  0.82078  1.0000
  C   C25       1.0  0.38667  0.15459  0.73828  1.0000
  C   C26       1.0  0.77163  0.74284  0.47914000000000007  1.0000
  C   C27       1.0  0.7283200000000002  0.73016  0.51363  1.0000
  C   C28       1.0  0.78642  0.6729300000000001  0.53871  1.0000
  C   C29       1.0  0.8869000000000002  0.63123  0.5277  1.0000
  C   C30       1.0  0.9261  0.64736  0.4930800000000001  1.0000
  C   C31       1.0  0.60404  0.66852  0.62152  1.0000
  C   C32       1.0  0.63932  0.68542  0.58638  1.0000
  C   C33       1.0  0.74566  0.6570600000000001  0.57589  1.0000
  C   C34       1.0  0.8134800000000001  0.61524  0.6024800000000001  1.0000
  C   C35       1.0  0.77313  0.60016  0.63709  1.0000
  C   C36       1.0  0.4952100000000001  0.70639  0.86267  1.0000
  C   C37       1.0  0.5937000000000001  0.75306  0.8743900000000001  1.0000
  C   C38       1.0  0.625  0.75011  0.9112  1.0000
  C   C39       1.0  0.56511  0.6910500000000002  0.9351700000000001  1.0000
  C   C40       1.0  0.4668400000000001  0.64548  0.92302  1.0000
  C   C41       1.0  0.43133  0.65237  0.88665  1.0000
  C   C42       1.0  0.4569300000000001  0.7188899999999999  0.82421  1.0000
  C   C43       1.0  0.50433  0.6535500000000002  0.76122  1.0000
  C   C44       1.0  0.59462  0.51632  0.77125  1.0000
  C   C45       1.0  0.56129  0.55645  0.8047  1.0000
  C   C46       1.0  0.66517  0.8037100000000001  0.84755  1.0000
  C   C47       1.0  0.72503  0.807  0.9253300000000001  1.0000
  C   C48       1.0  0.6429300000000001  0.97986  0.91477  1.0000
  C   C49       1.0  0.7906700000000001  0.06754000000000004  0.9078100000000001  1.0000
  C   C50       1.0  0.8225400000000002  0.9694100000000002  0.9120500000000001  1.0000
  C   C51       1.0  0.61188  0.6729800000000002  0.9722700000000001  1.0000
  C   C52       1.0  0.39581  0.58974  0.9488000000000001  1.0000
  C   C53       1.0  0.50102  0.42597  0.9377400000000002  1.0000
  C   C54       1.0  0.36801  0.3165200000000001  0.9371600000000001  1.0000
  C   C55       1.0  0.3220000000000001  0.41021  0.9437100000000002  1.0000
  C   C56       1.0  0.3270400000000001  0.60065  0.8738600000000001  1.0000
  C   C57       1.0  0.7831400000000002  0.20404  0.78862  1.0000
  C   C58       1.0  0.7141800000000003  0.11842000000000003  0.7840000000000001  1.0000
  C   C59       1.0  0.67554  0.08871999999999998  0.74884  1.0000
  C   C60       1.0  0.70562  0.14358000000000004  0.71842  1.0000
  C   C61       1.0  0.76938  0.23159000000000002  0.7237500000000001  1.0000
  C   C62       1.0  0.8106100000000002  0.26105  0.7586500000000003  1.0000
  C   C63       1.0  0.21377000000000002  0.70382  0.05091000000000001  1.0000
  C   C64       1.0  0.5329400000000001  0.89053  0.02304  1.0000
  C   C65       1.0  0.3389000000000001  0.9442000000000003  0.8307600000000003  1.0000
  C   C66       1.0  0.9946200000000001  0.80625  0.8605  1.0000
  C   C67       1.0  0.83073  0.2294  0.82602  1.0000
  C   C68       1.0  0.9693000000000003  0.09254000000000007  0.8103900000000003  1.0000
  C   C69       1.0  0.07534  0.10458000000000006  0.85796  1.0000
  C   C70       1.0  0.99931  0.18064000000000005  0.86243  1.0000
  C   C71       1.0  0.68732  0.05919000000000005  0.8166500000000002  1.0000
  C   C72       1.0  0.5975400000000001  0.0003200000000000224  0.7437100000000002  1.0000
  C   C73       1.0  0.61144  0.82938  0.71105  1.0000
  C   C74       1.0  0.74275  0.76018  0.74089  1.0000
  C   C75       1.0  0.7336600000000001  0.8580000000000002  0.7551000000000002  1.0000
  C   C76       1.0  0.6713000000000002  0.10928000000000003  0.68016  1.0000
  C   C77       1.0  0.7925000000000001  0.29652000000000006  0.6920500000000002  1.0000
  C   C78       1.0  0.93325  0.31868000000000013  0.64345  1.0000
  C   C79       1.0  0.04929  0.19965  0.65447  1.0000
  C   C80       1.0  0.96837  0.19457  0.68012  1.0000
  C   C81       1.0  0.8861300000000002  0.35111000000000003  0.76206  1.0000
  C   C82       1.0  0.26863  0.7591200000000001  0.02031  1.0000
  C   C83       1.0  0.22572000000000003  0.77322  0.9857000000000001  1.0000
  C   C84       1.0  0.28631  0.8281300000000001  0.9606900000000002  1.0000
  C   C85       1.0  0.38825  0.8669800000000002  0.9721100000000001  1.0000
  C   C86       1.0  0.42597000000000007  0.85115  0.007030000000000001  1.0000
  C   C87       1.0  0.10501000000000006  0.8356300000000001  0.8769000000000001  1.0000
  C   C88       1.0  0.13953000000000004  0.81778  0.91217  1.0000
  C   C89       1.0  0.24622000000000005  0.84491  0.9233100000000001  1.0000
  C   C90       1.0  0.31497  0.88668  0.89714  1.0000
  C   C91       1.0  0.27536  0.90264  0.86235  1.0000
  C   C92       1.0  0.9929900000000003  0.79596  0.6366500000000003  1.0000
  C   C93       1.0  0.09143000000000003  0.7494500000000002  0.62533  1.0000
  C   C94       1.0  0.12282000000000001  0.7516800000000002  0.5886300000000001  1.0000
  C   C95       1.0  0.06325  0.81052  0.56436  1.0000
  C   C96       1.0  0.9651  0.8561200000000001  0.57611  1.0000
  C   C97       1.0  0.9292600000000002  0.8495300000000001  0.6123500000000001  1.0000
  C   C98       1.0  0.9552400000000001  0.7844  0.67511  1.0000
  C   C99       1.0  0.0032599999999999986  0.85303  0.73791  1.0000
  C   C100      1.0  0.09523  0.9888100000000003  0.72709  1.0000
  C   C101      1.0  0.06079  0.9473600000000002  0.69384  1.0000
  C   C102      1.0  0.16324  0.6999700000000001  0.65252  1.0000
  C   C103      1.0  0.22307  0.69505  0.57511  1.0000
  C   C104      1.0  0.14073000000000002  0.5217700000000001  0.5854600000000002  1.0000
  C   C105      1.0  0.28864  0.43389  0.5916  1.0000
  C   C106      1.0  0.32047000000000003  0.53227  0.58771  1.0000
  C   C107      1.0  0.11041000000000002  0.8285300000000002  0.52747  1.0000
  C   C108      1.0  0.8944300000000002  0.9116900000000001  0.55002  1.0000
  C   C109      1.0  0.9989800000000001  0.07564000000000005  0.5621700000000002  1.0000
  C   C110      1.0  0.86573  0.18446  0.56226  1.0000
  C   C111      1.0  0.82011  0.09069000000000003  0.5550000000000003  1.0000
  C   C112      1.0  0.82505  0.90133  0.62462  1.0000
  C   C113      1.0  0.71703  0.6994500000000002  0.2888100000000001  1.0000
  C   C114      1.0  0.7856100000000001  0.6138400000000003  0.2845  1.0000
  C   C115      1.0  0.8236  0.5835  0.24946  1.0000
  C   C116      1.0  0.7938000000000001  0.63819  0.21888  1.0000
  C   C117      1.0  0.73019  0.7261100000000001  0.22391  1.0000
  C   C118      1.0  0.6890700000000002  0.75573  0.25865  1.0000
  C   C119      1.0  0.28158  0.19986000000000007  0.5514300000000001  1.0000
  C   C120      1.0  0.96603  0.39146  0.52203  1.0000
  C   C121      1.0  0.16387  0.44116  0.33097  1.0000
  C   C122      1.0  0.5057  0.29991  0.36271  1.0000
  C   C123      1.0  0.6703900000000003  0.7255900000000002  0.32611  1.0000
  C   C124      1.0  0.53237  0.58709  0.31103  1.0000
  C   C125      1.0  0.42625  0.6011600000000001  0.35816000000000003  1.0000
  C   C126      1.0  0.50208  0.6778100000000002  0.3623400000000001  1.0000
  C   C127      1.0  0.81288  0.5553400000000001  0.31733  1.0000
  C   C128      1.0  0.9010400000000002  0.49491  0.24475  1.0000
  C   C129      1.0  0.8866700000000002  0.3235200000000001  0.21252  1.0000
  C   C130      1.0  0.75602  0.25399000000000005  0.24223000000000003  1.0000
  C   C131      1.0  0.7650100000000001  0.3520500000000001  0.2563  1.0000
  C   C132      1.0  0.82852  0.6039500000000001  0.18079000000000003  1.0000
  C   C133      1.0  0.7074800000000001  0.79116  0.19215  1.0000
  C   C134      1.0  0.56574  0.81612  0.14369000000000004  1.0000
  C   C135      1.0  0.45047000000000004  0.6952000000000003  0.15323  1.0000
  C   C136      1.0  0.53166  0.6887800000000001  0.17898  1.0000
  C   C137      1.0  0.61328  0.8453100000000002  0.26173  1.0000
  C   C138      1.0  0.22836000000000006  0.25716000000000006  0.52086  1.0000
  C   C139      1.0  0.27167  0.26985  0.48637  1.0000
  C   C140      1.0  0.21357000000000004  0.32708  0.46129000000000003  1.0000
  C   C141      1.0  0.11309  0.36877  0.4723  1.0000
  C   C142      1.0  0.0739  0.35264  0.50692  1.0000
  C   C143      1.0  0.39595  0.33149  0.37848  1.0000
  C   C144      1.0  0.3606600000000001  0.31459  0.41362  1.0000
  C   C145      1.0  0.25433  0.34295  0.42411  1.0000
  C   C146      1.0  0.1865  0.38476  0.39751  1.0000
  C   C147      1.0  0.22686  0.39983000000000013  0.36290000000000006  1.0000
  C   C148      1.0  0.5047  0.29374  0.13732  1.0000
  C   C149      1.0  0.40625  0.24704  0.1256  1.0000
  C   C150      1.0  0.37502  0.24988  0.08878  1.0000
  C   C151      1.0  0.435  0.30882  0.06479  1.0000
  C   C152      1.0  0.53323  0.35447000000000006  0.07694  1.0000
  C   C153      1.0  0.56863  0.34771  0.11333000000000001  1.0000
  C   C154      1.0  0.54295  0.28123  0.17579000000000003  1.0000
  C   C155      1.0  0.4956100000000001  0.3465500000000001  0.23878000000000002  1.0000
  C   C156      1.0  0.40535  0.4838300000000001  0.22877000000000003  1.0000
  C   C157      1.0  0.43865  0.44372000000000006  0.19532000000000002  1.0000
  C   C158      1.0  0.33474  0.19631000000000004  0.15241  1.0000
  C   C159      1.0  0.275  0.19289  0.07469000000000003  1.0000
  C   C160      1.0  0.35792  0.0202  0.0849  1.0000
  C   C161      1.0  0.21074000000000007  0.93194  0.09214  1.0000
  C   C162      1.0  0.17833000000000002  0.02998  0.08802  1.0000
  C   C163      1.0  0.38843  0.32645  0.027620000000000002  1.0000
  C   C164      1.0  0.6044600000000001  0.40999000000000013  0.05116000000000001  1.0000
  C   C165      1.0  0.49992  0.5741100000000001  0.06209000000000001  1.0000
  C   C166      1.0  0.63325  0.6831900000000001  0.06263  1.0000
  C   C167      1.0  0.67901  0.5893300000000001  0.056190000000000004  1.0000
  C   C168      1.0  0.67293  0.39938  0.12614000000000006  1.0000
  C   C169      1.0  0.21673  0.79603  0.21139  1.0000
  C   C170      1.0  0.2857700000000001  0.8816  0.21600000000000005  1.0000
  C   C171      1.0  0.32444  0.9113  0.25116  1.0000
  C   C172      1.0  0.29437  0.85645  0.28158  1.0000
  C   C173      1.0  0.23061000000000004  0.7684400000000001  0.27625  1.0000
  C   C174      1.0  0.18932  0.7389900000000001  0.24136000000000002  1.0000
  C   C175      1.0  0.78708  0.29378  0.9490800000000001  1.0000
  C   C176      1.0  0.46643  0.10880000000000001  0.97685  1.0000
  C   C177      1.0  0.66094  0.05567  0.16926  1.0000
  C   C178      1.0  0.005120000000000002  0.19365000000000004  0.13918  1.0000
  C   C179      1.0  0.16911  0.7707000000000002  0.174  1.0000
  C   C180      1.0  0.030580000000000017  0.90771  0.18958  1.0000
  C   C181      1.0  0.9245900000000002  0.89555  0.14201000000000003  1.0000
  C   C182      1.0  0.0006700000000000002  0.81952  0.13756  1.0000
  C   C183      1.0  0.31274  0.94073  0.18333  1.0000
  C   C184      1.0  0.40246000000000004  0.99969  0.2562800000000001  1.0000
  C   C185      1.0  0.38856999999999997  0.17063  0.28895  1.0000
  C   C186      1.0  0.2572  0.23981000000000002  0.25912  1.0000
  C   C187      1.0  0.26629  0.14198  0.24491  1.0000
  C   C188      1.0  0.3287200000000001  0.89074  0.31984000000000007  1.0000
  C   C189      1.0  0.20752  0.7035100000000001  0.3079600000000001  1.0000
  C   C190      1.0  0.06673  0.6813300000000001  0.35655  1.0000
  C   C191      1.0  0.9506900000000001  0.8003600000000002  0.34553  1.0000
  C   C192      1.0  0.03163  0.80545  0.3198800000000001  1.0000
  C   C193      1.0  0.11383000000000001  0.6489100000000002  0.23796  1.0000
  C   C194      1.0  0.73141  0.23899000000000006  0.9795600000000001  1.0000
  C   C195      1.0  0.77403  0.22509000000000007  0.01418  1.0000
  C   C196      1.0  0.71314  0.17071000000000006  0.03925  1.0000
  C   C197      1.0  0.61116  0.13208000000000003  0.02783  1.0000
  C   C198      1.0  0.57369  0.14773000000000003  0.9928400000000001  1.0000
  C   C199      1.0  0.8945400000000002  0.16422000000000003  0.12293000000000001  1.0000
  C   C200      1.0  0.8597300000000001  0.18170000000000003  0.08767  1.0000
  C   C201      1.0  0.7530700000000002  0.15427  0.07664000000000001  1.0000
  C   C202      1.0  0.6845  0.11254000000000002  0.10287000000000003  1.0000
  C   C203      1.0  0.72436  0.09703999999999999  0.13765  1.0000
  C   C204      1.0  0.00695  0.20395000000000005  0.36332  1.0000
  C   C205      1.0  0.90853  0.2505  0.37465  1.0000
  C   C206      1.0  0.8771700000000002  0.24830000000000002  0.4113600000000001  1.0000
  C   C207      1.0  0.93675  0.18948  0.43562  1.0000
  C   C208      1.0  0.03490000000000001  0.14387000000000003  0.4238800000000001  1.0000
  C   C209      1.0  0.07071  0.15042000000000005  0.38763  1.0000
  C   C210      1.0  0.044670000000000015  0.21553000000000005  0.32486  1.0000
  C   C211      1.0  0.9965400000000002  0.14717  0.26204  1.0000
  C   C212      1.0  0.9046300000000003  0.011300000000000004  0.2727800000000001  1.0000
  C   C213      1.0  0.93908  0.05263000000000001  0.30606  1.0000
  C   C214      1.0  0.83672  0.3000000000000001  0.34747  1.0000
  C   C215      1.0  0.7769400000000001  0.3049500000000001  0.42488  1.0000
  C   C216      1.0  0.85926  0.4782400000000001  0.41453000000000007  1.0000
  C   C217      1.0  0.7113400000000002  0.5661000000000002  0.4084  1.0000
  C   C218      1.0  0.67952  0.46772000000000014  0.41229  1.0000
  C   C219      1.0  0.8896  0.17147000000000007  0.47252  1.0000
  C   C220      1.0  0.10556  0.08832000000000002  0.44997  1.0000
  C   C221      1.0  0.0010100000000000003  0.9243700000000001  0.43782000000000004  1.0000
  C   C222      1.0  0.13425000000000004  0.81555  0.4377300000000001  1.0000
  C   C223      1.0  0.17987  0.9093100000000002  0.4450000000000001  1.0000
  C   C224      1.0  0.17494  0.09864  0.37537000000000004  1.0000
  N   N1        1.0  0.4309500000000001  0.33212000000000014  0.66796  1.0000
  N   N2        1.0  0.5541700000000002  0.45483000000000007  0.6740200000000001  1.0000
  N   N3        1.0  0.15145  0.60437  0.76283  1.0000
  N   N4        1.0  0.16786000000000006  0.7628600000000002  0.78488  1.0000
  N   N5        1.0  0.39605000000000007  0.23431000000000002  0.8273  1.0000
  N   N6        1.0  0.52856  0.22559  0.86816  1.0000
  N   N7        1.0  0.8678500000000002  0.70117  0.47008  1.0000
  N   N8        1.0  0.6698900000000002  0.6248700000000003  0.6452200000000002  1.0000
  N   N9        1.0  0.50421  0.6436  0.79775  1.0000
  N   N10       1.0  0.55887  0.57809  0.74431  1.0000
  N   N11       1.0  0.72784  0.9144100000000001  0.9163900000000001  1.0000
  N   N12       1.0  0.6782100000000001  0.07334000000000003  0.90929  1.0000
  N   N13       1.0  0.4071200000000001  0.47911  0.94404  1.0000
  N   N14       1.0  0.47938  0.32742000000000004  0.93367  1.0000
  N   N15       1.0  0.93235  0.17198  0.83187  1.0000
  N   N16       1.0  0.055990000000000005  0.05023000000000002  0.82535  1.0000
  N   N17       1.0  0.64979  0.9012600000000002  0.7359  1.0000
  N   N18       1.0  0.66647  0.7432700000000002  0.7135  1.0000
  N   N19       1.0  0.89514  0.27059000000000005  0.67277  1.0000
  N   N20       1.0  0.02653000000000001  0.27759000000000006  0.6318600000000002  1.0000
  N   N21       1.0  0.36609000000000014  0.79839  0.02973  1.0000
  N   N22       1.0  0.17194000000000007  0.879  0.8536500000000001  1.0000
  N   N23       1.0  0.0027099999999999984  0.86108  0.70128  1.0000
  N   N24       1.0  0.05916000000000001  0.92877  0.7544300000000003  1.0000
  N   N25       1.0  0.22565000000000004  0.58742  0.58389  1.0000
  N   N26       1.0  0.17611  0.4280700000000001  0.59043  1.0000
  N   N27       1.0  0.90538  0.022269999999999998  0.55497  1.0000
  N   N28       1.0  0.9769700000000002  0.17396  0.5665  1.0000
  N   N29       1.0  0.56906  0.6678700000000001  0.33207  1.0000
  N   N30       1.0  0.44581000000000004  0.5451900000000001  0.326  1.0000
  N   N31       1.0  0.84848  0.39555  0.23715000000000003  1.0000
  N   N32       1.0  0.83194  0.23717000000000005  0.21501000000000006  1.0000
  N   N33       1.0  0.60437  0.7660900000000003  0.17259  1.0000
  N   N34       1.0  0.47258  0.77508  0.1315  1.0000
  N   N35       1.0  0.13214  0.29882  0.52992  1.0000
  N   N36       1.0  0.33010000000000006  0.37513  0.35478  1.0000
  N   N37       1.0  0.4957  0.35654000000000013  0.20225  1.0000
  N   N38       1.0  0.44109  0.4220100000000001  0.2557  1.0000
  N   N39       1.0  0.2727  0.08536000000000003  0.08352  1.0000
  N   N40       1.0  0.32314  0.92657  0.09040000000000002  1.0000
  N   N41       1.0  0.59366  0.52067  0.05589  1.0000
  N   N42       1.0  0.52183  0.6726000000000002  0.0661  1.0000
  N   N43       1.0  0.06759000000000001  0.82825  0.16812  1.0000
  N   N44       1.0  0.94387  0.9499500000000002  0.17461  1.0000
  N   N45       1.0  0.3502  0.09874000000000002  0.26411000000000007  1.0000
  N   N46       1.0  0.3335200000000001  0.25674000000000013  0.2865  1.0000
  N   N47       1.0  0.10486000000000001  0.72942  0.32723000000000013  1.0000
  N   N48       1.0  0.9734400000000002  0.72242  0.36813  1.0000
  N   N49       1.0  0.63383  0.20013000000000006  0.9701100000000001  1.0000
  N   N50       1.0  0.8277300000000001  0.12105000000000003  0.14628000000000002  1.0000
  N   N51       1.0  0.99711  0.13897000000000007  0.2986700000000001  1.0000
  N   N52       1.0  0.9406600000000003  0.07148  0.24548  1.0000
  N   N53       1.0  0.7743500000000001  0.4125800000000001  0.41610000000000014  1.0000
  N   N54       1.0  0.82387  0.57193  0.40956  1.0000
  N   N55       1.0  0.09461  0.9777400000000002  0.44503  1.0000
  N   N56       1.0  0.023020000000000002  0.82604  0.4335  1.0000
  O   O1        1.0  0.77336  0.7975300000000001  0.41827  1.0000
  O   O2        1.0  0.62936  0.84261  0.45441000000000004  1.0000
  O   O3        1.0  0.04274  0.61041  0.44286000000000003  1.0000
  O   O4        1.0  0.10512  0.58095  0.4998  1.0000
  O   O5        1.0  0.77875  0.5456800000000002  0.69793  1.0000
  O   O6        1.0  0.93583  0.54141  0.66554  1.0000
  O   O7        1.0  0.47581  0.67152  0.66981  1.0000
  O   O8        1.0  0.43370000000000003  0.75268  0.6184000000000002  1.0000
  O   O9        1.0  0.27096  0.7022200000000001  0.08082000000000003  1.0000
  O   O10       1.0  0.1214  0.66703  0.04551  1.0000
  O   O11       1.0  0.5403300000000001  0.8891200000000001  0.058210000000000005  1.0000
  O   O12       1.0  0.6045900000000001  0.9191900000000002  0.0018200000000000002  1.0000
  O   O13       1.0  0.2814  0.95973  0.80192  1.0000
  O   O14       1.0  0.43909  0.95939  0.8344800000000001  1.0000
  O   O15       1.0  0.9782700000000002  0.8335100000000001  0.8275900000000003  1.0000
  O   O16       1.0  0.9312500000000001  0.75666  0.8793100000000001  1.0000
  O   O17       1.0  0.22661  0.20248  0.58172  1.0000
  O   O18       1.0  0.3706500000000001  0.1574  0.54559  1.0000
  O   O19       1.0  0.9572500000000003  0.38959  0.55713  1.0000
  O   O20       1.0  0.89487  0.41906  0.50019  1.0000
  O   O21       1.0  0.22126  0.4543600000000001  0.3020800000000001  1.0000
  O   O22       1.0  0.06416000000000001  0.4585800000000001  0.3344500000000001  1.0000
  O   O23       1.0  0.52418  0.3285  0.33019  1.0000
  O   O24       1.0  0.56629  0.24733000000000008  0.3816000000000001  1.0000
  O   O25       1.0  0.72959  0.2972800000000001  0.9193000000000002  1.0000
  O   O26       1.0  0.8804300000000003  0.3283800000000001  0.9544200000000002  1.0000
  O   O27       1.0  0.45931  0.11062  0.94168  1.0000
  O   O28       1.0  0.39467000000000013  0.08061000000000007  0.9981100000000003  1.0000
  O   O29       1.0  0.7184800000000002  0.04026  0.19811000000000006  1.0000
  O   O30       1.0  0.56076  0.04054000000000001  0.16556000000000004  1.0000
  O   O31       1.0  0.021720000000000003  0.16655  0.17209  1.0000
  O   O32       1.0  0.06839  0.24300000000000005  0.12025  1.0000
