data_image0
_chemical_formula_structural       Cd10H192C256N16O32
_chemical_formula_sum              "Cd10 H192 C256 N16 O32"
_cell_length_a       4.90738
_cell_length_b       22.16565
_cell_length_c       70.72427
_cell_angle_alpha    89.79140999999998
_cell_angle_beta     87.55231
_cell_angle_gamma    83.47861

_space_group_name_H-M_alt    "P 1"
_space_group_IT_number       1

loop_
  _space_group_symop_operation_xyz
  'x, y, z'

loop_
  _atom_site_type_symbol
  _atom_site_label
  _atom_site_symmetry_multiplicity
  _atom_site_fract_x
  _atom_site_fract_y
  _atom_site_fract_z
  _atom_site_occupancy
  Cd  Cd1       1.0  0.35703  0.4062799999999999  0.8276  1.0000
  Cd  Cd2       1.0  0.5916099999999999  0.34272  0.8606800000000001  1.0000
  Cd  Cd3       1.0  0.58788  0.58541  0.17232  1.0000
  Cd  Cd4       1.0  0.7988499999999998  0.6555  0.13997  1.0000
  Cd  Cd5       1.0  0.94525  0.90756  0.672  1.0000
  Cd  Cd6       1.0  0.18354999999999994  0.84578  0.63755  1.0000
  Cd  Cd7       1.0  0.52244  0.09021999999999998  0.32692  1.0000
  Cd  Cd8       1.0  0.7047099999999998  0.15382999999999997  0.3601000000000001  1.0000
  Cd  Cd9       1.0  0.26009999999999994  0.9999  0.99958  1.0000
  Cd  Cd10      1.0  0.0024000000000000445  0.5002999999999999  0.49993000000000004  1.0000
  H   H1        1.0  0.3668399999999997  0.9909299999999998  0.6819100000000002  1.0000
  H   H2        1.0  0.54831  0.041409999999999995  0.7091  1.0000
  H   H3        1.0  0.9010500000000002  0.97525  0.74418  1.0000
  H   H4        1.0  0.7481800000000003  0.9260599999999998  0.71522  1.0000
  H   H5        1.0  0.19765000000000008  0.0438  0.75794  1.0000
  H   H6        1.0  0.6570099999999999  0.08241  0.73102  1.0000
  H   H7        1.0  0.9527599999999999  0.14635  0.7445600000000001  1.0000
  H   H8        1.0  0.058609999999999954  0.21506999999999996  0.76974  1.0000
  H   H9        1.0  0.36898  0.16424999999999998  0.80336  1.0000
  H   H10       1.0  0.28821  0.08929  0.7794900000000001  1.0000
  H   H11       1.0  0.6010299999999996  0.24103  0.8150100000000002  1.0000
  H   H12       1.0  0.00937000000000002  0.29129  0.78653  1.0000
  H   H13       1.0  0.07227999999999996  0.9561799999999999  0.9551  1.0000
  H   H14       1.0  0.18616000000000002  0.8585199999999997  0.9378100000000001  1.0000
  H   H15       1.0  0.9247899999999997  0.8297099999999998  0.9693300000000001  1.0000
  H   H16       1.0  0.7824899999999997  0.92747  0.9843100000000001  1.0000
  H   H17       1.0  0.50007  0.76796  0.93  1.0000
  H   H18       1.0  0.03752999999999994  0.75481  0.95142  1.0000
  H   H19       1.0  0.68051  0.70303  0.90816  1.0000
  H   H20       1.0  0.8897200000000001  0.62153  0.88772  1.0000
  H   H21       1.0  0.58753  0.59408  0.9221900000000001  1.0000
  H   H22       1.0  0.37654999999999994  0.675  0.9436800000000001  1.0000
  H   H23       1.0  0.5851299999999999  0.53335  0.8920700000000001  1.0000
  H   H24       1.0  0.045819999999999965  0.55777  0.8711200000000001  1.0000
  H   H25       1.0  0.2727299999999999  0.8652399999999999  0.74335  1.0000
  H   H26       1.0  0.40106000000000014  0.9452099999999999  0.7651000000000001  1.0000
  H   H27       1.0  0.11768999999999988  0.82332  0.7777000000000001  1.0000
  H   H28       1.0  0.9577600000000002  0.7480899999999998  0.75603  1.0000
  H   H29       1.0  0.7452799999999997  0.98287  0.7839800000000002  1.0000
  H   H30       1.0  0.19610000000000002  0.8854999999999997  0.7968500000000002  1.0000
  H   H31       1.0  0.8225799999999995  0.0432  0.8001200000000003  1.0000
  H   H32       1.0  0.9517300000000001  0.12487999999999999  0.8191200000000002  1.0000
  H   H33       1.0  0.6828299999999998  0.013929999999999996  0.8347800000000002  1.0000
  H   H34       1.0  0.5356999999999997  0.9269599999999998  0.81716  1.0000
  H   H35       1.0  0.6043199999999997  0.12072  0.8453600000000001  1.0000
  H   H36       1.0  0.11841  0.20072  0.82878  1.0000
  H   H37       1.0  0.07575999999999984  0.4189  0.8841700000000002  1.0000
  H   H38       1.0  0.46603000000000017  0.3760199999999999  0.90338  1.0000
  H   H39       1.0  0.2056299999999998  0.19798999999999997  0.8946800000000001  1.0000
  H   H40       1.0  0.89109  0.24489999999999998  0.8716  1.0000
  H   H41       1.0  0.5525099999999997  0.20077999999999993  0.9124900000000001  1.0000
  H   H42       1.0  0.80297  0.31778999999999996  0.92189  1.0000
  H   H43       1.0  0.14916999999999994  0.30306  0.94395  1.0000
  H   H44       1.0  0.4433400000000001  0.23721  0.96489  1.0000
  H   H45       1.0  0.026019999999999967  0.08442000000000001  0.9500900000000001  1.0000
  H   H46       1.0  0.71937  0.15067  0.9307000000000001  1.0000
  H   H47       1.0  0.4498999999999999  0.06596  0.96551  1.0000
  H   H48       1.0  0.6867799999999998  0.1771  0.9815800000000001  1.0000
  H   H49       1.0  0.04277999999999999  0.007959999999999998  0.31746  1.0000
  H   H50       1.0  0.3097500000000002  0.9576599999999997  0.2901  1.0000
  H   H51       1.0  0.63228  0.02198  0.25529  1.0000
  H   H52       1.0  0.39379999999999993  0.07146  0.28432  1.0000
  H   H53       1.0  0.011610000000000065  0.95589  0.24149000000000004  1.0000
  H   H54       1.0  0.49039  0.9190699999999999  0.26758  1.0000
  H   H55       1.0  0.8528999999999999  0.8530899999999999  0.2540700000000001  1.0000
  H   H56       1.0  0.03990999999999995  0.77988  0.22947  1.0000
  H   H57       1.0  0.3253600000000001  0.82974  0.1971  1.0000
  H   H58       1.0  0.1612599999999999  0.90946  0.22002000000000005  1.0000
  H   H59       1.0  0.64294  0.7488299999999999  0.18599  1.0000
  H   H60       1.0  0.12057999999999996  0.70762  0.21151000000000003  1.0000
  H   H61       1.0  0.9769  0.043049999999999984  0.04464  1.0000
  H   H62       1.0  0.97284  0.14071  0.06188000000000001  1.0000
  H   H63       1.0  0.7232400000000001  0.16771999999999998  0.030410000000000003  1.0000
  H   H64       1.0  0.69964  0.06952  0.01588  1.0000
  H   H65       1.0  0.19909999999999997  0.22957  0.0703  1.0000
  H   H66       1.0  0.7338799999999999  0.24422  0.047390000000000015  1.0000
  H   H67       1.0  0.29404000000000013  0.2968799999999999  0.09175000000000003  1.0000
  H   H68       1.0  0.39758000000000004  0.37932  0.11147  1.0000
  H   H69       1.0  0.10837  0.4034699999999999  0.07593000000000003  1.0000
  H   H70       1.0  0.99686  0.32177  0.05536000000000001  1.0000
  H   H71       1.0  0.0024700000000000633  0.4693399999999999  0.10575  1.0000
  H   H72       1.0  0.4935999999999999  0.43906999999999996  0.12908  1.0000
  H   H73       1.0  0.8771399999999998  0.1359  0.25693000000000005  1.0000
  H   H74       1.0  0.10924000000000002  0.05665  0.23468  1.0000
  H   H75       1.0  0.7228  0.17729999999999999  0.22248  1.0000
  H   H76       1.0  0.46253  0.25254  0.24438000000000001  1.0000
  H   H77       1.0  0.50699  0.018869999999999998  0.21576000000000004  1.0000
  H   H78       1.0  0.88437  0.1145  0.203  1.0000
  H   H79       1.0  0.66459  0.95744  0.20033000000000006  1.0000
  H   H80       1.0  0.89636  0.87414  0.18219000000000005  1.0000
  H   H81       1.0  0.53667  0.98305  0.16527  1.0000
  H   H82       1.0  0.28384  0.07105  0.18254  1.0000
  H   H83       1.0  0.5878300000000001  0.87378  0.15666  1.0000
  H   H84       1.0  0.12209999999999999  0.80021  0.17007000000000003  1.0000
  H   H85       1.0  0.38037999999999994  0.58183  0.11576000000000002  1.0000
  H   H86       1.0  0.7582099999999999  0.62448  0.0972  1.0000
  H   H87       1.0  0.31896  0.8030599999999999  0.10673000000000003  1.0000
  H   H88       1.0  0.007630000000000127  0.7557899999999997  0.12867  1.0000
  H   H89       1.0  0.6738299999999998  0.79972  0.08767000000000003  1.0000
  H   H90       1.0  0.05628  0.68325  0.07822000000000001  1.0000
  H   H91       1.0  0.4050800000000001  0.6974599999999999  0.05557000000000001  1.0000
  H   H92       1.0  0.6504700000000002  0.7625599999999998  0.0339  1.0000
  H   H93       1.0  0.06891999999999995  0.91624  0.04944000000000001  1.0000
  H   H94       1.0  0.8104400000000003  0.8505499999999998  0.06946  1.0000
  H   H95       1.0  0.4855600000000002  0.9342399999999997  0.03338  1.0000
  H   H96       1.0  0.8585200000000002  0.8220199999999999  0.018120000000000008  1.0000
  H   H97       1.0  0.79427  0.48881999999999987  0.8180500000000003  1.0000
  H   H98       1.0  0.007809999999999866  0.54034  0.7909700000000002  1.0000
  H   H99       1.0  0.4013499999999999  0.47552  0.7557900000000002  1.0000
  H   H100      1.0  0.21414999999999992  0.42539999999999994  0.7845500000000002  1.0000
  H   H101      1.0  0.7062699999999997  0.5446  0.74236  1.0000
  H   H102      1.0  0.15045999999999995  0.5798599999999999  0.7684100000000003  1.0000
  H   H103      1.0  0.45016  0.6467199999999999  0.7549300000000002  1.0000
  H   H104      1.0  0.57321  0.7175399999999998  0.73002  1.0000
  H   H105      1.0  0.9164200000000001  0.6667399999999999  0.69709  1.0000
  H   H106      1.0  0.8141200000000001  0.5911099999999999  0.72076  1.0000
  H   H107      1.0  0.15386000000000002  0.74496  0.68564  1.0000
  H   H108      1.0  0.5616100000000002  0.79243  0.7119  1.0000
  H   H109      1.0  0.7728299999999998  0.45704  0.54462  1.0000
  H   H110      1.0  0.87045  0.35901  0.56162  1.0000
  H   H111      1.0  0.64601  0.33214999999999995  0.52997  1.0000
  H   H112      1.0  0.52099  0.4307199999999999  0.51557  1.0000
  H   H113      1.0  0.18162000000000003  0.2714599999999999  0.56993  1.0000
  H   H114      1.0  0.73728  0.2564  0.54763  1.0000
  H   H115      1.0  0.33594999999999997  0.20661999999999997  0.5916900000000002  1.0000
  H   H116      1.0  0.51492  0.12393999999999998  0.61181  1.0000
  H   H117      1.0  0.25545  0.09649999999999999  0.57679  1.0000
  H   H118      1.0  0.07042999999999998  0.17902  0.55595  1.0000
  H   H119      1.0  0.22083999999999981  0.03574  0.6062800000000003  1.0000
  H   H120      1.0  0.6608899999999999  0.05613  0.62801  1.0000
  H   H121      1.0  0.7571899999999999  0.36366999999999994  0.7569300000000001  1.0000
  H   H122      1.0  0.90944  0.44349999999999995  0.73506  1.0000
  H   H123      1.0  0.6450600000000003  0.32238  0.72253  1.0000
  H   H124      1.0  0.4599199999999999  0.24717999999999996  0.74427  1.0000
  H   H125      1.0  0.2735  0.48173999999999995  0.71629  1.0000
  H   H126      1.0  0.7437200000000002  0.3851699999999999  0.70322  1.0000
  H   H127      1.0  0.3740000000000001  0.54344  0.70053  1.0000
  H   H128      1.0  0.5276599999999997  0.6248999999999999  0.6815700000000002  1.0000
  H   H129      1.0  0.2735199999999998  0.5133  0.66547  1.0000
  H   H130      1.0  0.10574999999999997  0.4268799999999999  0.68321  1.0000
  H   H131      1.0  0.20133999999999985  0.6200499999999999  0.6543100000000002  1.0000
  H   H132      1.0  0.7025200000000001  0.7014499999999999  0.67107  1.0000
  H   H133      1.0  0.7037500000000001  0.92024  0.61501  1.0000
  H   H134      1.0  0.11070999999999981  0.8750899999999999  0.5953200000000002  1.0000
  H   H135      1.0  0.8381700000000001  0.6982199999999998  0.60611  1.0000
  H   H136      1.0  0.51396  0.74751  0.6301  1.0000
  H   H137      1.0  0.20764000000000002  0.6994899999999997  0.58764  1.0000
  H   H138      1.0  0.47259  0.81682  0.57864  1.0000
  H   H139      1.0  0.83488  0.8041199999999998  0.55599  1.0000
  H   H140      1.0  0.14750000000000021  0.7405599999999998  0.53402  1.0000
  H   H141      1.0  0.7395900000000001  0.5849099999999999  0.5494500000000001  1.0000
  H   H142      1.0  0.4151599999999999  0.64847  0.57009  1.0000
  H   H143      1.0  0.16990000000000002  0.5685599999999998  0.53287  1.0000
  H   H144      1.0  0.42924999999999996  0.68111  0.51798  1.0000
  H   H145      1.0  0.08887000000000003  0.5026499999999999  0.18177000000000004  1.0000
  H   H146      1.0  0.3306099999999999  0.45531  0.20916000000000007  1.0000
  H   H147      1.0  0.62606  0.52451  0.24451  1.0000
  H   H148      1.0  0.41231  0.57083  0.21554  1.0000
  H   H149      1.0  0.9908900000000002  0.45788999999999996  0.2583700000000001  1.0000
  H   H150      1.0  0.5042200000000001  0.42038  0.23267000000000002  1.0000
  H   H151      1.0  0.85347  0.35357  0.24653000000000003  1.0000
  H   H152      1.0  0.00697999999999997  0.28099  0.27084  1.0000
  H   H153      1.0  0.2502  0.33028  0.3031  1.0000
  H   H154      1.0  0.11491999999999998  0.40943  0.2802400000000001  1.0000
  H   H155      1.0  0.5510899999999999  0.24742999999999998  0.3141600000000001  1.0000
  H   H156      1.0  0.07394  0.21371  0.28923  1.0000
  H   H157      1.0  0.7819900000000001  0.5431599999999999  0.45527000000000006  1.0000
  H   H158      1.0  0.7950499999999999  0.6410699999999999  0.43816000000000005  1.0000
  H   H159      1.0  0.5053100000000004  0.66958  0.46944  1.0000
  H   H160      1.0  0.46689  0.57129  0.48422000000000004  1.0000
  H   H161      1.0  0.02295999999999995  0.7305  0.43004  1.0000
  H   H162      1.0  0.5388100000000001  0.7442699999999998  0.45208  1.0000
  H   H163      1.0  0.13970000000000002  0.7950099999999999  0.4083100000000001  1.0000
  H   H164      1.0  0.26424000000000003  0.87698  0.38797  1.0000
  H   H165      1.0  0.93326  0.9045  0.42308  1.0000
  H   H166      1.0  0.80128  0.8231799999999998  0.44418  1.0000
  H   H167      1.0  0.8687  0.96566  0.3928  1.0000
  H   H168      1.0  0.3581300000000002  0.9433399999999997  0.37117  1.0000
  H   H169      1.0  0.8918699999999999  0.6342499999999999  0.24337  1.0000
  H   H170      1.0  0.10072000000000002  0.5547499999999999  0.26524  1.0000
  H   H171      1.0  0.69425  0.6764399999999999  0.27786  1.0000
  H   H172      1.0  0.45862  0.7515399999999999  0.2560900000000001  1.0000
  H   H173      1.0  0.4777300000000004  0.51708  0.28418  1.0000
  H   H174      1.0  0.8364799999999999  0.6132699999999999  0.29693  1.0000
  H   H175      1.0  0.6127  0.4562  0.30042  1.0000
  H   H176      1.0  0.82752  0.37422999999999995  0.3192000000000001  1.0000
  H   H177      1.0  0.44614  0.48506  0.3348500000000001  1.0000
  H   H178      1.0  0.20975000000000005  0.5717499999999999  0.31724  1.0000
  H   H179      1.0  0.4919600000000003  0.37773  0.34372  1.0000
  H   H180      1.0  0.0635  0.29846999999999996  0.33042  1.0000
  H   H181      1.0  0.2587499999999999  0.08106  0.3840700000000001  1.0000
  H   H182      1.0  0.60986  0.12476999999999999  0.4027600000000001  1.0000
  H   H183      1.0  0.16560999999999995  0.30242  0.39364  1.0000
  H   H184      1.0  0.88906  0.25368  0.37151  1.0000
  H   H185      1.0  0.5113499999999999  0.2996599999999999  0.41227000000000014  1.0000
  H   H186      1.0  0.87994  0.18244999999999995  0.4215300000000001  1.0000
  H   H187      1.0  0.20239999999999997  0.19574  0.44452  1.0000
  H   H188      1.0  0.42644000000000004  0.26025  0.46598000000000006  1.0000
  H   H189      1.0  0.87177  0.4147999999999999  0.45046000000000014  1.0000
  H   H190      1.0  0.6355900000000001  0.35011  0.4303  1.0000
  H   H191      1.0  0.27078  0.4326999999999999  0.4660500000000001  1.0000
  H   H192      1.0  0.6173200000000001  0.32071  0.4822  1.0000
  C   C1        1.0  0.26926000000000005  0.9890999999999999  0.69591  1.0000
  C   C2        1.0  0.37474999999999997  0.015690000000000003  0.7111700000000002  1.0000
  C   C3        1.0  0.23643999999999996  0.013419999999999998  0.72913  1.0000
  C   C4        1.0  0.007849999999999973  0.9804999999999999  0.73064  1.0000
  C   C5        1.0  0.9160799999999999  0.9541499999999999  0.7146  1.0000
  C   C6        1.0  0.3220099999999998  0.04536  0.7448700000000003  1.0000
  C   C7        1.0  0.53578  0.07947999999999997  0.74416  1.0000
  C   C8        1.0  0.6071499999999997  0.11495  0.7596500000000003  1.0000
  C   C9        1.0  0.8310200000000001  0.14891  0.75777  1.0000
  C   C10       1.0  0.89588  0.18657999999999994  0.77223  1.0000
  C   C11       1.0  0.71767  0.19447999999999993  0.78855  1.0000
  C   C12       1.0  0.50214  0.15860999999999997  0.79074  1.0000
  C   C13       1.0  0.44774999999999987  0.11837999999999997  0.7768800000000001  1.0000
  C   C14       1.0  0.73232  0.24198999999999998  0.80222  1.0000
  C   C15       1.0  0.8860899999999999  0.28776  0.79963  1.0000
  C   C16       1.0  0.9181100000000001  0.33479  0.81321  1.0000
  C   C17       1.0  0.2572400000000001  0.9265  0.95794  1.0000
  C   C18       1.0  0.32748999999999995  0.872  0.94791  1.0000
  C   C19       1.0  0.57024  0.8343399999999997  0.95124  1.0000
  C   C20       1.0  0.7356899999999996  0.85497  0.9651500000000001  1.0000
  C   C21       1.0  0.6528199999999998  0.9099399999999997  0.97423  1.0000
  C   C22       1.0  0.64888  0.77922  0.94014  1.0000
  C   C23       1.0  0.8950200000000003  0.7445099999999998  0.94074  1.0000
  C   C24       1.0  0.006199999999999836  0.69492  0.9283400000000002  1.0000
  C   C25       1.0  0.8741399999999998  0.67853  0.9119000000000002  1.0000
  C   C26       1.0  0.0016899999999999743  0.63434  0.89964  1.0000
  C   C27       1.0  0.26237999999999995  0.60348  0.9023500000000002  1.0000
  C   C28       1.0  0.39338000000000006  0.61892  0.9188500000000001  1.0000
  C   C29       1.0  0.26526999999999984  0.66324  0.9314700000000001  1.0000
  C   C30       1.0  0.3805  0.5554199999999999  0.8893000000000002  1.0000
  C   C31       1.0  0.24695999999999982  0.5352299999999999  0.8744300000000003  1.0000
  C   C32       1.0  0.3476399999999999  0.48313  0.8625600000000002  1.0000
  C   C33       1.0  0.44970000000000004  0.8560799999999997  0.75199  1.0000
  C   C34       1.0  0.52707  0.90175  0.76373  1.0000
  C   C35       1.0  0.7707600000000001  0.8913999999999997  0.77321  1.0000
  C   C36       1.0  0.9303999999999999  0.83435  0.7703600000000003  1.0000
  C   C37       1.0  0.8351600000000002  0.7917499999999997  0.7586  1.0000
  C   C38       1.0  0.8596699999999999  0.93801  0.7848700000000001  1.0000
  C   C39       1.0  0.08061000000000006  0.9302299999999999  0.79596  1.0000
  C   C40       1.0  0.17154999999999998  0.9783799999999998  0.80685  1.0000
  C   C41       1.0  0.008019999999999956  0.03559  0.80787  1.0000
  C   C42       1.0  0.08776999999999988  0.08276  0.8182100000000002  1.0000
  C   C43       1.0  0.33499  0.07695  0.82744  1.0000
  C   C44       1.0  0.49866000000000005  0.02016  0.82676  1.0000
  C   C45       1.0  0.41422999999999977  0.97112  0.8167600000000002  1.0000
  C   C46       1.0  0.4206099999999999  0.12866  0.83722  1.0000
  C   C47       1.0  0.29816  0.18701999999999996  0.83681  1.0000
  C   C48       1.0  0.4219999999999999  0.23517  0.8466300000000001  1.0000
  C   C49       1.0  0.11477999999999983  0.37011  0.8865500000000002  1.0000
  C   C50       1.0  0.3306699999999998  0.3461  0.8974000000000002  1.0000
  C   C51       1.0  0.36752999999999997  0.28182999999999997  0.9012  1.0000
  C   C52       1.0  0.1877699999999998  0.24693  0.8925900000000002  1.0000
  C   C53       1.0  0.0019200000000000174  0.27281999999999995  0.88036  1.0000
  C   C54       1.0  0.56524  0.24975999999999998  0.91215  1.0000
  C   C55       1.0  0.7652899999999999  0.27031  0.92246  1.0000
  C   C56       1.0  0.92362  0.23144999999999993  0.93499  1.0000
  C   C57       1.0  0.12849999999999998  0.25494  0.9450600000000001  1.0000
  C   C58       1.0  0.29256  0.21807999999999994  0.9567500000000001  1.0000
  C   C59       1.0  0.26235999999999987  0.15530999999999998  0.9584  1.0000
  C   C60       1.0  0.048089999999999945  0.13253  0.94917  1.0000
  C   C61       1.0  0.87943  0.1701  0.9378500000000001  1.0000
  C   C62       1.0  0.4521600000000003  0.11458999999999997  0.96793  1.0000
  C   C63       1.0  0.6637599999999998  0.13047  0.9780800000000001  1.0000
  C   C64       1.0  0.8589200000000002  0.08258  0.98509  1.0000
  C   C65       1.0  0.9604500000000001  0.00947  0.30342  1.0000
  C   C66       1.0  0.11260999999999989  0.98354  0.2881500000000001  1.0000
  C   C67       1.0  0.99182  0.98625  0.27021  1.0000
  C   C68       1.0  0.7297099999999997  0.01826  0.2688000000000001  1.0000
  C   C69       1.0  0.5907299999999999  0.04387999999999999  0.28483  1.0000
  C   C70       1.0  0.12595999999999996  0.955  0.25437  1.0000
  C   C71       1.0  0.37459999999999993  0.92124  0.2547500000000001  1.0000
  C   C72       1.0  0.49027  0.88425  0.23935000000000003  1.0000
  C   C73       1.0  0.7439000000000001  0.8492  0.24117000000000002  1.0000
  C   C74       1.0  0.85361  0.80934  0.22709000000000001  1.0000
  C   C75       1.0  0.6948700000000002  0.8005099999999999  0.21125  1.0000
  C   C76       1.0  0.44528000000000006  0.83679  0.20925000000000005  1.0000
  C   C77       1.0  0.34472999999999987  0.87954  0.22262000000000007  1.0000
  C   C78       1.0  0.7720000000000001  0.75221  0.19802  1.0000
  C   C79       1.0  0.9860300000000001  0.7096099999999999  0.19957000000000005  1.0000
  C   C80       1.0  0.04908999999999988  0.66104  0.18602000000000005  1.0000
  C   C81       1.0  0.13635  0.07237999999999999  0.04182  1.0000
  C   C82       1.0  0.14083  0.12703  0.05184  1.0000
  C   C83       1.0  0.35155000000000003  0.16416999999999998  0.04852  1.0000
  C   C84       1.0  0.55328  0.14306  0.03458  1.0000
  C   C85       1.0  0.53691  0.08772999999999999  0.025630000000000007  1.0000
  C   C86       1.0  0.3660899999999999  0.21911999999999998  0.059710000000000006  1.0000
  C   C87       1.0  0.57598  0.25442  0.05863  1.0000
  C   C88       1.0  0.62925  0.3038  0.071  1.0000
  C   C89       1.0  0.46590000000000004  0.32114999999999994  0.08757  1.0000
  C   C90       1.0  0.53619  0.36604999999999993  0.09949000000000002  1.0000
  C   C91       1.0  0.76938  0.39629  0.09622  1.0000
  C   C92       1.0  0.93378  0.37964  0.07974000000000003  1.0000
  C   C93       1.0  0.8613  0.33466999999999997  0.06755  1.0000
  C   C94       1.0  0.82655  0.44455  0.10896  1.0000
  C   C95       1.0  0.66694  0.4625599999999999  0.12450000000000001  1.0000
  C   C96       1.0  0.69856  0.51458  0.13637000000000002  1.0000
  C   C97       1.0  0.054910000000000014  0.14524  0.24825  1.0000
  C   C98       1.0  0.19063  0.09988999999999998  0.23631  1.0000
  C   C99       1.0  0.43554  0.10999  0.22684000000000004  1.0000
  C   C100      1.0  0.53678  0.16663  0.2298  1.0000
  C   C101      1.0  0.38576  0.20913  0.24169  1.0000
  C   C102      1.0  0.58185  0.06326  0.21500000000000002  1.0000
  C   C103      1.0  0.8081300000000001  0.07025999999999999  0.20383  1.0000
  C   C104      1.0  0.9569699999999999  0.02129  0.19306  1.0000
  C   C105      1.0  0.85114  0.96436  0.19246000000000005  1.0000
  C   C106      1.0  0.9908900000000002  0.9160299999999999  0.18254  1.0000
  C   C107      1.0  0.24395000000000003  0.92046  0.17321  1.0000
  C   C108      1.0  0.3506  0.9771599999999999  0.17348000000000005  1.0000
  C   C109      1.0  0.20501000000000003  0.027199999999999995  0.18311000000000002  1.0000
  C   C110      1.0  0.39126999999999995  0.8677999999999999  0.16356000000000007  1.0000
  C   C111      1.0  0.3106900000000001  0.81094  0.16304  1.0000
  C   C112      1.0  0.4830400000000001  0.7598299999999999  0.15374  1.0000
  C   C113      1.0  0.37475  0.6306599999999999  0.11343  1.0000
  C   C114      1.0  0.58297  0.65446  0.10290000000000003  1.0000
  C   C115      1.0  0.5620099999999999  0.71871  0.09930000000000003  1.0000
  C   C116      1.0  0.3393699999999999  0.75391  0.10822000000000002  1.0000
  C   C117      1.0  0.1582800000000001  0.7279599999999999  0.11997000000000001  1.0000
  C   C118      1.0  0.73815  0.7509999999999999  0.08819  1.0000
  C   C119      1.0  0.96983  0.7305399999999999  0.07762  1.0000
  C   C120      1.0  0.10003000000000002  0.7694499999999999  0.06487  1.0000
  C   C121      1.0  0.3373  0.7456  0.05445  1.0000
  C   C122      1.0  0.4747700000000001  0.7820699999999999  0.04243  1.0000
  C   C123      1.0  0.38288  0.8448999999999999  0.04087  1.0000
  C   C124      1.0  0.13726  0.86803  0.05038  1.0000
  C   C125      1.0  0.9961099999999998  0.83079  0.06207  1.0000
  C   C126      1.0  0.54287  0.8854699999999999  0.031230000000000004  1.0000
  C   C127      1.0  0.78536  0.86881  0.02151  1.0000
  C   C128      1.0  0.9492100000000001  0.9155799999999997  0.014520000000000002  1.0000
  C   C129      1.0  0.71432  0.4872799999999999  0.8040000000000003  1.0000
  C   C130      1.0  0.8385799999999999  0.51415  0.78883  1.0000
  C   C131      1.0  0.7212599999999997  0.5123199999999999  0.7708600000000002  1.0000
  C   C132      1.0  0.49374999999999997  0.47963999999999996  0.76931  1.0000
  C   C133      1.0  0.3824  0.45313  0.78524  1.0000
  C   C134      1.0  0.8214200000000003  0.5449  0.75517  1.0000
  C   C135      1.0  0.03575999999999988  0.57878  0.7556100000000002  1.0000
  C   C136      1.0  0.11662999999999989  0.61582  0.7402400000000002  1.0000
  C   C137      1.0  0.33749999999999986  0.6502199999999999  0.7419900000000003  1.0000
  C   C138      1.0  0.41314  0.68896  0.72768  1.0000
  C   C139      1.0  0.25149  0.69745  0.71152  1.0000
  C   C140      1.0  0.037779999999999966  0.66128  0.70953  1.0000
  C   C141      1.0  0.97137  0.62024  0.7232700000000001  1.0000
  C   C142      1.0  0.28269999999999995  0.74468  0.6977800000000001  1.0000
  C   C143      1.0  0.44448999999999994  0.7894099999999998  0.6993200000000003  1.0000
  C   C144      1.0  0.47674000000000005  0.83719  0.6856  1.0000
  C   C145      1.0  0.9617799999999997  0.42774999999999996  0.5416400000000002  1.0000
  C   C146      1.0  0.02277999999999994  0.3732  0.5515600000000002  1.0000
  C   C147      1.0  0.27100999999999986  0.33608999999999994  0.54815  1.0000
  C   C148      1.0  0.45147  0.3571099999999999  0.5342200000000001  1.0000
  C   C149      1.0  0.3778500000000001  0.4124  0.52535  1.0000
  C   C150      1.0  0.33923  0.2815599999999999  0.5594  1.0000
  C   C151      1.0  0.5855299999999999  0.24653999999999995  0.55866  1.0000
  C   C152      1.0  0.6823899999999999  0.19749  0.5712400000000001  1.0000
  C   C153      1.0  0.53113  0.18110999999999997  0.58771  1.0000
  C   C154      1.0  0.6418599999999999  0.13613  0.5997900000000003  1.0000
  C   C155      1.0  0.9048999999999999  0.10474999999999998  0.5967700000000002  1.0000
  C   C156      1.0  0.057410000000000044  0.12110999999999998  0.58039  1.0000
  C   C157      1.0  0.94533  0.16615  0.56805  1.0000
  C   C158      1.0  0.01140999999999999  0.056399999999999985  0.6096  1.0000
  C   C159      1.0  0.8686  0.03489  0.62462  1.0000
  C   C160      1.0  0.9636199999999994  0.98338  0.6366100000000001  1.0000
  C   C161      1.0  0.94458  0.3545899999999999  0.74825  1.0000
  C   C162      1.0  0.03488000000000004  0.4002099999999999  0.73647  1.0000
  C   C163      1.0  0.29027999999999987  0.39013  0.7269900000000001  1.0000
  C   C164      1.0  0.44814000000000004  0.33328  0.72982  1.0000
  C   C165      1.0  0.3397099999999999  0.29068  0.74162  1.0000
  C   C166      1.0  0.39120000000000005  0.43707  0.7153700000000001  1.0000
  C   C167      1.0  0.6257699999999999  0.42973999999999996  0.7043  1.0000
  C   C168      1.0  0.7292499999999998  0.47814999999999996  0.6935100000000002  1.0000
  C   C169      1.0  0.5674900000000002  0.5354299999999999  0.69264  1.0000
  C   C170      1.0  0.6606500000000001  0.5825  0.68235  1.0000
  C   C171      1.0  0.9173199999999999  0.57672  0.67295  1.0000
  C   C172      1.0  0.08077999999999987  0.51995  0.6735800000000002  1.0000
  C   C173      1.0  0.9838799999999999  0.47098999999999996  0.68358  1.0000
  C   C174      1.0  0.011279999999999955  0.6280999999999999  0.6627800000000001  1.0000
  C   C175      1.0  0.88968  0.68667  0.66302  1.0000
  C   C176      1.0  0.022760000000000044  0.7336299999999999  0.65262  1.0000
  C   C177      1.0  0.74864  0.8711499999999999  0.61329  1.0000
  C   C178      1.0  0.9752700000000001  0.8457999999999999  0.60236  1.0000
  C   C179      1.0  0.013040000000000085  0.7810799999999999  0.59897  1.0000
  C   C180      1.0  0.82405  0.7472299999999997  0.60813  1.0000
  C   C181      1.0  0.63357  0.77434  0.62084  1.0000
  C   C182      1.0  0.22215000000000004  0.74854  0.58802  1.0000
  C   C183      1.0  0.4370899999999999  0.76911  0.57804  1.0000
  C   C184      1.0  0.61164  0.73089  0.5653800000000002  1.0000
  C   C185      1.0  0.8199500000000002  0.75583  0.55482  1.0000
  C   C186      1.0  0.9949  0.7202199999999999  0.54258  1.0000
  C   C187      1.0  0.9746799999999999  0.65717  0.5409  1.0000
  C   C188      1.0  0.75557  0.6331399999999999  0.55052  1.0000
  C   C189      1.0  0.57587  0.6692399999999998  0.56246  1.0000
  C   C190      1.0  0.17703000000000008  0.61727  0.53094  1.0000
  C   C191      1.0  0.40412000000000003  0.63388  0.52116  1.0000
  C   C192      1.0  0.61265  0.58699  0.5143600000000002  1.0000
  C   C193      1.0  0.9959300000000001  0.5066799999999999  0.19599000000000005  1.0000
  C   C194      1.0  0.13527999999999998  0.48236  0.21130000000000004  1.0000
  C   C195      1.0  0.000620000000000065  0.4869499999999999  0.22953  1.0000
  C   C196      1.0  0.73672  0.51931  0.23095  1.0000
  C   C197      1.0  0.61055  0.5434  0.21493000000000007  1.0000
  C   C198      1.0  0.12058000000000005  0.45656999999999986  0.24545  1.0000
  C   C199      1.0  0.3699799999999999  0.4223  0.24535  1.0000
  C   C200      1.0  0.4674299999999999  0.38514  0.26082  1.0000
  C   C201      1.0  0.72412  0.34996  0.25925  1.0000
  C   C202      1.0  0.81605  0.30991  0.27333  1.0000
  C   C203      1.0  0.6381899999999999  0.30055999999999994  0.28921  1.0000
  C   C204      1.0  0.38630999999999976  0.33699999999999997  0.2910100000000001  1.0000
  C   C205      1.0  0.30267  0.37984  0.27759  1.0000
  C   C206      1.0  0.7007099999999999  0.25224  0.30255  1.0000
  C   C207      1.0  0.92613  0.21227  0.30108  1.0000
  C   C208      1.0  0.00225999999999995  0.16242999999999996  0.3136400000000001  1.0000
  C   C209      1.0  0.93625  0.57287  0.4581700000000001  1.0000
  C   C210      1.0  0.9509999999999998  0.6273799999999999  0.44816  1.0000
  C   C211      1.0  0.15570000000000003  0.6649699999999998  0.45152  1.0000
  C   C212      1.0  0.3419399999999998  0.6442199999999999  0.46537000000000006  1.0000
  C   C213      1.0  0.31640999999999997  0.58912  0.47439000000000003  1.0000
  C   C214      1.0  0.17966999999999997  0.71997  0.44042  1.0000
  C   C215      1.0  0.3894999999999999  0.75495  0.4412000000000001  1.0000
  C   C216      1.0  0.4529400000000001  0.80391  0.4286800000000001  1.0000
  C   C217      1.0  0.30619000000000024  0.8200199999999997  0.41215  1.0000
  C   C218      1.0  0.38845999999999997  0.86444  0.3999800000000001  1.0000
  C   C219      1.0  0.61735  0.8953199999999999  0.40303  1.0000
  C   C220      1.0  0.7651399999999999  0.87957  0.41946  1.0000
  C   C221      1.0  0.6805400000000001  0.83513  0.43191  1.0000
  C   C222      1.0  0.6867100000000002  0.9433199999999998  0.39017  1.0000
  C   C223      1.0  0.5373899999999999  0.96398  0.37528  1.0000
  C   C224      1.0  0.59659  0.01615  0.36373  1.0000
  C   C225      1.0  0.059400000000000036  0.64366  0.25202  1.0000
  C   C226      1.0  0.18257  0.5982  0.26381  1.0000
  C   C227      1.0  0.4157200000000001  0.6084499999999999  0.27329  1.0000
  C   C228      1.0  0.51844  0.66538  0.27046  1.0000
  C   C229      1.0  0.38035000000000013  0.7079  0.25867  1.0000
  C   C230      1.0  0.5489100000000002  0.5617299999999998  0.28503000000000006  1.0000
  C   C231      1.0  0.7612  0.56903  0.29618  1.0000
  C   C232      1.0  0.8974  0.52073  0.30712  1.0000
  C   C233      1.0  0.79038  0.46382999999999996  0.30814  1.0000
  C   C234      1.0  0.91938  0.41654  0.31833  1.0000
  C   C235      1.0  0.16256000000000007  0.4220799999999999  0.32734  1.0000
  C   C236      1.0  0.2687800000000001  0.4788199999999999  0.3268  1.0000
  C   C237      1.0  0.13352000000000003  0.5277399999999999  0.31691  1.0000
  C   C238      1.0  0.30585  0.3703  0.33677  1.0000
  C   C239      1.0  0.24024  0.31228999999999996  0.3372100000000001  1.0000
  C   C240      1.0  0.4168199999999999  0.26459  0.3469600000000001  1.0000
  C   C241      1.0  0.24837999999999996  0.12987  0.38641  1.0000
  C   C242      1.0  0.44098  0.15439  0.397  1.0000
  C   C243      1.0  0.41182999999999986  0.21865999999999994  0.4006600000000001  1.0000
  C   C244      1.0  0.19652000000000003  0.25333  0.39196  1.0000
  C   C245      1.0  0.033220000000000006  0.22657999999999998  0.38009  1.0000
  C   C246      1.0  0.5758899999999999  0.2509  0.41177000000000014  1.0000
  C   C247      1.0  0.7955200000000001  0.22994999999999993  0.42213  1.0000
  C   C248      1.0  0.9129700000000001  0.26818  0.43501  1.0000
  C   C249      1.0  0.13521000000000002  0.24401999999999993  0.44555  1.0000
  C   C250      1.0  0.2609  0.28028  0.45754000000000006  1.0000
  C   C251      1.0  0.17276  0.3433  0.45902  1.0000
  C   C252      1.0  0.9390899999999998  0.36654  0.4495300000000001  1.0000
  C   C253      1.0  0.8095699999999999  0.3297  0.43783000000000005  1.0000
  C   C254      1.0  0.32297999999999993  0.38419  0.46851000000000004  1.0000
  C   C255      1.0  0.5521699999999998  0.36791  0.47857  1.0000
  C   C256      1.0  0.70907  0.4142099999999999  0.48537000000000013  1.0000
  N   N1        1.0  0.04337000000000007  0.9595599999999999  0.69734  1.0000
  N   N2        1.0  0.41958000000000006  0.9455999999999999  0.9710300000000001  1.0000
  N   N3        1.0  0.5996699999999997  0.80148  0.7495300000000001  1.0000
  N   N4        1.0  0.9551700000000002  0.33415999999999996  0.87785  1.0000
  N   N5        1.0  0.70419  0.03807  0.3020300000000001  1.0000
  N   N6        1.0  0.3346899999999999  0.05254  0.02881  1.0000
  N   N7        1.0  0.14908  0.19951999999999998  0.25083  1.0000
  N   N8        1.0  0.16620000000000001  0.66653  0.12197  1.0000
  N   N9        1.0  0.4895599999999996  0.45799  0.8024800000000002  1.0000
  N   N10       1.0  0.1390899999999999  0.4475  0.5285700000000001  1.0000
  N   N11       1.0  0.09314999999999994  0.30025999999999997  0.7507300000000002  1.0000
  N   N12       1.0  0.58499  0.83603  0.62291  1.0000
  N   N13       1.0  0.7392400000000001  0.5358599999999999  0.19755000000000006  1.0000
  N   N14       1.0  0.11833999999999989  0.5537  0.47125000000000006  1.0000
  N   N15       1.0  0.15486000000000003  0.69818  0.24954  1.0000
  N   N16       1.0  0.04939999999999999  0.16533  0.37789  1.0000
  O   O1        1.0  0.7665  0.34397999999999995  0.82855  1.0000
  O   O2        1.0  0.10741999999999996  0.36716  0.80839  1.0000
  O   O3        1.0  0.54982  0.4460099999999999  0.86729  1.0000
  O   O4        1.0  0.3041199999999999  0.29101999999999995  0.8445800000000002  1.0000
  O   O5        1.0  0.6273699999999998  0.22260999999999997  0.85601  1.0000
  O   O6        1.0  0.8475999999999999  0.027080000000000003  0.9801900000000001  1.0000
  O   O7        1.0  0.04134999999999998  0.09836999999999997  0.99615  1.0000
  O   O8        1.0  0.2073200000000001  0.47627999999999987  0.84746  1.0000
  O   O9        1.0  0.8997300000000001  0.65497  0.17166  1.0000
  O   O10       1.0  0.25066  0.62248  0.19031000000000006  1.0000
  O   O11       1.0  0.8776400000000001  0.55074  0.13268  1.0000
  O   O12       1.0  0.41111000000000003  0.7058599999999999  0.15606  1.0000
  O   O13       1.0  0.6942900000000001  0.76901  0.14371  1.0000
  O   O14       1.0  0.87871  0.9710399999999999  0.01943  1.0000
  O   O15       1.0  0.15874000000000002  0.89925  0.00381  1.0000
  O   O16       1.0  0.51938  0.52098  0.15041  1.0000
  O   O17       1.0  0.34253999999999996  0.84267  0.6701800000000001  1.0000
  O   O18       1.0  0.64048  0.8748299999999999  0.69034  1.0000
  O   O19       1.0  0.18126999999999988  0.9485399999999998  0.6318400000000002  1.0000
  O   O20       1.0  0.9179700000000001  0.7897999999999998  0.65529  1.0000
  O   O21       1.0  0.2268399999999999  0.71863  0.6414900000000001  1.0000
  O   O22       1.0  0.5880399999999999  0.53127  0.51843  1.0000
  O   O23       1.0  0.8170399999999999  0.6026  0.5043700000000002  1.0000
  O   O24       1.0  0.8065199999999999  0.9743699999999998  0.65128  1.0000
  O   O25       1.0  0.8616199999999999  0.14958  0.32877  1.0000
  O   O26       1.0  0.22291000000000002  0.12861  0.30825  1.0000
  O   O27       1.0  0.76727  0.051039999999999995  0.3689  1.0000
  O   O28       1.0  0.35137999999999997  0.20917  0.34598  1.0000
  O   O29       1.0  0.62046  0.2776  0.35566  1.0000
  O   O30       1.0  0.64797  0.4698099999999999  0.48038  1.0000
  O   O31       1.0  0.9067600000000001  0.39769  0.49616  1.0000
  O   O32       1.0  0.44918  0.02441  0.34892  1.0000
