data_image0
_chemical_formula_structural       Cd32H96C256O128
_chemical_formula_sum              "Cd32 H96 C256 O128"
_cell_length_a       20.22518
_cell_length_b       27.49443
_cell_length_c       29.355520000000002
_cell_angle_alpha    89.97909
_cell_angle_beta     90.0
_cell_angle_gamma    90.0

_symmetry_space_group_name_H-M    'P 1'
_symmetry_Int_Tables_number       1

loop_
  _symmetry_equiv_pos_as_xyz
  'x,y,z'

loop_
  _atom_site_type_symbol
  _atom_site_label
  _atom_site_symmetry_multiplicity
  _atom_site_fract_x
  _atom_site_fract_y
  _atom_site_fract_z
  _atom_site_occupancy
  Cd  Cd1       1.0  0.29897  0.45792  0.9724900000000002  1.0000
  Cd  Cd2       1.0  0.17474  0.52995  0.9468000000000002  1.0000
  Cd  Cd3       1.0  0.1598  0.17476000000000003  0.80297  1.0000
  Cd  Cd4       1.0  0.26763  0.23291  0.7456500000000003  1.0000
  Cd  Cd5       1.0  0.1962  0.04331  0.47026  1.0000
  Cd  Cd6       1.0  0.32101  0.9699500000000002  0.44748000000000004  1.0000
  Cd  Cd7       1.0  0.34014  0.3252100000000001  0.30289  1.0000
  Cd  Cd8       1.0  0.23121  0.26657  0.24649000000000004  1.0000
  Cd  Cd9       1.0  0.29897  0.54209  0.5275000000000002  1.0000
  Cd  Cd10      1.0  0.17474  0.47005000000000013  0.5532000000000002  1.0000
  Cd  Cd11      1.0  0.1598  0.8252500000000003  0.69703  1.0000
  Cd  Cd12      1.0  0.26763  0.7671000000000002  0.7543500000000002  1.0000
  Cd  Cd13      1.0  0.19621  0.9567  0.029740000000000006  1.0000
  Cd  Cd14      1.0  0.32101  0.03005  0.05252000000000001  1.0000
  Cd  Cd15      1.0  0.34014  0.6748  0.19711000000000006  1.0000
  Cd  Cd16      1.0  0.23122  0.73344  0.25351  1.0000
  Cd  Cd17      1.0  0.70103  0.54209  0.02751  1.0000
  Cd  Cd18      1.0  0.8252599999999999  0.47005000000000013  0.0532  1.0000
  Cd  Cd19      1.0  0.8401999999999998  0.8252500000000003  0.19703000000000007  1.0000
  Cd  Cd20      1.0  0.73237  0.7671000000000002  0.25436  1.0000
  Cd  Cd21      1.0  0.80379  0.9567  0.5297400000000002  1.0000
  Cd  Cd22      1.0  0.67899  0.03005  0.5525200000000002  1.0000
  Cd  Cd23      1.0  0.65986  0.6748  0.6971100000000002  1.0000
  Cd  Cd24      1.0  0.76879  0.7334300000000001  0.7535100000000002  1.0000
  Cd  Cd25      1.0  0.70103  0.45792  0.4724900000000001  1.0000
  Cd  Cd26      1.0  0.8252599999999999  0.52995  0.4468000000000001  1.0000
  Cd  Cd27      1.0  0.8401999999999998  0.17476000000000003  0.30297000000000013  1.0000
  Cd  Cd28      1.0  0.73237  0.23291  0.24564000000000005  1.0000
  Cd  Cd29      1.0  0.80379  0.04331  0.9702600000000002  1.0000
  Cd  Cd30      1.0  0.67899  0.9699500000000002  0.9474800000000002  1.0000
  Cd  Cd31      1.0  0.65986  0.3252100000000001  0.8028900000000001  1.0000
  Cd  Cd32      1.0  0.76879  0.26657  0.74649  1.0000
  H   H1        1.0  0.73888  0.3784500000000001  0.15734000000000006  1.0000
  H   H2        1.0  0.54914  0.31708  0.18564000000000005  1.0000
  H   H3        1.0  0.56625  0.4414200000000001  0.09557000000000003  1.0000
  H   H4        1.0  0.4532900000000001  0.33987  0.19688  1.0000
  H   H5        1.0  0.28117  0.37345  0.11709  1.0000
  H   H6        1.0  0.47211  0.41924000000000006  0.0703  1.0000
  H   H7        1.0  0.21943  0.3365400000000001  0.86904  1.0000
  H   H8        1.0  0.01757  0.29781000000000013  0.8406300000000001  1.0000
  H   H9        1.0  0.06205000000000001  0.4289  0.9153500000000002  1.0000
  H   H10       1.0  0.97274  0.41168  0.9477900000000002  1.0000
  H   H11       1.0  0.77229  0.41055  0.90097  1.0000
  H   H12       1.0  0.9236999999999999  0.34265  0.81984  1.0000
  H   H13       1.0  0.76321  0.11922000000000003  0.65961  1.0000
  H   H14       1.0  0.95227  0.18238  0.6870400000000002  1.0000
  H   H15       1.0  0.93655  0.0583  0.59688  1.0000
  H   H16       1.0  0.04869999999999999  0.15976  0.6974400000000002  1.0000
  H   H17       1.0  0.21984999999999996  0.12491  0.61704  1.0000
  H   H18       1.0  0.02763  0.08285  0.56989  1.0000
  H   H19       1.0  0.28012  0.1629  0.3695100000000001  1.0000
  H   H20       1.0  0.48180999999999996  0.20183000000000004  0.3404700000000001  1.0000
  H   H21       1.0  0.43809  0.07183000000000002  0.4172400000000001  1.0000
  H   H22       1.0  0.52872  0.09223  0.4500400000000001  1.0000
  H   H23       1.0  0.7285  0.09296000000000003  0.40174  1.0000
  H   H24       1.0  0.57474  0.15633  0.3193200000000001  1.0000
  H   H25       1.0  0.73888  0.62155  0.34266  1.0000
  H   H26       1.0  0.54914  0.68292  0.31436  1.0000
  H   H27       1.0  0.56625  0.55858  0.4044300000000001  1.0000
  H   H28       1.0  0.4532900000000001  0.6601300000000002  0.30312  1.0000
  H   H29       1.0  0.28117  0.62655  0.38291  1.0000
  H   H30       1.0  0.47211  0.58076  0.4297  1.0000
  H   H31       1.0  0.21943  0.66346  0.6309500000000002  1.0000
  H   H32       1.0  0.01757  0.70219  0.6593700000000002  1.0000
  H   H33       1.0  0.06205000000000001  0.5711000000000002  0.58464  1.0000
  H   H34       1.0  0.97274  0.5883300000000002  0.5522100000000002  1.0000
  H   H35       1.0  0.77229  0.58945  0.59903  1.0000
  H   H36       1.0  0.9236999999999999  0.6573500000000001  0.68016  1.0000
  H   H37       1.0  0.76321  0.88078  0.8403900000000002  1.0000
  H   H38       1.0  0.95227  0.8176200000000002  0.8129600000000002  1.0000
  H   H39       1.0  0.93655  0.9417000000000002  0.90312  1.0000
  H   H40       1.0  0.04869999999999999  0.84025  0.8025600000000003  1.0000
  H   H41       1.0  0.21984999999999996  0.8751000000000002  0.88296  1.0000
  H   H42       1.0  0.02763  0.91715  0.9301100000000002  1.0000
  H   H43       1.0  0.28012  0.83711  0.13049  1.0000
  H   H44       1.0  0.48180999999999996  0.79818  0.15953000000000003  1.0000
  H   H45       1.0  0.43809999999999993  0.92818  0.08276000000000001  1.0000
  H   H46       1.0  0.52872  0.90777  0.04995  1.0000
  H   H47       1.0  0.7285  0.90705  0.09826000000000003  1.0000
  H   H48       1.0  0.57474  0.8436700000000003  0.18068  1.0000
  H   H49       1.0  0.26112  0.62155  0.8426600000000002  1.0000
  H   H50       1.0  0.45086  0.68292  0.8143500000000002  1.0000
  H   H51       1.0  0.43375  0.55858  0.9044300000000001  1.0000
  H   H52       1.0  0.54671  0.6601300000000002  0.8031200000000002  1.0000
  H   H53       1.0  0.71883  0.62655  0.8829100000000002  1.0000
  H   H54       1.0  0.52789  0.58076  0.9297000000000002  1.0000
  H   H55       1.0  0.78057  0.66346  0.13096000000000002  1.0000
  H   H56       1.0  0.98243  0.70219  0.15937000000000007  1.0000
  H   H57       1.0  0.93795  0.5711000000000002  0.08465000000000003  1.0000
  H   H58       1.0  0.02726  0.5883300000000002  0.05221000000000001  1.0000
  H   H59       1.0  0.22770999999999997  0.58945  0.09903000000000003  1.0000
  H   H60       1.0  0.0763  0.6573500000000001  0.18016000000000004  1.0000
  H   H61       1.0  0.23678999999999997  0.88079  0.34039000000000014  1.0000
  H   H62       1.0  0.04773  0.8176200000000002  0.31296  1.0000
  H   H63       1.0  0.06345  0.9417000000000002  0.40311000000000013  1.0000
  H   H64       1.0  0.9512999999999999  0.84025  0.3025600000000001  1.0000
  H   H65       1.0  0.78015  0.8751000000000002  0.38296000000000013  1.0000
  H   H66       1.0  0.97237  0.91715  0.43011  1.0000
  H   H67       1.0  0.71988  0.83711  0.63049  1.0000
  H   H68       1.0  0.51819  0.79818  0.6595300000000002  1.0000
  H   H69       1.0  0.5619  0.92818  0.58276  1.0000
  H   H70       1.0  0.4712799999999999  0.90777  0.54995  1.0000
  H   H71       1.0  0.2715  0.90705  0.5982600000000002  1.0000
  H   H72       1.0  0.42526  0.8436700000000003  0.6806800000000001  1.0000
  H   H73       1.0  0.26112  0.3784500000000001  0.65734  1.0000
  H   H74       1.0  0.45086  0.31708  0.68564  1.0000
  H   H75       1.0  0.43375  0.4414200000000001  0.5955700000000003  1.0000
  H   H76       1.0  0.54671  0.33987  0.6968800000000003  1.0000
  H   H77       1.0  0.71883  0.37345  0.6170900000000002  1.0000
  H   H78       1.0  0.52789  0.41924000000000006  0.5703000000000003  1.0000
  H   H79       1.0  0.78057  0.3365400000000001  0.3690400000000001  1.0000
  H   H80       1.0  0.98243  0.29781000000000013  0.3406300000000001  1.0000
  H   H81       1.0  0.93795  0.4289  0.41535  1.0000
  H   H82       1.0  0.02726  0.41168  0.44779  1.0000
  H   H83       1.0  0.22770999999999997  0.41055  0.4009700000000001  1.0000
  H   H84       1.0  0.0763  0.34265  0.31984000000000007  1.0000
  H   H85       1.0  0.23678999999999997  0.11922000000000003  0.15961000000000006  1.0000
  H   H86       1.0  0.04773  0.18238  0.18704  1.0000
  H   H87       1.0  0.06345  0.0583  0.09688  1.0000
  H   H88       1.0  0.9512999999999999  0.15976  0.19744  1.0000
  H   H89       1.0  0.78015  0.12491  0.11704000000000003  1.0000
  H   H90       1.0  0.97237  0.08285  0.06989000000000001  1.0000
  H   H91       1.0  0.71988  0.1629  0.8695100000000002  1.0000
  H   H92       1.0  0.51819  0.20183000000000004  0.8404700000000003  1.0000
  H   H93       1.0  0.5619  0.07183000000000002  0.9172400000000003  1.0000
  H   H94       1.0  0.4712799999999999  0.09223  0.9500400000000002  1.0000
  H   H95       1.0  0.2715  0.09296000000000003  0.9017400000000002  1.0000
  H   H96       1.0  0.42526  0.15633  0.8193200000000003  1.0000
  C   C1        1.0  0.69918  0.44742  0.09733  1.0000
  C   C2        1.0  0.65608  0.4135000000000001  0.1238  1.0000
  C   C3        1.0  0.68561  0.37939  0.15285  1.0000
  C   C4        1.0  0.64608  0.34541  0.17541000000000007  1.0000
  C   C5        1.0  0.67724  0.30732  0.20467  1.0000
  C   C6        1.0  0.57752  0.34555  0.16892  1.0000
  C   C7        1.0  0.5467  0.38019  0.14074000000000006  1.0000
  C   C8        1.0  0.5872  0.41408000000000006  0.11812000000000003  1.0000
  C   C9        1.0  0.47373  0.37975  0.13468  1.0000
  C   C10       1.0  0.43256  0.35674  0.16663  1.0000
  C   C11       1.0  0.36382  0.35399  0.16060000000000002  1.0000
  C   C12       1.0  0.33435  0.37545  0.12233000000000002  1.0000
  C   C13       1.0  0.37461  0.39934  0.09058000000000002  1.0000
  C   C14       1.0  0.44334  0.4012  0.09663000000000002  1.0000
  C   C15       1.0  0.32363  0.32706  0.19511000000000006  1.0000
  C   C16       1.0  0.34521  0.4217800000000001  0.048950000000000014  1.0000
  C   C17       1.0  0.19133  0.41729000000000005  0.9213400000000003  1.0000
  C   C18       1.0  0.14486  0.3859100000000001  0.8951100000000002  1.0000
  C   C19       1.0  0.167  0.34501  0.87108  1.0000
  C   C20       1.0  0.12020999999999998  0.31391000000000013  0.8514500000000003  1.0000
  C   C21       1.0  0.052300000000000006  0.3241  0.85455  1.0000
  C   C22       1.0  0.02987  0.36621  0.8766200000000002  1.0000
  C   C23       1.0  0.07724  0.39654  0.89691  1.0000
  C   C24       1.0  0.9585899999999999  0.37765  0.8818500000000002  1.0000
  C   C25       1.0  0.9377  0.40257  0.9210500000000003  1.0000
  C   C26       1.0  0.87128  0.4146800000000001  0.92779  1.0000
  C   C27       1.0  0.82395  0.40156  0.89538  1.0000
  C   C28       1.0  0.84347  0.37481  0.8570600000000003  1.0000
  C   C29       1.0  0.91038  0.36319  0.8501700000000002  1.0000
  C   C30       1.0  0.7918  0.35529  0.8255900000000003  1.0000
  C   C31       1.0  0.85079  0.4381800000000001  0.97123  1.0000
  C   C32       1.0  0.14195  0.26703  0.8308300000000002  1.0000
  C   C33       1.0  0.80412  0.05064  0.59898  1.0000
  C   C34       1.0  0.84632  0.08501  0.6256500000000003  1.0000
  C   C35       1.0  0.8164599999999999  0.11888000000000001  0.65487  1.0000
  C   C36       1.0  0.85565  0.15335000000000004  0.6772300000000002  1.0000
  C   C37       1.0  0.8243999999999999  0.19176000000000007  0.70619  1.0000
  C   C38       1.0  0.92407  0.15384  0.6703300000000001  1.0000
  C   C39       1.0  0.95501  0.11968000000000002  0.6418  1.0000
  C   C40       1.0  0.91506  0.08531  0.61951  1.0000
  C   C41       1.0  0.027639999999999998  0.12059  0.6351  1.0000
  C   C42       1.0  0.06919  0.14301  0.66706  1.0000
  C   C43       1.0  0.13785  0.14509  0.66079  1.0000
  C   C44       1.0  0.16666  0.12361000000000003  0.6223000000000002  1.0000
  C   C45       1.0  0.12575  0.10085  0.59028  1.0000
  C   C46       1.0  0.05709999999999999  0.09975  0.5965000000000003  1.0000
  C   C47       1.0  0.17855  0.17173  0.6950000000000002  1.0000
  C   C48       1.0  0.15404  0.07899  0.5480900000000001  1.0000
  C   C49       1.0  0.30783  0.08258000000000001  0.4213300000000001  1.0000
  C   C50       1.0  0.35503  0.11429000000000003  0.3960200000000001  1.0000
  C   C51       1.0  0.33267  0.15484  0.3716  1.0000
  C   C52       1.0  0.37914  0.18591  0.35165  1.0000
  C   C53       1.0  0.44708  0.17582  0.35484  1.0000
  C   C54       1.0  0.46988  0.13422  0.3776000000000001  1.0000
  C   C55       1.0  0.42277999999999993  0.10395000000000003  0.3984000000000001  1.0000
  C   C56       1.0  0.54144  0.12364  0.38279000000000013  1.0000
  C   C57       1.0  0.56325  0.10072  0.42282  1.0000
  C   C58       1.0  0.6299  0.08946  0.4294900000000001  1.0000
  C   C59       1.0  0.67664  0.10142  0.3962900000000001  1.0000
  C   C60       1.0  0.65628  0.12634  0.3571300000000001  1.0000
  C   C61       1.0  0.58904  0.13717  0.35025000000000006  1.0000
  C   C62       1.0  0.70789  0.14498  0.32504  1.0000
  C   C63       1.0  0.6514  0.06693  0.47304  1.0000
  C   C64       1.0  0.35704  0.23252000000000003  0.33058  1.0000
  C   C65       1.0  0.69918  0.5525900000000001  0.40266  1.0000
  C   C66       1.0  0.65608  0.5865  0.3762000000000001  1.0000
  C   C67       1.0  0.68561  0.62062  0.3471500000000001  1.0000
  C   C68       1.0  0.64608  0.6545900000000002  0.3245900000000001  1.0000
  C   C69       1.0  0.67724  0.69268  0.2953300000000001  1.0000
  C   C70       1.0  0.57752  0.65446  0.33108  1.0000
  C   C71       1.0  0.5467  0.61981  0.35926000000000013  1.0000
  C   C72       1.0  0.5872  0.5859200000000002  0.38188000000000005  1.0000
  C   C73       1.0  0.47373  0.62025  0.36532000000000003  1.0000
  C   C74       1.0  0.43256  0.64326  0.3333700000000001  1.0000
  C   C75       1.0  0.36382  0.64601  0.3394  1.0000
  C   C76       1.0  0.33435  0.62456  0.37767000000000006  1.0000
  C   C77       1.0  0.37461  0.60066  0.4094200000000001  1.0000
  C   C78       1.0  0.44334  0.5988  0.40337  1.0000
  C   C79       1.0  0.32363  0.67294  0.30489  1.0000
  C   C80       1.0  0.34521  0.57822  0.45105  1.0000
  C   C81       1.0  0.19133  0.58271  0.5786600000000002  1.0000
  C   C82       1.0  0.14486  0.6141  0.6048900000000003  1.0000
  C   C83       1.0  0.167  0.6549900000000001  0.6289100000000002  1.0000
  C   C84       1.0  0.12020999999999998  0.6861  0.64855  1.0000
  C   C85       1.0  0.052300000000000006  0.6759  0.64545  1.0000
  C   C86       1.0  0.02987  0.6338000000000003  0.6233800000000003  1.0000
  C   C87       1.0  0.07724  0.60346  0.60309  1.0000
  C   C88       1.0  0.9585899999999999  0.6223500000000001  0.61815  1.0000
  C   C89       1.0  0.9377  0.5974300000000002  0.5789500000000002  1.0000
  C   C90       1.0  0.87128  0.58533  0.57221  1.0000
  C   C91       1.0  0.82395  0.59844  0.60462  1.0000
  C   C92       1.0  0.84347  0.6251900000000002  0.6429400000000002  1.0000
  C   C93       1.0  0.91038  0.6368200000000003  0.6498300000000001  1.0000
  C   C94       1.0  0.79181  0.6447200000000002  0.67441  1.0000
  C   C95       1.0  0.85079  0.56182  0.52877  1.0000
  C   C96       1.0  0.14195  0.7329800000000002  0.66916  1.0000
  C   C97       1.0  0.80412  0.94936  0.9010200000000003  1.0000
  C   C98       1.0  0.84632  0.9149900000000002  0.8743500000000002  1.0000
  C   C99       1.0  0.8164599999999999  0.88112  0.8451300000000003  1.0000
  C   C100      1.0  0.85565  0.84666  0.8227700000000002  1.0000
  C   C101      1.0  0.8243999999999999  0.8082400000000002  0.79381  1.0000
  C   C102      1.0  0.92407  0.84616  0.8296700000000002  1.0000
  C   C103      1.0  0.95501  0.8803200000000002  0.8582000000000002  1.0000
  C   C104      1.0  0.91506  0.91469  0.8804800000000003  1.0000
  C   C105      1.0  0.027639999999999998  0.87942  0.8648900000000003  1.0000
  C   C106      1.0  0.06919  0.85699  0.8329300000000002  1.0000
  C   C107      1.0  0.13785  0.85491  0.83921  1.0000
  C   C108      1.0  0.16666  0.87639  0.8777000000000003  1.0000
  C   C109      1.0  0.12576  0.89915  0.9097200000000002  1.0000
  C   C110      1.0  0.05709999999999999  0.90025  0.9035000000000002  1.0000
  C   C111      1.0  0.17855  0.82828  0.8050000000000003  1.0000
  C   C112      1.0  0.15404  0.9210200000000002  0.9519100000000003  1.0000
  C   C113      1.0  0.30783  0.91742  0.07867000000000003  1.0000
  C   C114      1.0  0.35503  0.8857100000000001  0.10398  1.0000
  C   C115      1.0  0.33267  0.8451600000000002  0.1284  1.0000
  C   C116      1.0  0.37914  0.8141000000000003  0.14835  1.0000
  C   C117      1.0  0.44708  0.82418  0.14516  1.0000
  C   C118      1.0  0.46988  0.8657800000000002  0.1224  1.0000
  C   C119      1.0  0.42277999999999993  0.89605  0.10160000000000002  1.0000
  C   C120      1.0  0.54144  0.8763600000000002  0.11721000000000002  1.0000
  C   C121      1.0  0.56325  0.89928  0.07718  1.0000
  C   C122      1.0  0.6299  0.9105400000000002  0.07051  1.0000
  C   C123      1.0  0.67664  0.8985900000000002  0.10371  1.0000
  C   C124      1.0  0.65628  0.87366  0.14286  1.0000
  C   C125      1.0  0.58904  0.8628300000000001  0.14975000000000005  1.0000
  C   C126      1.0  0.70789  0.85502  0.17495000000000005  1.0000
  C   C127      1.0  0.6514  0.93307  0.026960000000000005  1.0000
  C   C128      1.0  0.35704  0.7674800000000003  0.16942000000000004  1.0000
  C   C129      1.0  0.30082  0.5525900000000001  0.9026600000000002  1.0000
  C   C130      1.0  0.34392  0.58651  0.8762000000000002  1.0000
  C   C131      1.0  0.31439  0.62062  0.84715  1.0000
  C   C132      1.0  0.35392  0.6545900000000002  0.82458  1.0000
  C   C133      1.0  0.32276  0.69268  0.7953200000000001  1.0000
  C   C134      1.0  0.42247999999999997  0.65446  0.8310800000000003  1.0000
  C   C135      1.0  0.4532999999999999  0.6198200000000001  0.8592600000000001  1.0000
  C   C136      1.0  0.4128  0.5859200000000002  0.88188  1.0000
  C   C137      1.0  0.52627  0.62025  0.86532  1.0000
  C   C138      1.0  0.56744  0.64326  0.83337  1.0000
  C   C139      1.0  0.63618  0.64601  0.8394000000000003  1.0000
  C   C140      1.0  0.66565  0.62456  0.8776700000000002  1.0000
  C   C141      1.0  0.62538  0.60066  0.9094200000000001  1.0000
  C   C142      1.0  0.55666  0.5988  0.9033700000000002  1.0000
  C   C143      1.0  0.67637  0.67294  0.8048900000000002  1.0000
  C   C144      1.0  0.65479  0.57822  0.9510500000000002  1.0000
  C   C145      1.0  0.8086700000000001  0.58271  0.07866000000000002  1.0000
  C   C146      1.0  0.85514  0.6141  0.10489  1.0000
  C   C147      1.0  0.833  0.6549900000000001  0.12891  1.0000
  C   C148      1.0  0.87979  0.6861  0.14855000000000004  1.0000
  C   C149      1.0  0.9476999999999999  0.6759  0.14545  1.0000
  C   C150      1.0  0.9701299999999999  0.6338000000000003  0.12338000000000003  1.0000
  C   C151      1.0  0.92275  0.60346  0.10309  1.0000
  C   C152      1.0  0.04141  0.6223500000000001  0.11815  1.0000
  C   C153      1.0  0.0623  0.5974300000000002  0.07895000000000003  1.0000
  C   C154      1.0  0.12871  0.58533  0.07221  1.0000
  C   C155      1.0  0.17605  0.59844  0.10462000000000003  1.0000
  C   C156      1.0  0.15653  0.6251900000000002  0.14294  1.0000
  C   C157      1.0  0.08962  0.6368200000000003  0.14983  1.0000
  C   C158      1.0  0.20818999999999996  0.6447200000000002  0.17441000000000006  1.0000
  C   C159      1.0  0.14921  0.56182  0.028770000000000007  1.0000
  C   C160      1.0  0.85805  0.7329800000000002  0.16917000000000001  1.0000
  C   C161      1.0  0.19588  0.94936  0.40102000000000004  1.0000
  C   C162      1.0  0.15368  0.9149900000000002  0.37435  1.0000
  C   C163      1.0  0.18354  0.88112  0.34513  1.0000
  C   C164      1.0  0.14435  0.84666  0.32277  1.0000
  C   C165      1.0  0.1756  0.8082400000000002  0.29381000000000007  1.0000
  C   C166      1.0  0.07593  0.84616  0.32967000000000013  1.0000
  C   C167      1.0  0.04499  0.8803200000000002  0.3582  1.0000
  C   C168      1.0  0.08494  0.91469  0.3804800000000001  1.0000
  C   C169      1.0  0.97236  0.87941  0.36489  1.0000
  C   C170      1.0  0.93081  0.85699  0.3329300000000001  1.0000
  C   C171      1.0  0.86215  0.85491  0.3392100000000001  1.0000
  C   C172      1.0  0.8333399999999999  0.87639  0.3777000000000001  1.0000
  C   C173      1.0  0.87425  0.89915  0.40972  1.0000
  C   C174      1.0  0.9429  0.90025  0.4035  1.0000
  C   C175      1.0  0.82145  0.82828  0.3050000000000001  1.0000
  C   C176      1.0  0.8459599999999999  0.9210200000000002  0.4519100000000001  1.0000
  C   C177      1.0  0.69217  0.91742  0.5786700000000002  1.0000
  C   C178      1.0  0.64497  0.8857100000000001  0.6039800000000002  1.0000
  C   C179      1.0  0.66733  0.8451600000000002  0.6284000000000002  1.0000
  C   C180      1.0  0.62086  0.8141000000000003  0.64835  1.0000
  C   C181      1.0  0.55292  0.82418  0.6451600000000002  1.0000
  C   C182      1.0  0.53012  0.8657800000000002  0.6224  1.0000
  C   C183      1.0  0.57722  0.89605  0.6016000000000002  1.0000
  C   C184      1.0  0.45856  0.8763600000000002  0.6172000000000002  1.0000
  C   C185      1.0  0.43675  0.89928  0.57718  1.0000
  C   C186      1.0  0.3701  0.9105400000000002  0.57051  1.0000
  C   C187      1.0  0.32336  0.8985900000000002  0.60371  1.0000
  C   C188      1.0  0.34372  0.87366  0.6428600000000002  1.0000
  C   C189      1.0  0.41095999999999994  0.8628300000000001  0.6497500000000003  1.0000
  C   C190      1.0  0.29211  0.85502  0.67495  1.0000
  C   C191      1.0  0.3486  0.93307  0.5269600000000001  1.0000
  C   C192      1.0  0.64296  0.7674800000000003  0.66942  1.0000
  C   C193      1.0  0.30082  0.44742  0.59733  1.0000
  C   C194      1.0  0.34392  0.4135000000000001  0.6238000000000001  1.0000
  C   C195      1.0  0.31439  0.3793800000000001  0.6528500000000003  1.0000
  C   C196      1.0  0.35392  0.34541  0.6754200000000002  1.0000
  C   C197      1.0  0.32276  0.3073300000000001  0.70469  1.0000
  C   C198      1.0  0.42247999999999997  0.34555  0.6689200000000002  1.0000
  C   C199      1.0  0.4532900000000001  0.38019  0.6407400000000002  1.0000
  C   C200      1.0  0.4128  0.41408000000000006  0.61812  1.0000
  C   C201      1.0  0.52627  0.37975  0.63468  1.0000
  C   C202      1.0  0.56744  0.35674  0.66663  1.0000
  C   C203      1.0  0.63618  0.35399  0.6606  1.0000
  C   C204      1.0  0.66565  0.37545  0.6223300000000003  1.0000
  C   C205      1.0  0.62538  0.39934  0.5905800000000002  1.0000
  C   C206      1.0  0.55666  0.4012  0.59663  1.0000
  C   C207      1.0  0.67637  0.32706  0.69511  1.0000
  C   C208      1.0  0.65479  0.4217800000000001  0.5489500000000003  1.0000
  C   C209      1.0  0.8086700000000001  0.41729000000000005  0.4213400000000001  1.0000
  C   C210      1.0  0.85514  0.3859100000000001  0.39511000000000013  1.0000
  C   C211      1.0  0.833  0.34501  0.37109  1.0000
  C   C212      1.0  0.87979  0.3139  0.35145  1.0000
  C   C213      1.0  0.9476999999999999  0.3241  0.3545500000000001  1.0000
  C   C214      1.0  0.9701299999999999  0.36621  0.37662  1.0000
  C   C215      1.0  0.92275  0.39654  0.3969100000000001  1.0000
  C   C216      1.0  0.04141  0.37765  0.38185  1.0000
  C   C217      1.0  0.0623  0.40257  0.42105  1.0000
  C   C218      1.0  0.12871  0.4146800000000001  0.4277900000000001  1.0000
  C   C219      1.0  0.17605  0.40156  0.3953800000000001  1.0000
  C   C220      1.0  0.15653  0.37481  0.3570600000000001  1.0000
  C   C221      1.0  0.08962  0.36319  0.3501700000000001  1.0000
  C   C222      1.0  0.20818999999999996  0.35529  0.32559  1.0000
  C   C223      1.0  0.14921  0.4381800000000001  0.4712300000000001  1.0000
  C   C224      1.0  0.85805  0.26703  0.3308300000000001  1.0000
  C   C225      1.0  0.19588  0.05064  0.09898000000000003  1.0000
  C   C226      1.0  0.15368  0.08501  0.12565  1.0000
  C   C227      1.0  0.18354  0.11888000000000001  0.15487  1.0000
  C   C228      1.0  0.14435  0.15335000000000004  0.17723  1.0000
  C   C229      1.0  0.17559  0.19176000000000007  0.20619000000000007  1.0000
  C   C230      1.0  0.07593  0.15384  0.17033  1.0000
  C   C231      1.0  0.04499  0.11968000000000002  0.1418  1.0000
  C   C232      1.0  0.08494  0.08532  0.11952000000000003  1.0000
  C   C233      1.0  0.97236  0.12059  0.13510000000000003  1.0000
  C   C234      1.0  0.93081  0.14301  0.16706000000000004  1.0000
  C   C235      1.0  0.86215  0.14509  0.16079  1.0000
  C   C236      1.0  0.8333399999999999  0.12361000000000003  0.12230000000000003  1.0000
  C   C237      1.0  0.8742400000000001  0.10085  0.09028  1.0000
  C   C238      1.0  0.9429  0.09975  0.09650000000000003  1.0000
  C   C239      1.0  0.82145  0.17173  0.195  1.0000
  C   C240      1.0  0.8459599999999999  0.07899  0.048090000000000015  1.0000
  C   C241      1.0  0.69217  0.08258000000000001  0.9213300000000001  1.0000
  C   C242      1.0  0.64497  0.11429000000000003  0.8960200000000003  1.0000
  C   C243      1.0  0.66733  0.15484  0.8716000000000003  1.0000
  C   C244      1.0  0.62086  0.18591  0.8516500000000002  1.0000
  C   C245      1.0  0.55292  0.17582  0.8548400000000003  1.0000
  C   C246      1.0  0.53012  0.13422  0.8776  1.0000
  C   C247      1.0  0.57722  0.10395000000000003  0.8984000000000002  1.0000
  C   C248      1.0  0.45856  0.12364  0.88279  1.0000
  C   C249      1.0  0.43675  0.10072  0.9228200000000002  1.0000
  C   C250      1.0  0.3701  0.08946  0.92949  1.0000
  C   C251      1.0  0.32336  0.10142  0.89629  1.0000
  C   C252      1.0  0.34372  0.12634  0.85713  1.0000
  C   C253      1.0  0.41095999999999994  0.13717  0.8502500000000002  1.0000
  C   C254      1.0  0.29211  0.14498  0.8250400000000002  1.0000
  C   C255      1.0  0.3486  0.06693  0.9730400000000002  1.0000
  C   C256      1.0  0.64296  0.23252000000000003  0.8305800000000002  1.0000
  O   O1        1.0  0.63993  0.2756  0.22370000000000007  1.0000
  O   O2        1.0  0.7403  0.30662000000000006  0.20894000000000004  1.0000
  O   O3        1.0  0.76151  0.44535  0.10658000000000002  1.0000
  O   O4        1.0  0.67302  0.47452  0.06710000000000002  1.0000
  O   O5        1.0  0.35492  0.31078  0.23068000000000002  1.0000
  O   O6        1.0  0.26265  0.31925  0.18868000000000004  1.0000
  O   O7        1.0  0.28283  0.41971  0.042580000000000014  1.0000
  O   O8        1.0  0.38414  0.44241000000000014  0.020070000000000008  1.0000
  O   O9        1.0  0.16553  0.4500000000000001  0.9474600000000002  1.0000
  O   O10       1.0  0.25324  0.40966000000000014  0.9186800000000003  1.0000
  O   O11       1.0  0.8955699999999999  0.4424900000000001  0.00258  1.0000
  O   O12       1.0  0.79129  0.45164  0.9774300000000002  1.0000
  O   O13       1.0  0.73244  0.3717800000000001  0.83192  1.0000
  O   O14       1.0  0.80822  0.3235400000000001  0.7964700000000002  1.0000
  O   O15       1.0  0.20139  0.26098  0.8176700000000002  1.0000
  O   O16       1.0  0.09778  0.23293000000000005  0.8294  1.0000
  O   O17       1.0  0.86153  0.22327  0.7258600000000002  1.0000
  O   O18       1.0  0.76129  0.1931  0.7092  1.0000
  O   O19       1.0  0.74163  0.05218  0.60752  1.0000
  O   O20       1.0  0.83163  0.023950000000000003  0.5688600000000003  1.0000
  O   O21       1.0  0.14775  0.18977  0.7301100000000003  1.0000
  O   O22       1.0  0.23970999999999998  0.17829  0.6886500000000002  1.0000
  O   O23       1.0  0.21614  0.08047  0.5409400000000002  1.0000
  O   O24       1.0  0.11389999999999999  0.05952  0.51923  1.0000
  O   O25       1.0  0.33296  0.04959000000000001  0.44735  1.0000
  O   O26       1.0  0.24591  0.09035  0.41792000000000007  1.0000
  O   O27       1.0  0.60842  0.0642  0.50562  1.0000
  O   O28       1.0  0.71047  0.05179000000000002  0.4777500000000001  1.0000
  O   O29       1.0  0.76675  0.12667  0.32963  1.0000
  O   O30       1.0  0.69186  0.17828000000000005  0.29737000000000013  1.0000
  O   O31       1.0  0.29782  0.2382  0.3167500000000001  1.0000
  O   O32       1.0  0.40088  0.2667900000000001  0.32953  1.0000
  O   O33       1.0  0.63993  0.7244  0.27628  1.0000
  O   O34       1.0  0.7403  0.6933800000000002  0.2910600000000001  1.0000
  O   O35       1.0  0.76151  0.5546500000000001  0.39342  1.0000
  O   O36       1.0  0.67302  0.52548  0.4329000000000001  1.0000
  O   O37       1.0  0.35492  0.68922  0.26932  1.0000
  O   O38       1.0  0.26265  0.68075  0.3113200000000001  1.0000
  O   O39       1.0  0.28283  0.58029  0.4574200000000001  1.0000
  O   O40       1.0  0.38414  0.55759  0.47993  1.0000
  O   O41       1.0  0.16553  0.55  0.55254  1.0000
  O   O42       1.0  0.25324  0.59035  0.58132  1.0000
  O   O43       1.0  0.8955699999999999  0.55751  0.4974200000000001  1.0000
  O   O44       1.0  0.79129  0.54836  0.52257  1.0000
  O   O45       1.0  0.73244  0.6282200000000001  0.66808  1.0000
  O   O46       1.0  0.80822  0.67646  0.70353  1.0000
  O   O47       1.0  0.20139  0.7390300000000001  0.68232  1.0000
  O   O48       1.0  0.09778  0.76708  0.6706000000000002  1.0000
  O   O49       1.0  0.86153  0.77674  0.7741400000000002  1.0000
  O   O50       1.0  0.76129  0.80691  0.7908  1.0000
  O   O51       1.0  0.74163  0.94782  0.8924700000000002  1.0000
  O   O52       1.0  0.83163  0.97606  0.9311400000000001  1.0000
  O   O53       1.0  0.14775  0.81023  0.7698900000000002  1.0000
  O   O54       1.0  0.23970999999999998  0.82171  0.8113500000000002  1.0000
  O   O55       1.0  0.21614  0.91953  0.9590600000000002  1.0000
  O   O56       1.0  0.11389999999999999  0.9404900000000003  0.9807700000000003  1.0000
  O   O57       1.0  0.33296  0.9504200000000003  0.052650000000000016  1.0000
  O   O58       1.0  0.24591  0.90965  0.08207000000000003  1.0000
  O   O59       1.0  0.60842  0.93581  0.9943800000000003  1.0000
  O   O60       1.0  0.71047  0.94822  0.02225  1.0000
  O   O61       1.0  0.76675  0.87333  0.17036  1.0000
  O   O62       1.0  0.69187  0.82172  0.20263000000000006  1.0000
  O   O63       1.0  0.29782  0.7618  0.18324  1.0000
  O   O64       1.0  0.40088  0.7332100000000001  0.17047000000000007  1.0000
  O   O65       1.0  0.36007  0.7243800000000001  0.7762400000000003  1.0000
  O   O66       1.0  0.2597  0.6933900000000001  0.79106  1.0000
  O   O67       1.0  0.23848999999999998  0.5546500000000001  0.8934200000000002  1.0000
  O   O68       1.0  0.32698  0.52548  0.9329000000000002  1.0000
  O   O69       1.0  0.64508  0.68922  0.7693200000000002  1.0000
  O   O70       1.0  0.73735  0.68075  0.8113200000000003  1.0000
  O   O71       1.0  0.71717  0.58029  0.9574200000000003  1.0000
  O   O72       1.0  0.61586  0.55759  0.9799200000000002  1.0000
  O   O73       1.0  0.8344699999999999  0.55  0.05254000000000002  1.0000
  O   O74       1.0  0.74676  0.59035  0.08132  1.0000
  O   O75       1.0  0.10443  0.55752  0.9974200000000002  1.0000
  O   O76       1.0  0.20871  0.54836  0.02257  1.0000
  O   O77       1.0  0.26756  0.6282200000000001  0.16808000000000006  1.0000
  O   O78       1.0  0.19178  0.67646  0.20353000000000004  1.0000
  O   O79       1.0  0.7986099999999999  0.7390300000000001  0.18233000000000005  1.0000
  O   O80       1.0  0.9022199999999999  0.76708  0.1706  1.0000
  O   O81       1.0  0.13847  0.77674  0.27414  1.0000
  O   O82       1.0  0.23871  0.80691  0.2908  1.0000
  O   O83       1.0  0.25837  0.94782  0.39248  1.0000
  O   O84       1.0  0.16836999999999996  0.97606  0.43114000000000013  1.0000
  O   O85       1.0  0.85225  0.81023  0.26989000000000013  1.0000
  O   O86       1.0  0.76029  0.82171  0.3113500000000001  1.0000
  O   O87       1.0  0.78386  0.91953  0.45906  1.0000
  O   O88       1.0  0.8861  0.9404900000000003  0.4807700000000001  1.0000
  O   O89       1.0  0.66704  0.9504200000000003  0.55265  1.0000
  O   O90       1.0  0.75409  0.90965  0.5820700000000002  1.0000
  O   O91       1.0  0.39158  0.93581  0.4943800000000001  1.0000
  O   O92       1.0  0.28953  0.94821  0.52225  1.0000
  O   O93       1.0  0.23325999999999997  0.87333  0.6703700000000002  1.0000
  O   O94       1.0  0.30814  0.82172  0.7026300000000002  1.0000
  O   O95       1.0  0.70218  0.7618  0.6832400000000002  1.0000
  O   O96       1.0  0.59912  0.7332100000000001  0.67047  1.0000
  O   O97       1.0  0.36007  0.27564  0.7237800000000001  1.0000
  O   O98       1.0  0.2597  0.30662000000000006  0.7089300000000002  1.0000
  O   O99       1.0  0.23848999999999998  0.44535  0.60658  1.0000
  O   O100      1.0  0.32698  0.47452  0.5671000000000003  1.0000
  O   O101      1.0  0.64507  0.31078  0.7306800000000002  1.0000
  O   O102      1.0  0.73735  0.31925  0.6886800000000002  1.0000
  O   O103      1.0  0.71717  0.41971  0.54258  1.0000
  O   O104      1.0  0.61586  0.44241000000000014  0.5200700000000001  1.0000
  O   O105      1.0  0.8344699999999999  0.4500000000000001  0.44746000000000014  1.0000
  O   O106      1.0  0.74676  0.40966000000000014  0.4186800000000001  1.0000
  O   O107      1.0  0.10443  0.4424900000000001  0.50258  1.0000
  O   O108      1.0  0.20871  0.45164  0.47743000000000013  1.0000
  O   O109      1.0  0.26756  0.3717800000000001  0.3319200000000001  1.0000
  O   O110      1.0  0.19177  0.3235400000000001  0.29647  1.0000
  O   O111      1.0  0.7986099999999999  0.26098  0.31767000000000006  1.0000
  O   O112      1.0  0.9022199999999999  0.23293000000000005  0.32940000000000014  1.0000
  O   O113      1.0  0.13847  0.22327  0.22586000000000006  1.0000
  O   O114      1.0  0.23871  0.1931  0.2092  1.0000
  O   O115      1.0  0.25837  0.05218  0.10752  1.0000
  O   O116      1.0  0.16836999999999996  0.023950000000000003  0.06886000000000003  1.0000
  O   O117      1.0  0.85225  0.18977  0.23011000000000006  1.0000
  O   O118      1.0  0.76029  0.17829  0.18865  1.0000
  O   O119      1.0  0.78386  0.08047  0.04094  1.0000
  O   O120      1.0  0.8861  0.05952  0.019230000000000008  1.0000
  O   O121      1.0  0.66704  0.04959000000000001  0.9473500000000002  1.0000
  O   O122      1.0  0.75409  0.09035  0.9179300000000002  1.0000
  O   O123      1.0  0.39158  0.0642  0.005620000000000002  1.0000
  O   O124      1.0  0.28953  0.05179000000000002  0.9777500000000002  1.0000
  O   O125      1.0  0.23325999999999997  0.12667  0.8296300000000001  1.0000
  O   O126      1.0  0.30814  0.17828000000000005  0.7973700000000002  1.0000
  O   O127      1.0  0.70218  0.2382  0.8167600000000003  1.0000
  O   O128      1.0  0.59912  0.2667900000000001  0.8295300000000002  1.0000
