data_image0
_chemical_formula_structural       Zn12H144C232N64O64
_chemical_formula_sum              "Zn12 H144 C232 N64 O64"
_cell_length_a       12.13414
_cell_length_b       25.91749
_cell_length_c       35.69948
_cell_angle_alpha    89.90635
_cell_angle_beta     90.25022
_cell_angle_gamma    90.08625

_symmetry_space_group_name_H-M    'P 1'
_symmetry_Int_Tables_number       1

loop_
  _symmetry_equiv_pos_as_xyz
  'x,y,z'

loop_
  _atom_site_type_symbol
  _atom_site_label
  _atom_site_symmetry_multiplicity
  _atom_site_fract_x
  _atom_site_fract_y
  _atom_site_fract_z
  _atom_site_occupancy
  Zn  Zn1       1.0  0.7819  0.79051  0.3339000000000001  1.0000
  Zn  Zn2       1.0  0.77396  0.8267100000000001  0.19395  1.0000
  Zn  Zn3       1.0  0.04787  0.72585  0.49357  1.0000
  Zn  Zn4       1.0  0.21759000000000003  0.29063  0.16605  1.0000
  Zn  Zn5       1.0  0.22627  0.3266  0.30596  1.0000
  Zn  Zn6       1.0  0.9523  0.22393  0.00645  1.0000
  Zn  Zn7       1.0  0.21811  0.20949999999999996  0.6661000000000001  1.0000
  Zn  Zn8       1.0  0.22604000000000005  0.17329  0.80605  1.0000
  Zn  Zn9       1.0  0.95212  0.27416  0.50643  1.0000
  Zn  Zn10      1.0  0.78242  0.7093700000000001  0.83394  1.0000
  Zn  Zn11      1.0  0.77372  0.67339  0.69404  1.0000
  Zn  Zn12      1.0  0.04763  0.77709  0.9955  1.0000
  H   H1        1.0  0.5462  0.72486  0.4495700000000001  1.0000
  H   H2        1.0  0.8432900000000001  0.74705  0.51461  1.0000
  H   H3        1.0  0.55221  0.679  0.5652200000000002  1.0000
  H   H4        1.0  0.67361  0.72488  0.40119000000000005  1.0000
  H   H5        1.0  0.91715  0.8404799999999999  0.4020700000000001  1.0000
  H   H6        1.0  0.8671200000000001  0.81486  0.47636  1.0000
  H   H7        1.0  0.63617  0.67691  0.61641  1.0000
  H   H8        1.0  0.9611300000000003  0.72323  0.64033  1.0000
  H   H9        1.0  0.92266  0.74121  0.5649000000000002  1.0000
  H   H10       1.0  0.35134000000000004  0.74724  0.47829  1.0000
  H   H11       1.0  0.21176000000000003  0.61182  0.52256  1.0000
  H   H12       1.0  0.43928000000000006  0.60753  0.53228  1.0000
  H   H13       1.0  0.30568  0.82396  0.24634  1.0000
  H   H14       1.0  0.34597  0.76064  0.35726000000000013  1.0000
  H   H15       1.0  0.02472  0.7637800000000001  0.30645000000000006  1.0000
  H   H16       1.0  0.52193  0.74635  0.33541  1.0000
  H   H17       1.0  0.6755700000000001  0.8683399999999999  0.27747  1.0000
  H   H18       1.0  0.45104  0.87264  0.26321  1.0000
  H   H19       1.0  0.22541000000000003  0.77044  0.41137  1.0000
  H   H20       1.0  0.9612900000000001  0.6651  0.4145500000000001  1.0000
  H   H21       1.0  0.01149  0.6861  0.34028  1.0000
  H   H22       1.0  0.9348  0.77101  0.25575  1.0000
  H   H23       1.0  0.99772  0.88611  0.17508  1.0000
  H   H24       1.0  0.18905000000000005  0.87053  0.21601  1.0000
  H   H25       1.0  0.7165800000000001  0.59477  0.3264  1.0000
  H   H26       1.0  0.01292  0.59528  0.23108  1.0000
  H   H27       1.0  0.9625  0.6759899999999999  0.26314  1.0000
  H   H28       1.0  0.09094  0.50695  0.26218  1.0000
  H   H29       1.0  0.16448  0.43096  0.22832  1.0000
  H   H30       1.0  0.85006  0.40818  0.17572000000000002  1.0000
  H   H31       1.0  0.69265  0.67915  0.24428000000000002  1.0000
  H   H32       1.0  0.59429  0.60107  0.2676200000000001  1.0000
  H   H33       1.0  0.38698  0.7404  0.20382  1.0000
  H   H34       1.0  0.4852800000000001  0.5315  0.22722  1.0000
  H   H35       1.0  0.41502  0.44736  0.25074  1.0000
  H   H36       1.0  0.20812000000000003  0.5259  0.32914000000000004  1.0000
  H   H37       1.0  0.45372  0.2249  0.05051  1.0000
  H   H38       1.0  0.15673  0.24688  0.98537  1.0000
  H   H39       1.0  0.44756  0.17907  0.9349500000000001  1.0000
  H   H40       1.0  0.3266  0.22520000000000004  0.09891  1.0000
  H   H41       1.0  0.08303  0.34042  0.09767  1.0000
  H   H42       1.0  0.13281  0.31462  0.02343  1.0000
  H   H43       1.0  0.36362  0.17664  0.88385  1.0000
  H   H44       1.0  0.03893  0.22295  0.85966  1.0000
  H   H45       1.0  0.07761  0.24112  0.9350200000000001  1.0000
  H   H46       1.0  0.64893  0.24717  0.021790000000000007  1.0000
  H   H47       1.0  0.78753  0.11201  0.9774100000000001  1.0000
  H   H48       1.0  0.55992  0.10763  0.9678700000000001  1.0000
  H   H49       1.0  0.69452  0.32384  0.25358  1.0000
  H   H50       1.0  0.65382  0.26075  0.14272000000000007  1.0000
  H   H51       1.0  0.9752  0.264  0.19351  1.0000
  H   H52       1.0  0.4774300000000001  0.24658  0.16457000000000002  1.0000
  H   H53       1.0  0.32493  0.36842  0.22248  1.0000
  H   H54       1.0  0.54945  0.37259  0.2367  1.0000
  H   H55       1.0  0.77432  0.27043  0.08855000000000002  1.0000
  H   H56       1.0  0.03806  0.16525  0.08567000000000001  1.0000
  H   H57       1.0  0.98807  0.18635  0.15987000000000004  1.0000
  H   H58       1.0  0.06523  0.27113  0.24420000000000003  1.0000
  H   H59       1.0  0.002540000000000002  0.38582000000000005  0.3248900000000001  1.0000
  H   H60       1.0  0.81124  0.37019  0.28391  1.0000
  H   H61       1.0  0.2838  0.09553  0.17338  1.0000
  H   H62       1.0  0.9878200000000001  0.09495  0.26893000000000006  1.0000
  H   H63       1.0  0.03812  0.17597  0.23688  1.0000
  H   H64       1.0  0.90926  0.00689  0.23759  1.0000
  H   H65       1.0  0.8353000000000002  0.9309300000000001  0.27174  1.0000
  H   H66       1.0  0.15021  0.90772  0.3238800000000001  1.0000
  H   H67       1.0  0.30746  0.17932000000000003  0.25587000000000004  1.0000
  H   H68       1.0  0.40526  0.10133  0.23252  1.0000
  H   H69       1.0  0.61346  0.24035  0.2962900000000001  1.0000
  H   H70       1.0  0.51364  0.03132  0.27276  1.0000
  H   H71       1.0  0.5844  0.9474  0.24949  1.0000
  H   H72       1.0  0.79134  0.02655  0.17108  1.0000
  H   H73       1.0  0.45381  0.27514  0.55043  1.0000
  H   H74       1.0  0.15671  0.25295  0.48539000000000004  1.0000
  H   H75       1.0  0.4478  0.321  0.43477  1.0000
  H   H76       1.0  0.3264  0.27512  0.59881  1.0000
  H   H77       1.0  0.08286  0.15952  0.59793  1.0000
  H   H78       1.0  0.13289  0.18514999999999998  0.52364  1.0000
  H   H79       1.0  0.36383000000000004  0.32309000000000004  0.38359  1.0000
  H   H80       1.0  0.03887  0.27676  0.35968  1.0000
  H   H81       1.0  0.07734  0.25879  0.4351  1.0000
  H   H82       1.0  0.64868  0.25276  0.5217  1.0000
  H   H83       1.0  0.78824  0.38818  0.4774300000000001  1.0000
  H   H84       1.0  0.56072  0.39248  0.46772  1.0000
  H   H85       1.0  0.69433  0.17603  0.75366  1.0000
  H   H86       1.0  0.65405  0.23935999999999996  0.64273  1.0000
  H   H87       1.0  0.9753  0.23622  0.6935500000000001  1.0000
  H   H88       1.0  0.47809000000000007  0.25365  0.6645900000000002  1.0000
  H   H89       1.0  0.32445  0.13167  0.72253  1.0000
  H   H90       1.0  0.54897  0.12736  0.73679  1.0000
  H   H91       1.0  0.77458  0.22956999999999997  0.58863  1.0000
  H   H92       1.0  0.038740000000000004  0.33489  0.58544  1.0000
  H   H93       1.0  0.98856  0.31388  0.6597100000000001  1.0000
  H   H94       1.0  0.06521  0.22898  0.74425  1.0000
  H   H95       1.0  0.002270000000000003  0.11389000000000002  0.8249200000000002  1.0000
  H   H96       1.0  0.81095  0.12947  0.7839900000000001  1.0000
  H   H97       1.0  0.28342  0.40523  0.6736000000000002  1.0000
  H   H98       1.0  0.98709  0.40471  0.7689200000000003  1.0000
  H   H99       1.0  0.03751  0.32401  0.7368700000000002  1.0000
  H   H100      1.0  0.90907  0.49305  0.7378400000000003  1.0000
  H   H101      1.0  0.83555  0.56905  0.7716800000000003  1.0000
  H   H102      1.0  0.14998  0.59183  0.8242800000000002  1.0000
  H   H103      1.0  0.30753  0.32083  0.7556200000000001  1.0000
  H   H104      1.0  0.40603  0.39888  0.73229  1.0000
  H   H105      1.0  0.61298  0.25959  0.79629  1.0000
  H   H106      1.0  0.51482  0.46854  0.77284  1.0000
  H   H107      1.0  0.58499  0.55267  0.7492400000000002  1.0000
  H   H108      1.0  0.79201  0.47400999999999993  0.67092  1.0000
  H   H109      1.0  0.54629  0.7751  0.9494900000000001  1.0000
  H   H110      1.0  0.84321  0.75312  0.014660000000000001  1.0000
  H   H111      1.0  0.55245  0.82093  0.06505  1.0000
  H   H112      1.0  0.67341  0.77479  0.9011  1.0000
  H   H113      1.0  0.91699  0.65959  0.90233  1.0000
  H   H114      1.0  0.86723  0.68538  0.9765700000000002  1.0000
  H   H115      1.0  0.63636  0.82337  0.11615000000000002  1.0000
  H   H116      1.0  0.9610500000000001  0.77705  0.14034000000000005  1.0000
  H   H117      1.0  0.9223800000000002  0.75888  0.065  1.0000
  H   H118      1.0  0.35103  0.75284  0.97822  1.0000
  H   H119      1.0  0.2125  0.8880100000000001  0.02261  1.0000
  H   H120      1.0  0.44014  0.89239  0.03212  1.0000
  H   H121      1.0  0.30548  0.67616  0.74642  1.0000
  H   H122      1.0  0.34617  0.73925  0.85728  1.0000
  H   H123      1.0  0.0248  0.73601  0.80649  1.0000
  H   H124      1.0  0.52256  0.75342  0.83542  1.0000
  H   H125      1.0  0.6750700000000001  0.63158  0.77752  1.0000
  H   H126      1.0  0.45055000000000006  0.6274099999999999  0.7633000000000001  1.0000
  H   H127      1.0  0.22566  0.72957  0.91146  1.0000
  H   H128      1.0  0.9619100000000003  0.83472  0.91434  1.0000
  H   H129      1.0  0.01192  0.81364  0.84017  1.0000
  H   H130      1.0  0.93477  0.72887  0.7558  1.0000
  H   H131      1.0  0.99747  0.61418  0.6751100000000001  1.0000
  H   H132      1.0  0.18876  0.62982  0.71609  1.0000
  H   H133      1.0  0.7162200000000001  0.90448  0.82661  1.0000
  H   H134      1.0  0.012190000000000001  0.90505  0.73106  1.0000
  H   H135      1.0  0.96188  0.82403  0.76311  1.0000
  H   H136      1.0  0.09076  0.99311  0.7624  1.0000
  H   H137      1.0  0.16473  0.06907  0.72825  1.0000
  H   H138      1.0  0.8498000000000001  0.09228  0.67612  1.0000
  H   H139      1.0  0.69256  0.8207  0.7441300000000002  1.0000
  H   H140      1.0  0.59473  0.8986699999999999  0.7674900000000002  1.0000
  H   H141      1.0  0.38655000000000006  0.75966  0.7037100000000002  1.0000
  H   H142      1.0  0.48633  0.96867  0.72722  1.0000
  H   H143      1.0  0.41555000000000003  0.05259  0.7505  1.0000
  H   H144      1.0  0.2087  0.97343  0.82893  1.0000
  C   C1        1.0  0.30621  0.48104  0.29115  1.0000
  C   C2        1.0  0.59084  0.72149  0.4759  1.0000
  C   C3        1.0  0.6987500000000001  0.73989  0.47967000000000004  1.0000
  C   C4        1.0  0.75643  0.73576  0.5135400000000002  1.0000
  C   C5        1.0  0.7039100000000001  0.71344  0.54446  1.0000
  C   C6        1.0  0.59576  0.695  0.54137  1.0000
  C   C7        1.0  0.54059  0.69886  0.50703  1.0000
  C   C8        1.0  0.7289  0.75444  0.4115  1.0000
  C   C9        1.0  0.85716  0.814  0.41376  1.0000
  C   C10       1.0  0.8339800000000002  0.80109  0.45008  1.0000
  C   C11       1.0  0.71897  0.69129  0.61236  1.0000
  C   C12       1.0  0.88772  0.7163199999999998  0.62369  1.0000
  C   C13       1.0  0.8687700000000002  0.7263  0.58657  1.0000
  C   C14       1.0  0.34125  0.7095  0.49086  1.0000
  C   C15       1.0  0.27443  0.6396200000000001  0.51483  1.0000
  C   C16       1.0  0.38647  0.6367  0.52015  1.0000
  C   C17       1.0  0.26979  0.80709  0.2713000000000001  1.0000
  C   C18       1.0  0.33659  0.79459  0.30193  1.0000
  C   C19       1.0  0.29332  0.77068  0.3337200000000001  1.0000
  C   C20       1.0  0.18126000000000003  0.75847  0.33424  1.0000
  C   C21       1.0  0.11245000000000001  0.77128  0.30425  1.0000
  C   C22       1.0  0.15714  0.79631  0.27319  1.0000
  C   C23       1.0  0.53346  0.7813199999999999  0.31934  1.0000
  C   C24       1.0  0.60935  0.8446  0.28804  1.0000
  C   C25       1.0  0.4991  0.84641  0.2802  1.0000
  C   C26       1.0  0.16132  0.74364  0.40314  1.0000
  C   C27       1.0  0.02358  0.69044  0.40298  1.0000
  C   C28       1.0  0.04577  0.70064  0.3661  1.0000
  C   C29       1.0  0.9782200000000001  0.79923  0.23888  1.0000
  C   C30       1.0  0.0156  0.85893  0.19733  1.0000
  C   C31       1.0  0.11030000000000001  0.85122  0.21742  1.0000
  C   C32       1.0  0.79633  0.68966  0.31548  1.0000
  C   C33       1.0  0.83471  0.6411  0.29669  1.0000
  C   C34       1.0  0.78126  0.59486  0.30547  1.0000
  C   C35       1.0  0.81076  0.54958  0.28732  1.0000
  C   C36       1.0  0.89325  0.54816  0.25969  1.0000
  C   C37       1.0  0.94795  0.59475  0.252  1.0000
  C   C38       1.0  0.9194  0.6404600000000001  0.27014  1.0000
  C   C39       1.0  0.92795  0.50149  0.23873  1.0000
  C   C40       1.0  0.03792  0.48569  0.243  1.0000
  C   C41       1.0  0.07963  0.44307  0.22400000000000003  1.0000
  C   C42       1.0  0.012750000000000001  0.41547  0.19905  1.0000
  C   C43       1.0  0.9026300000000002  0.42979  0.19477000000000005  1.0000
  C   C44       1.0  0.86108  0.47176  0.21448  1.0000
  C   C45       1.0  0.055760000000000004  0.371  0.17636  1.0000
  C   C46       1.0  0.60502  0.76142  0.20721  1.0000
  C   C47       1.0  0.54607  0.7151  0.22289  1.0000
  C   C48       1.0  0.60398  0.67542  0.24085  1.0000
  C   C49       1.0  0.54883  0.63175  0.25368  1.0000
  C   C50       1.0  0.43436  0.62603  0.24975  1.0000
  C   C51       1.0  0.37755  0.66667  0.23163  1.0000
  C   C52       1.0  0.43235  0.71037  0.21842  1.0000
  C   C53       1.0  0.38663000000000003  0.57729  0.26452  1.0000
  C   C54       1.0  0.42428  0.53051  0.24949  1.0000
  C   C55       1.0  0.38498  0.48324  0.26263000000000003  1.0000
  C   C56       1.0  0.26844  0.52708  0.3067500000000001  1.0000
  C   C57       1.0  0.30922  0.57393  0.29368  1.0000
  C   C58       1.0  0.26  0.43065  0.30517  1.0000
  C   C59       1.0  0.6938300000000001  0.98141  0.20913  1.0000
  C   C60       1.0  0.40907  0.22151  0.02419  1.0000
  C   C61       1.0  0.30125  0.23988  0.020350000000000004  1.0000
  C   C62       1.0  0.24357000000000004  0.23571  0.9864700000000001  1.0000
  C   C63       1.0  0.29602  0.2134  0.9556100000000001  1.0000
  C   C64       1.0  0.40408  0.19503  0.9587600000000001  1.0000
  C   C65       1.0  0.45922  0.19889  0.9931100000000003  1.0000
  C   C66       1.0  0.27125  0.25462  0.08848  1.0000
  C   C67       1.0  0.14295  0.31398  0.08601000000000002  1.0000
  C   C68       1.0  0.16603  0.30097  0.04974  1.0000
  C   C69       1.0  0.28089  0.19102  0.8877800000000002  1.0000
  C   C70       1.0  0.11232  0.21605  0.8763200000000001  1.0000
  C   C71       1.0  0.13136  0.22617  0.9133900000000001  1.0000
  C   C72       1.0  0.65866  0.20948  0.00922  1.0000
  C   C73       1.0  0.72499  0.13972  0.9851900000000001  1.0000
  C   C74       1.0  0.6129  0.13678  0.97997  1.0000
  C   C75       1.0  0.7303000000000001  0.30707  0.22861000000000004  1.0000
  C   C76       1.0  0.66338  0.29467  0.19799  1.0000
  C   C77       1.0  0.70654  0.27082  0.16623  1.0000
  C   C78       1.0  0.81859  0.25869  0.16571000000000005  1.0000
  C   C79       1.0  0.88752  0.27152  0.19567  1.0000
  C   C80       1.0  0.84294  0.29638  0.22674000000000002  1.0000
  C   C81       1.0  0.4662200000000001  0.28149  0.18063000000000004  1.0000
  C   C82       1.0  0.3909  0.34469  0.21189  1.0000
  C   C83       1.0  0.5012  0.34647  0.2197  1.0000
  C   C84       1.0  0.83832  0.24369  0.09685000000000002  1.0000
  C   C85       1.0  0.97586  0.19056  0.09718  1.0000
  C   C86       1.0  0.95377  0.20083  0.13402  1.0000
  C   C87       1.0  0.021970000000000003  0.29929  0.26104  1.0000
  C   C88       1.0  0.98469  0.35874000000000006  0.30261000000000005  1.0000
  C   C89       1.0  0.88995  0.35097  0.28255  1.0000
  C   C90       1.0  0.2029  0.19052  0.18464000000000003  1.0000
  C   C91       1.0  0.16554000000000002  0.14147  0.2032  1.0000
  C   C92       1.0  0.21895  0.09537  0.19427  1.0000
  C   C93       1.0  0.18914000000000003  0.0498  0.21222000000000005  1.0000
  C   C94       1.0  0.10699000000000002  0.04812  0.23998  1.0000
  C   C95       1.0  0.05257  0.09463  0.24791  1.0000
  C   C96       1.0  0.08094  0.14049  0.22980000000000003  1.0000
  C   C97       1.0  0.07226  0.00127  0.26089  1.0000
  C   C98       1.0  0.96214  0.98553  0.25676  1.0000
  C   C99       1.0  0.9203  0.9429500000000001  0.27591  1.0000
  C   C100      1.0  0.98714  0.91507  0.30073  1.0000
  C   C101      1.0  0.09744  0.92936  0.3049  1.0000
  C   C102      1.0  0.13903  0.97149  0.2851400000000001  1.0000
  C   C103      1.0  0.9434  0.87014  0.32297  1.0000
  C   C104      1.0  0.39533000000000007  0.26148  0.29282000000000014  1.0000
  C   C105      1.0  0.45413  0.21522  0.27721  1.0000
  C   C106      1.0  0.39607000000000003  0.17553999999999997  0.25931  1.0000
  C   C107      1.0  0.4509  0.1319  0.24651000000000003  1.0000
  C   C108      1.0  0.56529  0.1261  0.25051  1.0000
  C   C109      1.0  0.62228  0.16668  0.26865  1.0000
  C   C110      1.0  0.56777  0.21038  0.28175  1.0000
  C   C111      1.0  0.61279  0.07744  0.23572000000000004  1.0000
  C   C112      1.0  0.57505  0.03047  0.25062  1.0000
  C   C113      1.0  0.61469  0.9833  0.23754  1.0000
  C   C114      1.0  0.7313  0.02761  0.19357  1.0000
  C   C115      1.0  0.6903100000000002  0.07428  0.2066  1.0000
  C   C116      1.0  0.74132  0.93157  0.19484000000000007  1.0000
  C   C117      1.0  0.6939  0.51894  0.70888  1.0000
  C   C118      1.0  0.40917000000000003  0.27851  0.5241  1.0000
  C   C119      1.0  0.30126  0.26011  0.52033  1.0000
  C   C120      1.0  0.24358000000000002  0.26424  0.48646  1.0000
  C   C121      1.0  0.2961  0.28656  0.45554  1.0000
  C   C122      1.0  0.40425  0.305  0.45862  1.0000
  C   C123      1.0  0.45942000000000005  0.30114  0.4929700000000001  1.0000
  C   C124      1.0  0.27111  0.24555999999999997  0.5885  1.0000
  C   C125      1.0  0.14285  0.186  0.58624  1.0000
  C   C126      1.0  0.16603  0.19891  0.5499100000000002  1.0000
  C   C127      1.0  0.28103  0.30871  0.38764  1.0000
  C   C128      1.0  0.11228  0.28368000000000004  0.37631  1.0000
  C   C129      1.0  0.13124  0.2737  0.41343  1.0000
  C   C130      1.0  0.65876  0.2905  0.50914  1.0000
  C   C131      1.0  0.7255800000000002  0.36038  0.48516  1.0000
  C   C132      1.0  0.61353  0.36331  0.47985  1.0000
  C   C133      1.0  0.73022  0.19291000000000003  0.72869  1.0000
  C   C134      1.0  0.66343  0.20541000000000004  0.69807  1.0000
  C   C135      1.0  0.7067000000000001  0.22932  0.66627  1.0000
  C   C136      1.0  0.8187600000000002  0.24152  0.66575  1.0000
  C   C137      1.0  0.88757  0.22872  0.69575  1.0000
  C   C138      1.0  0.84288  0.20368999999999998  0.7268000000000002  1.0000
  C   C139      1.0  0.46656  0.21868  0.68065  1.0000
  C   C140      1.0  0.39067  0.1554  0.71196  1.0000
  C   C141      1.0  0.50091  0.15358999999999995  0.71979  1.0000
  C   C142      1.0  0.83868  0.25636  0.5968500000000001  1.0000
  C   C143      1.0  0.97645  0.30955000000000005  0.59701  1.0000
  C   C144      1.0  0.9542700000000001  0.29934  0.63389  1.0000
  C   C145      1.0  0.02179  0.20077  0.76112  1.0000
  C   C146      1.0  0.9844000000000002  0.14107  0.8026700000000002  1.0000
  C   C147      1.0  0.8897  0.14878  0.7825800000000003  1.0000
  C   C148      1.0  0.20365999999999998  0.31035  0.68451  1.0000
  C   C149      1.0  0.16529  0.3589  0.70331  1.0000
  C   C150      1.0  0.21874000000000002  0.40513999999999994  0.69453  1.0000
  C   C151      1.0  0.18925  0.45042  0.71269  1.0000
  C   C152      1.0  0.10676999999999999  0.45184  0.74032  1.0000
  C   C153      1.0  0.05207  0.40525  0.74801  1.0000
  C   C154      1.0  0.08061  0.35954  0.72986  1.0000
  C   C155      1.0  0.07206000000000001  0.4985200000000001  0.7612800000000002  1.0000
  C   C156      1.0  0.9621000000000001  0.51431  0.7570100000000002  1.0000
  C   C157      1.0  0.92039  0.55693  0.77601  1.0000
  C   C158      1.0  0.98727  0.58454  0.80095  1.0000
  C   C159      1.0  0.09739  0.57023  0.80523  1.0000
  C   C160      1.0  0.13892  0.52826  0.7855200000000002  1.0000
  C   C161      1.0  0.94425  0.62901  0.8236400000000003  1.0000
  C   C162      1.0  0.39501  0.23858000000000001  0.7927800000000003  1.0000
  C   C163      1.0  0.45398  0.28492  0.7771500000000002  1.0000
  C   C164      1.0  0.3961700000000001  0.32458  0.75913  1.0000
  C   C165      1.0  0.45137  0.36826  0.74633  1.0000
  C   C166      1.0  0.5658  0.37399  0.75036  1.0000
  C   C167      1.0  0.6225  0.33335000000000004  0.76851  1.0000
  C   C168      1.0  0.56767  0.28965  0.7817000000000002  1.0000
  C   C169      1.0  0.61362  0.42272  0.73561  1.0000
  C   C170      1.0  0.57589  0.46951  0.75059  1.0000
  C   C171      1.0  0.61513  0.51678  0.73741  1.0000
  C   C172      1.0  0.73176  0.47289  0.69334  1.0000
  C   C173      1.0  0.6910900000000002  0.42606  0.70646  1.0000
  C   C174      1.0  0.74001  0.56933  0.69483  1.0000
  C   C175      1.0  0.30618  0.01858  0.79087  1.0000
  C   C176      1.0  0.59093  0.77849  0.97582  1.0000
  C   C177      1.0  0.69876  0.76013  0.97965  1.0000
  C   C178      1.0  0.7564  0.7643000000000001  0.01353  1.0000
  C   C179      1.0  0.7039700000000001  0.78659  0.0444  1.0000
  C   C180      1.0  0.59591  0.80496  0.04124  1.0000
  C   C181      1.0  0.5407900000000002  0.80111  0.00689  1.0000
  C   C182      1.0  0.72876  0.74537  0.9115200000000001  1.0000
  C   C183      1.0  0.85707  0.68603  0.91399  1.0000
  C   C184      1.0  0.8339800000000002  0.6990300000000002  0.95026  1.0000
  C   C185      1.0  0.71909  0.80899  0.11222  1.0000
  C   C186      1.0  0.8876500000000002  0.78395  0.12369000000000001  1.0000
  C   C187      1.0  0.86858  0.7738  0.08662000000000003  1.0000
  C   C188      1.0  0.34134  0.79053  0.99079  1.0000
  C   C189      1.0  0.27508  0.86031  0.01483  1.0000
  C   C190      1.0  0.38716  0.86324  0.02003  1.0000
  C   C191      1.0  0.2697  0.6929299999999999  0.77139  1.0000
  C   C192      1.0  0.33661  0.7053300000000001  0.80201  1.0000
  C   C193      1.0  0.29344  0.72918  0.83377  1.0000
  C   C194      1.0  0.18139  0.7413199999999999  0.83431  1.0000
  C   C195      1.0  0.11249  0.72848  0.80434  1.0000
  C   C196      1.0  0.15706  0.70363  0.77327  1.0000
  C   C197      1.0  0.53378  0.71851  0.81937  1.0000
  C   C198      1.0  0.60911  0.65531  0.78811  1.0000
  C   C199      1.0  0.49881  0.65354  0.7803  1.0000
  C   C200      1.0  0.1616  0.7563100000000001  0.90321  1.0000
  C   C201      1.0  0.024120000000000006  0.80938  0.9028800000000001  1.0000
  C   C202      1.0  0.0462  0.79916  0.8660200000000001  1.0000
  C   C203      1.0  0.97803  0.70071  0.73896  1.0000
  C   C204      1.0  0.01531  0.64126  0.69739  1.0000
  C   C205      1.0  0.11005  0.6490400000000001  0.71745  1.0000
  C   C206      1.0  0.79711  0.8094900000000002  0.8153600000000002  1.0000
  C   C207      1.0  0.83447  0.8585299999999999  0.79679  1.0000
  C   C208      1.0  0.78107  0.9046300000000002  0.80573  1.0000
  C   C209      1.0  0.8109000000000001  0.9502  0.7877700000000002  1.0000
  C   C210      1.0  0.8930500000000002  0.95188  0.76001  1.0000
  C   C211      1.0  0.94744  0.90536  0.7520800000000001  1.0000
  C   C212      1.0  0.91906  0.85951  0.77019  1.0000
  C   C213      1.0  0.92776  0.9987399999999999  0.73911  1.0000
  C   C214      1.0  0.03788  0.01447  0.74323  1.0000
  C   C215      1.0  0.07973  0.05705  0.7240800000000002  1.0000
  C   C216      1.0  0.01288  0.08493  0.69927  1.0000
  C   C217      1.0  0.9025700000000001  0.07064  0.6951  1.0000
  C   C218      1.0  0.8609900000000003  0.02851  0.71486  1.0000
  C   C219      1.0  0.05662  0.12986  0.67703  1.0000
  C   C220      1.0  0.60467  0.73851  0.70718  1.0000
  C   C221      1.0  0.54588  0.78478  0.72279  1.0000
  C   C222      1.0  0.60395  0.82445  0.74069  1.0000
  C   C223      1.0  0.54912  0.86809  0.7535  1.0000
  C   C224      1.0  0.43472  0.87389  0.7495  1.0000
  C   C225      1.0  0.37772  0.83331  0.73137  1.0000
  C   C226      1.0  0.43223  0.78961  0.71826  1.0000
  C   C227      1.0  0.38725  0.92256  0.76431  1.0000
  C   C228      1.0  0.42498  0.9695199999999998  0.7493800000000003  1.0000
  C   C229      1.0  0.3852900000000001  0.01669  0.76245  1.0000
  C   C230      1.0  0.26877  0.97238  0.80646  1.0000
  C   C231      1.0  0.30973  0.92571  0.79343  1.0000
  C   C232      1.0  0.25864  0.06842  0.8051400000000001  1.0000
  N   N1        1.0  0.7910500000000001  0.78473  0.39014  1.0000
  N   N2        1.0  0.75144  0.76353  0.44854000000000005  1.0000
  N   N3        1.0  0.79401  0.69454  0.63926  1.0000
  N   N4        1.0  0.76072  0.71016  0.57931  1.0000
  N   N5        1.0  0.24735  0.68515  0.4968600000000001  1.0000
  N   N6        1.0  0.42965  0.6815000000000001  0.5044800000000002  1.0000
  N   N7        1.0  0.62953  0.80419  0.3125900000000001  1.0000
  N   N8        1.0  0.45095  0.8063800000000001  0.30048  1.0000
  N   N9        1.0  0.09582000000000002  0.7174800000000001  0.42582  1.0000
  N   N10       1.0  0.13431  0.7346299999999999  0.36615  1.0000
  N   N11       1.0  0.9344200000000001  0.8262  0.21087  1.0000
  N   N12       1.0  0.08615000000000002  0.81328  0.24391  1.0000
  N   N13       1.0  0.74985  0.50269  0.29765  1.0000
  N   N14       1.0  0.74347  0.48337  0.20877000000000004  1.0000
  N   N15       1.0  0.25818  0.66466  0.22461000000000003  1.0000
  N   N16       1.0  0.26841  0.62067  0.31192000000000003  1.0000
  N   N17       1.0  0.20914000000000002  0.28489  0.10974  1.0000
  N   N18       1.0  0.24863000000000002  0.26355  0.0514  1.0000
  N   N19       1.0  0.20587  0.19416000000000003  0.86085  1.0000
  N   N20       1.0  0.23926  0.21003  0.92074  1.0000
  N   N21       1.0  0.7523600000000001  0.18517  0.00315  1.0000
  N   N22       1.0  0.57005  0.1815  0.99568  1.0000
  N   N23       1.0  0.37028000000000005  0.30434  0.18741  1.0000
  N   N24       1.0  0.54902  0.30648  0.19943  1.0000
  N   N25       1.0  0.90367  0.2175  0.07425000000000001  1.0000
  N   N26       1.0  0.86537  0.23479  0.13387  1.0000
  N   N27       1.0  0.06588  0.32621  0.28903  1.0000
  N   N28       1.0  0.91402  0.3132  0.25604  1.0000
  N   N29       1.0  0.24952  0.00295  0.20132000000000003  1.0000
  N   N30       1.0  0.25649  0.98346  0.2911  1.0000
  N   N31       1.0  0.7417000000000001  0.16471000000000002  0.27558  1.0000
  N   N32       1.0  0.73126  0.12097000000000001  0.18821  1.0000
  N   N33       1.0  0.20896000000000003  0.21527  0.6098600000000001  1.0000
  N   N34       1.0  0.24858  0.23647  0.55146  1.0000
  N   N35       1.0  0.20599  0.30545  0.36074  1.0000
  N   N36       1.0  0.23929  0.28984  0.4206900000000001  1.0000
  N   N37       1.0  0.7526600000000001  0.31485  0.50313  1.0000
  N   N38       1.0  0.57036  0.31850999999999996  0.4955200000000001  1.0000
  N   N39       1.0  0.37049  0.19582  0.68741  1.0000
  N   N40       1.0  0.5490700000000001  0.19362  0.69952  1.0000
  N   N41       1.0  0.90418  0.28252  0.57417  1.0000
  N   N42       1.0  0.8657100000000001  0.26536  0.63384  1.0000
  N   N43       1.0  0.06558  0.17380000000000004  0.78913  1.0000
  N   N44       1.0  0.9138500000000003  0.18672  0.7560900000000003  1.0000
  N   N45       1.0  0.25015  0.4973  0.70236  1.0000
  N   N46       1.0  0.25651  0.51663  0.79123  1.0000
  N   N47       1.0  0.74187  0.33532  0.77543  1.0000
  N   N48       1.0  0.73185  0.37933  0.6881700000000002  1.0000
  N   N49       1.0  0.79085  0.7151  0.8902600000000003  1.0000
  N   N50       1.0  0.75142  0.73647  0.9485900000000002  1.0000
  N   N51       1.0  0.7941  0.80585  0.13915  1.0000
  N   N52       1.0  0.76071  0.78996  0.07926  1.0000
  N   N53       1.0  0.24766  0.81486  0.9969  1.0000
  N   N54       1.0  0.4299700000000001  0.81851  0.00432  1.0000
  N   N55       1.0  0.6297300000000001  0.69566  0.8126000000000002  1.0000
  N   N56       1.0  0.4509700000000001  0.6935199999999999  0.80057  1.0000
  N   N57       1.0  0.0962  0.7824100000000002  0.92585  1.0000
  N   N58       1.0  0.13463  0.76522  0.8661600000000002  1.0000
  N   N59       1.0  0.9341200000000002  0.67378  0.7109800000000002  1.0000
  N   N60       1.0  0.08598  0.68681  0.74396  1.0000
  N   N61       1.0  0.7505600000000001  0.9970499999999999  0.79868  1.0000
  N   N62       1.0  0.74354  0.01652  0.70889  1.0000
  N   N63       1.0  0.2583  0.83529  0.72443  1.0000
  N   N64       1.0  0.2688  0.87902  0.8118200000000002  1.0000
  O   O1        1.0  0.65365  0.50776  0.30868000000000007  1.0000
  O   O2        1.0  0.7987700000000001  0.46064  0.2948  1.0000
  O   O3        1.0  0.71133  0.52843  0.2139  1.0000
  O   O4        1.0  0.6822100000000001  0.44714  0.19908000000000006  1.0000
  O   O5        1.0  0.70699  0.76574  0.21813  1.0000
  O   O6        1.0  0.5559  0.7913800000000001  0.18537  1.0000
  O   O7        1.0  0.2947  0.39022  0.28713  1.0000
  O   O8        1.0  0.19355  0.42986  0.33164  1.0000
  O   O9        1.0  0.21064  0.7055399999999998  0.21591000000000005  1.0000
  O   O10       1.0  0.21074  0.6221500000000001  0.22732  1.0000
  O   O11       1.0  0.33237000000000005  0.65821  0.31451  1.0000
  O   O12       1.0  0.17244  0.61986  0.32389  1.0000
  O   O13       1.0  0.85051  0.73149  0.30686  1.0000
  O   O14       1.0  0.7164300000000001  0.6879  0.3374400000000001  1.0000
  O   O15       1.0  0.15077  0.35357999999999995  0.18756  1.0000
  O   O16       1.0  0.9996500000000001  0.35427  0.14967  1.0000
  O   O17       1.0  0.34668  0.00809  0.19125000000000003  1.0000
  O   O18       1.0  0.19976000000000002  0.96091  0.20268  1.0000
  O   O19       1.0  0.28851  0.02862  0.28613  1.0000
  O   O20       1.0  0.3178  0.94736  0.30091000000000007  1.0000
  O   O21       1.0  0.29332  0.26568  0.28195  1.0000
  O   O22       1.0  0.44449  0.29155  0.3145200000000001  1.0000
  O   O23       1.0  0.70825  0.8906  0.21278000000000002  1.0000
  O   O24       1.0  0.80733  0.93212  0.16823  1.0000
  O   O25       1.0  0.78948  0.20558  0.28417000000000003  1.0000
  O   O26       1.0  0.78902  0.12224  0.27277000000000007  1.0000
  O   O27       1.0  0.66758  0.15853  0.18551  1.0000
  O   O28       1.0  0.8270100000000002  0.11999  0.17602000000000004  1.0000
  O   O29       1.0  0.14676  0.23169  0.19315  1.0000
  O   O30       1.0  0.2833  0.19009  0.16283  1.0000
  O   O31       1.0  0.8465900000000001  0.85402  0.31241  1.0000
  O   O32       1.0  0.0006100000000000005  0.85154  0.34872  1.0000
  O   O33       1.0  0.34635  0.49224  0.69132  1.0000
  O   O34       1.0  0.20123000000000005  0.53935  0.70521  1.0000
  O   O35       1.0  0.28865  0.47157  0.7861100000000002  1.0000
  O   O36       1.0  0.31779  0.55286  0.8009200000000002  1.0000
  O   O37       1.0  0.29306  0.23425  0.7818400000000002  1.0000
  O   O38       1.0  0.44411000000000006  0.20859  0.8146  1.0000
  O   O39       1.0  0.7052900000000001  0.60978  0.7128600000000002  1.0000
  O   O40       1.0  0.80644  0.57013  0.6683500000000001  1.0000
  O   O41       1.0  0.7894100000000001  0.29447  0.78417  1.0000
  O   O42       1.0  0.78939  0.37779  0.77253  1.0000
  O   O43       1.0  0.66784  0.34182000000000007  0.68554  1.0000
  O   O44       1.0  0.82773  0.38016  0.67612  1.0000
  O   O45       1.0  0.14949  0.26851  0.69313  1.0000
  O   O46       1.0  0.28355  0.3121  0.66255  1.0000
  O   O47       1.0  0.84922  0.64641  0.81244  1.0000
  O   O48       1.0  0.0003499999999999997  0.64573  0.85033  1.0000
  O   O49       1.0  0.65339  0.99192  0.80875  1.0000
  O   O50       1.0  0.8003300000000001  0.03908  0.7973400000000003  1.0000
  O   O51       1.0  0.7115100000000001  0.97137  0.7138700000000001  1.0000
  O   O52       1.0  0.6822400000000001  0.05263  0.69908  1.0000
  O   O53       1.0  0.70668  0.73432  0.71805  1.0000
  O   O54       1.0  0.55553  0.7084599999999999  0.68547  1.0000
  O   O55       1.0  0.29161  0.10939  0.7871700000000003  1.0000
  O   O56       1.0  0.19266000000000003  0.06788  0.83176  1.0000
  O   O57       1.0  0.21052000000000004  0.79442  0.71582  1.0000
  O   O58       1.0  0.21099  0.87776  0.72723  1.0000
  O   O59       1.0  0.33248  0.84146  0.8144900000000003  1.0000
  O   O60       1.0  0.17299000000000003  0.87999  0.8239500000000002  1.0000
  O   O61       1.0  0.85323  0.76831  0.80684  1.0000
  O   O62       1.0  0.71671  0.80991  0.83717  1.0000
  O   O63       1.0  0.15342  0.14598  0.68759  1.0000
  O   O64       1.0  0.99942  0.14847  0.65127  1.0000
