data_image0
_chemical_formula_structural       Zn16H192C288N16O64
_chemical_formula_sum              "Zn16 H192 C288 N16 O64"
_cell_length_a       11.04639
_cell_length_b       16.22635
_cell_length_c       43.95949
_cell_angle_alpha    90.0
_cell_angle_beta     92.80432
_cell_angle_gamma    90.0

_symmetry_space_group_name_H-M    'P 1'
_symmetry_Int_Tables_number       1

loop_
  _symmetry_equiv_pos_as_xyz
  'x,y,z'

loop_
  _atom_site_type_symbol
  _atom_site_label
  _atom_site_symmetry_multiplicity
  _atom_site_fract_x
  _atom_site_fract_y
  _atom_site_fract_z
  _atom_site_occupancy
  Zn  Zn1       1.0  0.31812000000000007  0.85745  0.1992  1.0000
  Zn  Zn2       1.0  0.31166999999999995  0.68145  0.19821  1.0000
  Zn  Zn3       1.0  0.31871  0.65806  0.9511  1.0000
  Zn  Zn4       1.0  0.31684  0.83498  0.9476999999999999  1.0000
  Zn  Zn5       1.0  0.3181199999999999  0.6425600000000001  0.6992  1.0000
  Zn  Zn6       1.0  0.31166999999999995  0.81855  0.69821  1.0000
  Zn  Zn7       1.0  0.31871  0.8419300000000002  0.4511  1.0000
  Zn  Zn8       1.0  0.31682999999999995  0.66502  0.4477  1.0000
  Zn  Zn9       1.0  0.6818899999999999  0.35745  0.3008  1.0000
  Zn  Zn10      1.0  0.68834  0.18145  0.30179  1.0000
  Zn  Zn11      1.0  0.6813  0.15806  0.5489  1.0000
  Zn  Zn12      1.0  0.68317  0.33498  0.5523  1.0000
  Zn  Zn13      1.0  0.6818899999999999  0.14255  0.8007999999999998  1.0000
  Zn  Zn14      1.0  0.68834  0.31855  0.8017899999999999  1.0000
  Zn  Zn15      1.0  0.6812899999999998  0.34194  0.04889999999999999  1.0000
  Zn  Zn16      1.0  0.68317  0.16502  0.0523  1.0000
  H   H1        1.0  0.39329  0.64896  0.29702  1.0000
  H   H2        1.0  0.3890099999999999  0.6487  0.35382  1.0000
  H   H3        1.0  0.19291999999999995  0.90149  0.37883  1.0000
  H   H4        1.0  0.09742  0.01547  0.34921  1.0000
  H   H5        1.0  0.09715999999999997  0.01382  0.29218  1.0000
  H   H6        1.0  0.19396999999999998  0.8994200000000002  0.26576  1.0000
  H   H7        1.0  0.70191  0.64853  0.18516999999999997  1.0000
  H   H8        1.0  0.92766  0.6518700000000002  0.1865  1.0000
  H   H9        1.0  0.035289999999999995  0.92176  0.22457  1.0000
  H   H10       1.0  0.9196  0.042  0.24189  1.0000
  H   H11       1.0  0.6951  0.03566  0.24287  1.0000
  H   H12       1.0  0.58642  0.90964  0.22528  1.0000
  H   H13       1.0  0.3540599999999999  0.65675  0.10736  1.0000
  H   H14       1.0  0.35862999999999995  0.6403  0.05095  1.0000
  H   H15       1.0  0.18779  0.8895  0.00987  1.0000
  H   H16       1.0  0.09358  0.012720000000000004  0.031189999999999996  1.0000
  H   H17       1.0  0.08323999999999998  0.02849  0.08762  1.0000
  H   H18       1.0  0.16391999999999998  0.91895  0.12198  1.0000
  H   H19       1.0  0.71572  0.86466  0.96864  1.0000
  H   H20       1.0  0.94113  0.85565  0.96855  1.0000
  H   H21       1.0  0.021409999999999974  0.6122  0.9107099999999999  1.0000
  H   H22       1.0  0.89339  0.50807  0.88363  1.0000
  H   H23       1.0  0.6682199999999999  0.5156  0.88486  1.0000
  H   H24       1.0  0.5722299999999998  0.62716  0.9134299999999999  1.0000
  H   H25       1.0  0.50361  0.55447  0.1953  1.0000
  H   H26       1.0  0.51746  0.40196  0.18648  1.0000
  H   H27       1.0  0.1261  0.39661  0.18008  1.0000
  H   H28       1.0  0.12926  0.54887  0.18955  1.0000
  H   H29       1.0  0.40134  0.27963  0.16295  1.0000
  H   H30       1.0  0.24158999999999997  0.27604  0.16484  1.0000
  H   H31       1.0  0.4253399999999999  0.26874  0.2199  1.0000
  H   H32       1.0  0.26833999999999997  0.26828  0.2228  1.0000
  H   H33       1.0  0.30004  0.14896000000000006  0.15636  1.0000
  H   H34       1.0  0.2934399999999999  0.9959199999999999  0.15596  1.0000
  H   H35       1.0  0.37037  0.98324  0.2489  1.0000
  H   H36       1.0  0.38378  0.13702  0.25335  1.0000
  H   H37       1.0  0.33538999999999997  0.53741  0.00125  1.0000
  H   H38       1.0  0.3719499999999999  0.3855600000000001  0.00817  1.0000
  H   H39       1.0  0.36787  0.36499  0.91018  1.0000
  H   H40       1.0  0.33829  0.51807  0.9074499999999999  1.0000
  H   H41       1.0  0.4460599999999999  0.24993000000000004  0.94389  1.0000
  H   H42       1.0  0.44058999999999987  0.2577  0.98393  1.0000
  H   H43       1.0  0.21258999999999997  0.24501  0.94108  1.0000
  H   H44       1.0  0.21808  0.23808  0.98092  1.0000
  H   H45       1.0  0.09727999999999995  0.1116  0.94201  1.0000
  H   H46       1.0  0.12332000000000001  0.95954  0.9368000000000001  1.0000
  H   H47       1.0  0.48427  0.9718800000000002  0.96638  1.0000
  H   H48       1.0  0.47441999999999995  0.12358000000000001  0.97389  1.0000
  H   H49       1.0  0.39329  0.85104  0.79702  1.0000
  H   H50       1.0  0.3890099999999999  0.8513  0.85382  1.0000
  H   H51       1.0  0.19293  0.5985100000000002  0.87883  1.0000
  H   H52       1.0  0.09742999999999999  0.48453  0.8492099999999999  1.0000
  H   H53       1.0  0.09715999999999997  0.48618  0.79218  1.0000
  H   H54       1.0  0.19396999999999998  0.60058  0.76576  1.0000
  H   H55       1.0  0.70191  0.8514700000000002  0.68517  1.0000
  H   H56       1.0  0.92766  0.84814  0.6865  1.0000
  H   H57       1.0  0.035289999999999995  0.57824  0.72457  1.0000
  H   H58       1.0  0.9196  0.458  0.7418900000000002  1.0000
  H   H59       1.0  0.6951  0.46434  0.74287  1.0000
  H   H60       1.0  0.58642  0.59036  0.72529  1.0000
  H   H61       1.0  0.3540599999999999  0.84325  0.60736  1.0000
  H   H62       1.0  0.3586299999999999  0.8597  0.55095  1.0000
  H   H63       1.0  0.18779  0.61049  0.50987  1.0000
  H   H64       1.0  0.09358  0.48728  0.53119  1.0000
  H   H65       1.0  0.08323999999999998  0.47151  0.58762  1.0000
  H   H66       1.0  0.16391999999999998  0.58105  0.62198  1.0000
  H   H67       1.0  0.71572  0.63534  0.46864  1.0000
  H   H68       1.0  0.94113  0.6443500000000002  0.46854999999999997  1.0000
  H   H69       1.0  0.021399999999999992  0.8878  0.41071  1.0000
  H   H70       1.0  0.8933799999999998  0.9919300000000001  0.38362999999999997  1.0000
  H   H71       1.0  0.6682199999999999  0.9844  0.38486  1.0000
  H   H72       1.0  0.5722299999999999  0.87284  0.41343  1.0000
  H   H73       1.0  0.50362  0.94553  0.6953  1.0000
  H   H74       1.0  0.51746  0.09804  0.68648  1.0000
  H   H75       1.0  0.12610999999999997  0.10339000000000002  0.68008  1.0000
  H   H76       1.0  0.12926  0.9511300000000003  0.68955  1.0000
  H   H77       1.0  0.40134999999999993  0.22037000000000007  0.66295  1.0000
  H   H78       1.0  0.24158999999999997  0.22396  0.66484  1.0000
  H   H79       1.0  0.42535  0.23126000000000005  0.7199  1.0000
  H   H80       1.0  0.26835  0.23172  0.7228  1.0000
  H   H81       1.0  0.30004  0.35104  0.65636  1.0000
  H   H82       1.0  0.29345  0.50408  0.65596  1.0000
  H   H83       1.0  0.37037  0.51676  0.7489  1.0000
  H   H84       1.0  0.3837800000000001  0.36298  0.7533500000000001  1.0000
  H   H85       1.0  0.3353899999999999  0.96259  0.50125  1.0000
  H   H86       1.0  0.3719499999999999  0.11444  0.50817  1.0000
  H   H87       1.0  0.36787  0.13501  0.41017999999999993  1.0000
  H   H88       1.0  0.33829  0.9819300000000002  0.40745  1.0000
  H   H89       1.0  0.4460599999999999  0.25007  0.44388999999999995  1.0000
  H   H90       1.0  0.4405799999999999  0.2423  0.48393  1.0000
  H   H91       1.0  0.21258999999999997  0.25499  0.44107999999999997  1.0000
  H   H92       1.0  0.21808  0.26192  0.48091999999999996  1.0000
  H   H93       1.0  0.09727999999999999  0.3884  0.44201  1.0000
  H   H94       1.0  0.12330999999999999  0.54046  0.4368  1.0000
  H   H95       1.0  0.48427  0.52812  0.46637999999999996  1.0000
  H   H96       1.0  0.47442  0.37642  0.47389  1.0000
  H   H97       1.0  0.6067099999999999  0.14896000000000006  0.20297999999999997  1.0000
  H   H98       1.0  0.6109999999999999  0.1487  0.14618  1.0000
  H   H99       1.0  0.8070799999999998  0.40149  0.12117000000000001  1.0000
  H   H100      1.0  0.90258  0.51547  0.15079  1.0000
  H   H101      1.0  0.9028499999999999  0.5138200000000003  0.20781999999999998  1.0000
  H   H102      1.0  0.8060399999999999  0.39942  0.23424  1.0000
  H   H103      1.0  0.29808999999999997  0.14853  0.31483  1.0000
  H   H104      1.0  0.07235  0.15187  0.3135  1.0000
  H   H105      1.0  0.96471  0.42176  0.27543  1.0000
  H   H106      1.0  0.08039999999999999  0.542  0.25811  1.0000
  H   H107      1.0  0.30490999999999996  0.5356600000000002  0.25713  1.0000
  H   H108      1.0  0.41358999999999996  0.4096400000000001  0.27472  1.0000
  H   H109      1.0  0.6459399999999997  0.15675  0.39263999999999993  1.0000
  H   H110      1.0  0.64138  0.1403  0.44904999999999995  1.0000
  H   H111      1.0  0.81221  0.3895  0.49012999999999995  1.0000
  H   H112      1.0  0.90643  0.51272  0.46881  1.0000
  H   H113      1.0  0.91676  0.52849  0.41238  1.0000
  H   H114      1.0  0.8360799999999998  0.41895  0.37802  1.0000
  H   H115      1.0  0.28429  0.3646600000000001  0.53136  1.0000
  H   H116      1.0  0.05887  0.35565  0.53145  1.0000
  H   H117      1.0  0.9785999999999998  0.1122  0.58929  1.0000
  H   H118      1.0  0.10661999999999999  0.00807  0.61637  1.0000
  H   H119      1.0  0.33178  0.015599999999999998  0.61514  1.0000
  H   H120      1.0  0.42777999999999994  0.12716  0.58657  1.0000
  H   H121      1.0  0.49638999999999994  0.05447000000000001  0.3047  1.0000
  H   H122      1.0  0.4825499999999999  0.90196  0.31352  1.0000
  H   H123      1.0  0.8738999999999998  0.8966100000000002  0.31992  1.0000
  H   H124      1.0  0.8707399999999997  0.04887  0.31045  1.0000
  H   H125      1.0  0.59866  0.77963  0.33705  1.0000
  H   H126      1.0  0.75841  0.7760400000000002  0.33516  1.0000
  H   H127      1.0  0.5746599999999998  0.76874  0.2801  1.0000
  H   H128      1.0  0.7316599999999999  0.76828  0.2772  1.0000
  H   H129      1.0  0.69997  0.64896  0.34364  1.0000
  H   H130      1.0  0.70656  0.4959200000000001  0.34404  1.0000
  H   H131      1.0  0.62963  0.48324  0.2511  1.0000
  H   H132      1.0  0.6162199999999999  0.63702  0.24664999999999998  1.0000
  H   H133      1.0  0.6646199999999999  0.03741  0.49875  1.0000
  H   H134      1.0  0.62806  0.88556  0.49184  1.0000
  H   H135      1.0  0.6321399999999998  0.86499  0.58982  1.0000
  H   H136      1.0  0.66172  0.01807  0.59255  1.0000
  H   H137      1.0  0.55394  0.7499300000000002  0.55611  1.0000
  H   H138      1.0  0.55942  0.7577  0.51607  1.0000
  H   H139      1.0  0.7874199999999998  0.74501  0.55892  1.0000
  H   H140      1.0  0.78193  0.73808  0.51908  1.0000
  H   H141      1.0  0.9027199999999999  0.6116000000000003  0.558  1.0000
  H   H142      1.0  0.8766899999999999  0.4595400000000001  0.5632  1.0000
  H   H143      1.0  0.51574  0.47188  0.53363  1.0000
  H   H144      1.0  0.5255899999999999  0.62358  0.52611  1.0000
  H   H145      1.0  0.60672  0.35104  0.70298  1.0000
  H   H146      1.0  0.6109999999999999  0.3513  0.64618  1.0000
  H   H147      1.0  0.8070799999999998  0.09851  0.62117  1.0000
  H   H148      1.0  0.90258  0.9845300000000002  0.65079  1.0000
  H   H149      1.0  0.9028499999999994  0.98618  0.70782  1.0000
  H   H150      1.0  0.8060399999999999  0.10058  0.73424  1.0000
  H   H151      1.0  0.29808999999999997  0.35147  0.81483  1.0000
  H   H152      1.0  0.07235  0.34813  0.81351  1.0000
  H   H153      1.0  0.9647099999999996  0.07824000000000003  0.7754299999999998  1.0000
  H   H154      1.0  0.08040999999999997  0.9580000000000002  0.7581099999999998  1.0000
  H   H155      1.0  0.30490999999999996  0.96434  0.75713  1.0000
  H   H156      1.0  0.41358999999999996  0.09036  0.77472  1.0000
  H   H157      1.0  0.64594  0.34325  0.89264  1.0000
  H   H158      1.0  0.64138  0.3597  0.94905  1.0000
  H   H159      1.0  0.81221  0.11049  0.99013  1.0000
  H   H160      1.0  0.90643  0.9872800000000002  0.9688100000000001  1.0000
  H   H161      1.0  0.9167699999999999  0.9715100000000002  0.91238  1.0000
  H   H162      1.0  0.8360799999999998  0.08105  0.87802  1.0000
  H   H163      1.0  0.28428  0.13534  0.03136  1.0000
  H   H164      1.0  0.05886999999999999  0.14435  0.03145  1.0000
  H   H165      1.0  0.9785999999999998  0.3878  0.08929  1.0000
  H   H166      1.0  0.10661999999999999  0.49193  0.11636999999999999  1.0000
  H   H167      1.0  0.33178  0.4844  0.11514  1.0000
  H   H168      1.0  0.42777999999999994  0.3728400000000001  0.08657  1.0000
  H   H169      1.0  0.4963899999999999  0.44553  0.8046999999999999  1.0000
  H   H170      1.0  0.4825499999999999  0.59804  0.8135199999999999  1.0000
  H   H171      1.0  0.8738999999999998  0.60339  0.81992  1.0000
  H   H172      1.0  0.8707499999999999  0.45113  0.8104499999999999  1.0000
  H   H173      1.0  0.59866  0.72037  0.83705  1.0000
  H   H174      1.0  0.7584199999999999  0.72396  0.8351599999999999  1.0000
  H   H175      1.0  0.5746599999999998  0.73126  0.7800999999999999  1.0000
  H   H176      1.0  0.7316599999999999  0.73172  0.7771999999999999  1.0000
  H   H177      1.0  0.6999699999999999  0.85104  0.84364  1.0000
  H   H178      1.0  0.70656  0.00408  0.8440399999999999  1.0000
  H   H179      1.0  0.62964  0.01676  0.7511  1.0000
  H   H180      1.0  0.6162199999999999  0.8629800000000002  0.7466499999999999  1.0000
  H   H181      1.0  0.6646199999999999  0.4625900000000001  0.99875  1.0000
  H   H182      1.0  0.6280599999999997  0.61444  0.99184  1.0000
  H   H183      1.0  0.63214  0.63501  0.08982  1.0000
  H   H184      1.0  0.6617099999999999  0.48193  0.09255  1.0000
  H   H185      1.0  0.55394  0.75007  0.05611  1.0000
  H   H186      1.0  0.55942  0.7423  0.01607  1.0000
  H   H187      1.0  0.7874199999999998  0.7549900000000003  0.05891999999999999  1.0000
  H   H188      1.0  0.78193  0.76192  0.01908  1.0000
  H   H189      1.0  0.9027199999999999  0.8884  0.057999999999999996  1.0000
  H   H190      1.0  0.8766899999999999  0.04046  0.0632  1.0000
  H   H191      1.0  0.51574  0.02812  0.03362  1.0000
  H   H192      1.0  0.5255799999999999  0.8764200000000002  0.02611  1.0000
  C   C1        1.0  0.32320000000000004  0.76535  0.25816  1.0000
  C   C2        1.0  0.31012999999999996  0.76732  0.29195  1.0000
  C   C3        1.0  0.3550099999999999  0.70095  0.30883  1.0000
  C   C4        1.0  0.35302  0.70086  0.34075  1.0000
  C   C5        1.0  0.30613000000000007  0.76711  0.35622  1.0000
  C   C6        1.0  0.19533  0.90201  0.35419  1.0000
  C   C7        1.0  0.14141  0.96537  0.33751  1.0000
  C   C8        1.0  0.14159  0.9646400000000003  0.30536  1.0000
  C   C9        1.0  0.19647  0.90089  0.29046  1.0000
  C   C10       1.0  0.25508  0.8352900000000002  0.30688  1.0000
  C   C11       1.0  0.25381  0.83553  0.33967  1.0000
  C   C12       1.0  0.31214  0.7629700000000003  0.39032  1.0000
  C   C13       1.0  0.5499199999999999  0.76611  0.19880999999999996  1.0000
  C   C14       1.0  0.68539  0.7710500000000002  0.20241999999999996  1.0000
  C   C15       1.0  0.7505299999999999  0.70301  0.19343  1.0000
  C   C16       1.0  0.8773599999999998  0.70479  0.19419  1.0000
  C   C17       1.0  0.94252  0.77389  0.20393  1.0000
  C   C18       1.0  0.9374699999999998  0.9191700000000003  0.22477999999999998  1.0000
  C   C19       1.0  0.8724099999999999  0.98607  0.23443  1.0000
  C   C20       1.0  0.74482  0.9826700000000003  0.23483  1.0000
  C   C21       1.0  0.68435  0.91257  0.22497  1.0000
  C   C22       1.0  0.7476699999999998  0.8432300000000003  0.21372  1.0000
  C   C23       1.0  0.8788299999999999  0.84549  0.2142  1.0000
  C   C24       1.0  0.0781  0.76756  0.20236  1.0000
  C   C25       1.0  0.28776999999999997  0.7806800000000003  0.13964  1.0000
  C   C26       1.0  0.27707  0.77689  0.10539  1.0000
  C   C27       1.0  0.32008999999999993  0.70543  0.09226999999999999  1.0000
  C   C28       1.0  0.32289  0.6964  0.06061999999999999  1.0000
  C   C29       1.0  0.28608  0.76013  0.04136  1.0000
  C   C30       1.0  0.1846  0.89664  0.03435  1.0000
  C   C31       1.0  0.13205  0.9656100000000002  0.04639  1.0000
  C   C32       1.0  0.12567999999999996  0.97418  0.07824  1.0000
  C   C33       1.0  0.17138999999999993  0.9134400000000003  0.09758  1.0000
  C   C34       1.0  0.22843  0.84176  0.08617  1.0000
  C   C35       1.0  0.23462999999999998  0.83333  0.05355  1.0000
  C   C36       1.0  0.30758  0.75025  0.00818  1.0000
  C   C37       1.0  0.55298  0.75423  0.9483  1.0000
  C   C38       1.0  0.68724  0.75072  0.9447099999999999  1.0000
  C   C39       1.0  0.7585699999999999  0.8129  0.95766  1.0000
  C   C40       1.0  0.88549  0.8084  0.95732  1.0000
  C   C41       1.0  0.9438099999999998  0.7436  0.9434899999999999  1.0000
  C   C42       1.0  0.9236299999999998  0.61524  0.91131  1.0000
  C   C43       1.0  0.8516  0.55708  0.89636  1.0000
  C   C44       1.0  0.72404  0.5611  0.89715  1.0000
  C   C45       1.0  0.67037  0.6234  0.91306  1.0000
  C   C46       1.0  0.7419  0.68421  0.92898  1.0000
  C   C47       1.0  0.8724599999999998  0.68056  0.9281  1.0000
  C   C48       1.0  0.08052999999999999  0.74386  0.94611  1.0000
  C   C49       1.0  0.4230299999999999  0.51638  0.19191999999999998  1.0000
  C   C50       1.0  0.42944999999999994  0.43209  0.1869  1.0000
  C   C51       1.0  0.32222999999999996  0.38669  0.18226  1.0000
  C   C52       1.0  0.21208999999999995  0.4289600000000001  0.18337999999999996  1.0000
  C   C53       1.0  0.2125  0.51335  0.18857999999999997  1.0000
  C   C54       1.0  0.32561999999999997  0.29529  0.17723  1.0000
  C   C55       1.0  0.34046  0.24940000000000004  0.20779  1.0000
  C   C56       1.0  0.33899  0.15685  0.20524000000000003  1.0000
  C   C57       1.0  0.3154100000000001  0.11549  0.17763  1.0000
  C   C58       1.0  0.3111999999999999  0.029820000000000006  0.17707  1.0000
  C   C59       1.0  0.35488  0.02301  0.22915  1.0000
  C   C60       1.0  0.36108999999999997  0.10827000000000003  0.23139  1.0000
  C   C61       1.0  0.34354999999999997  0.49644999999999995  0.98186  1.0000
  C   C62       1.0  0.362  0.4122  0.98542  1.0000
  C   C63       1.0  0.3711699999999999  0.36246  0.95958  1.0000
  C   C64       1.0  0.3610999999999999  0.40087  0.9309699999999999  1.0000
  C   C65       1.0  0.34408999999999995  0.48561  0.9291399999999999  1.0000
  C   C66       1.0  0.39024999999999993  0.27109000000000005  0.96235  1.0000
  C   C67       1.0  0.2696  0.22367  0.96074  1.0000
  C   C68       1.0  0.28404  0.13153000000000006  0.9583  1.0000
  C   C69       1.0  0.18478999999999995  0.08344  0.94791  1.0000
  C   C70       1.0  0.19804999999999998  0.9989099999999999  0.94473  1.0000
  C   C71       1.0  0.40024999999999994  0.005560000000000002  0.9615600000000001  1.0000
  C   C72       1.0  0.39358999999999994  0.09055000000000003  0.96551  1.0000
  C   C73       1.0  0.32321  0.73465  0.75816  1.0000
  C   C74       1.0  0.31013  0.73268  0.79196  1.0000
  C   C75       1.0  0.3550099999999998  0.79905  0.80883  1.0000
  C   C76       1.0  0.35303  0.79914  0.8407499999999999  1.0000
  C   C77       1.0  0.30613  0.73289  0.85622  1.0000
  C   C78       1.0  0.19533  0.59799  0.8541899999999999  1.0000
  C   C79       1.0  0.14140999999999995  0.53463  0.8375099999999999  1.0000
  C   C80       1.0  0.14159  0.53535  0.8053600000000001  1.0000
  C   C81       1.0  0.19647999999999996  0.59911  0.79046  1.0000
  C   C82       1.0  0.25507999999999986  0.66471  0.8068799999999999  1.0000
  C   C83       1.0  0.25381  0.6644700000000002  0.83967  1.0000
  C   C84       1.0  0.31214  0.73703  0.8903199999999999  1.0000
  C   C85       1.0  0.5499199999999999  0.7338900000000003  0.69881  1.0000
  C   C86       1.0  0.6853900000000002  0.72895  0.70242  1.0000
  C   C87       1.0  0.7505299999999999  0.79699  0.69343  1.0000
  C   C88       1.0  0.8773599999999998  0.7952100000000002  0.69419  1.0000
  C   C89       1.0  0.94252  0.72611  0.70393  1.0000
  C   C90       1.0  0.9374699999999998  0.58083  0.72478  1.0000
  C   C91       1.0  0.8724099999999999  0.51393  0.73443  1.0000
  C   C92       1.0  0.74482  0.51733  0.73483  1.0000
  C   C93       1.0  0.68435  0.58743  0.72497  1.0000
  C   C94       1.0  0.7476699999999998  0.65677  0.71372  1.0000
  C   C95       1.0  0.8788299999999999  0.65451  0.7142  1.0000
  C   C96       1.0  0.07810999999999997  0.73244  0.70236  1.0000
  C   C97       1.0  0.28776999999999997  0.71932  0.63964  1.0000
  C   C98       1.0  0.27707  0.72311  0.60539  1.0000
  C   C99       1.0  0.32008999999999993  0.79457  0.59227  1.0000
  C   C100      1.0  0.32289  0.8036  0.56062  1.0000
  C   C101      1.0  0.28608  0.73987  0.54136  1.0000
  C   C102      1.0  0.18461  0.6033600000000002  0.53435  1.0000
  C   C103      1.0  0.13204999999999995  0.53439  0.54639  1.0000
  C   C104      1.0  0.12568  0.5258200000000002  0.57824  1.0000
  C   C105      1.0  0.17138999999999996  0.58656  0.59758  1.0000
  C   C106      1.0  0.22843  0.65824  0.58617  1.0000
  C   C107      1.0  0.23462999999999998  0.66667  0.55355  1.0000
  C   C108      1.0  0.30758  0.74975  0.50818  1.0000
  C   C109      1.0  0.5529700000000001  0.74577  0.4483  1.0000
  C   C110      1.0  0.68724  0.7492800000000002  0.44471  1.0000
  C   C111      1.0  0.75856  0.6871000000000003  0.45766  1.0000
  C   C112      1.0  0.8854799999999999  0.6916  0.45731999999999995  1.0000
  C   C113      1.0  0.9438099999999998  0.7564  0.44348999999999994  1.0000
  C   C114      1.0  0.9236299999999998  0.88476  0.41131000000000006  1.0000
  C   C115      1.0  0.8516  0.94292  0.39635999999999993  1.0000
  C   C116      1.0  0.72404  0.9389000000000002  0.39715  1.0000
  C   C117      1.0  0.67037  0.8766  0.41306  1.0000
  C   C118      1.0  0.7418899999999999  0.81579  0.4289799999999999  1.0000
  C   C119      1.0  0.8724499999999997  0.8194400000000002  0.4281  1.0000
  C   C120      1.0  0.08051999999999998  0.75614  0.44611  1.0000
  C   C121      1.0  0.4230299999999999  0.98361  0.69193  1.0000
  C   C122      1.0  0.42944999999999994  0.06791  0.6869  1.0000
  C   C123      1.0  0.32224  0.11331  0.68226  1.0000
  C   C124      1.0  0.21208999999999995  0.07104  0.68338  1.0000
  C   C125      1.0  0.2125  0.9866500000000001  0.68858  1.0000
  C   C126      1.0  0.3256199999999999  0.20471  0.67723  1.0000
  C   C127      1.0  0.34046  0.2506  0.70779  1.0000
  C   C128      1.0  0.3389899999999999  0.34315  0.70524  1.0000
  C   C129      1.0  0.31541  0.38451  0.67763  1.0000
  C   C130      1.0  0.3111999999999999  0.4701800000000001  0.67707  1.0000
  C   C131      1.0  0.35488  0.47699  0.72915  1.0000
  C   C132      1.0  0.36109  0.39173  0.73139  1.0000
  C   C133      1.0  0.34354999999999997  0.00355  0.48185999999999996  1.0000
  C   C134      1.0  0.36200000000000004  0.0878  0.48542  1.0000
  C   C135      1.0  0.37116  0.13754  0.45958  1.0000
  C   C136      1.0  0.3610999999999999  0.09913  0.43097  1.0000
  C   C137      1.0  0.34408  0.014390000000000003  0.42913999999999997  1.0000
  C   C138      1.0  0.39024999999999993  0.22891000000000003  0.46235  1.0000
  C   C139      1.0  0.26959  0.27633  0.4607399999999999  1.0000
  C   C140      1.0  0.28404  0.36847  0.4583  1.0000
  C   C141      1.0  0.18478999999999995  0.41656  0.44791  1.0000
  C   C142      1.0  0.19804999999999995  0.50109  0.44472999999999996  1.0000
  C   C143      1.0  0.40024999999999994  0.49444000000000005  0.46156  1.0000
  C   C144      1.0  0.39358999999999994  0.40945  0.4655099999999999  1.0000
  C   C145      1.0  0.6768  0.26535  0.24184  1.0000
  C   C146      1.0  0.68987  0.2673200000000001  0.20805  1.0000
  C   C147      1.0  0.64499  0.20095  0.19117  1.0000
  C   C148      1.0  0.6469799999999999  0.20086  0.15925  1.0000
  C   C149      1.0  0.69387  0.2671100000000001  0.14378  1.0000
  C   C150      1.0  0.80468  0.40201  0.14581  1.0000
  C   C151      1.0  0.8585899999999999  0.46537  0.16249  1.0000
  C   C152      1.0  0.8584099999999999  0.46464  0.19464  1.0000
  C   C153      1.0  0.8035299999999999  0.40089000000000014  0.20954  1.0000
  C   C154      1.0  0.7449199999999999  0.33529  0.19312  1.0000
  C   C155      1.0  0.7461999999999999  0.33553  0.16033  1.0000
  C   C156      1.0  0.68787  0.26297  0.10968  1.0000
  C   C157      1.0  0.45008999999999993  0.26611  0.30119  1.0000
  C   C158      1.0  0.31462  0.27105  0.29758  1.0000
  C   C159      1.0  0.24947999999999995  0.20301  0.30657  1.0000
  C   C160      1.0  0.12264999999999998  0.20479000000000006  0.30581  1.0000
  C   C161      1.0  0.05748999999999999  0.27389  0.29607  1.0000
  C   C162      1.0  0.06254  0.41917  0.27522  1.0000
  C   C163      1.0  0.12759999999999996  0.48607  0.26557  1.0000
  C   C164      1.0  0.25519  0.48267  0.26517  1.0000
  C   C165      1.0  0.31566  0.41257  0.27503  1.0000
  C   C166      1.0  0.25234  0.34323  0.28628  1.0000
  C   C167      1.0  0.12116999999999999  0.34549  0.2858  1.0000
  C   C168      1.0  0.9218999999999999  0.26756  0.29764  1.0000
  C   C169      1.0  0.71223  0.28068  0.36036  1.0000
  C   C170      1.0  0.72293  0.27689  0.39461  1.0000
  C   C171      1.0  0.67992  0.20543  0.4077299999999999  1.0000
  C   C172      1.0  0.6771199999999999  0.19640000000000005  0.43937999999999994  1.0000
  C   C173      1.0  0.7139199999999999  0.26013  0.45864  1.0000
  C   C174      1.0  0.8154  0.39664  0.46565  1.0000
  C   C175      1.0  0.86795  0.46561  0.45361  1.0000
  C   C176      1.0  0.87432  0.47418  0.42176  1.0000
  C   C177      1.0  0.8286099999999998  0.41344  0.40241999999999994  1.0000
  C   C178      1.0  0.77157  0.34176  0.41383000000000003  1.0000
  C   C179      1.0  0.7653699999999998  0.33333  0.44645  1.0000
  C   C180      1.0  0.69243  0.25025  0.4918199999999999  1.0000
  C   C181      1.0  0.44703  0.25423  0.5517  1.0000
  C   C182      1.0  0.31277  0.25072  0.55529  1.0000
  C   C183      1.0  0.24143999999999993  0.3129  0.54234  1.0000
  C   C184      1.0  0.11451999999999998  0.3084000000000001  0.54268  1.0000
  C   C185      1.0  0.05619999999999999  0.2436  0.55651  1.0000
  C   C186      1.0  0.07637999999999998  0.11524  0.58869  1.0000
  C   C187      1.0  0.14841  0.05708  0.60364  1.0000
  C   C188      1.0  0.27596999999999994  0.0611  0.60285  1.0000
  C   C189      1.0  0.32963000000000003  0.1234  0.58694  1.0000
  C   C190      1.0  0.25810999999999995  0.18421000000000007  0.57103  1.0000
  C   C191      1.0  0.12755  0.18056000000000005  0.5719  1.0000
  C   C192      1.0  0.91948  0.24386  0.55389  1.0000
  C   C193      1.0  0.57697  0.01638  0.30808  1.0000
  C   C194      1.0  0.57055  0.93209  0.3131  1.0000
  C   C195      1.0  0.6777699999999999  0.88669  0.31774  1.0000
  C   C196      1.0  0.7879099999999999  0.92896  0.31662  1.0000
  C   C197      1.0  0.7875099999999998  0.01335  0.31142  1.0000
  C   C198      1.0  0.6743899999999999  0.79529  0.32277  1.0000
  C   C199      1.0  0.6595399999999999  0.7494  0.29221  1.0000
  C   C200      1.0  0.66102  0.65685  0.29476  1.0000
  C   C201      1.0  0.6845899999999999  0.61549  0.32237  1.0000
  C   C202      1.0  0.6888  0.52982  0.32293  1.0000
  C   C203      1.0  0.64512  0.5230100000000002  0.27085  1.0000
  C   C204      1.0  0.63892  0.60827  0.26861  1.0000
  C   C205      1.0  0.65645  0.99645  0.51814  1.0000
  C   C206      1.0  0.6380100000000001  0.9122  0.51458  1.0000
  C   C207      1.0  0.62884  0.86246  0.54042  1.0000
  C   C208      1.0  0.6388999999999999  0.90087  0.56903  1.0000
  C   C209      1.0  0.6559199999999998  0.98561  0.57086  1.0000
  C   C210      1.0  0.60976  0.77109  0.53765  1.0000
  C   C211      1.0  0.73041  0.72367  0.53926  1.0000
  C   C212      1.0  0.71597  0.63153  0.5417  1.0000
  C   C213      1.0  0.8152199999999997  0.58344  0.55209  1.0000
  C   C214      1.0  0.80196  0.49890999999999996  0.55527  1.0000
  C   C215      1.0  0.59976  0.50556  0.53844  1.0000
  C   C216      1.0  0.60642  0.5905500000000002  0.53449  1.0000
  C   C217      1.0  0.6768  0.23465  0.7418399999999999  1.0000
  C   C218      1.0  0.68988  0.23268  0.70805  1.0000
  C   C219      1.0  0.64499  0.29905  0.69117  1.0000
  C   C220      1.0  0.6469799999999999  0.29914000000000013  0.65925  1.0000
  C   C221      1.0  0.69388  0.23289  0.64378  1.0000
  C   C222      1.0  0.80468  0.09799  0.64581  1.0000
  C   C223      1.0  0.85859  0.03463  0.66249  1.0000
  C   C224      1.0  0.8584099999999999  0.03535000000000001  0.69464  1.0000
  C   C225      1.0  0.8035299999999999  0.09911  0.70954  1.0000
  C   C226      1.0  0.7449199999999999  0.16471  0.69312  1.0000
  C   C227      1.0  0.7461999999999999  0.16447000000000006  0.66033  1.0000
  C   C228      1.0  0.68787  0.23703  0.60968  1.0000
  C   C229      1.0  0.45008999999999977  0.23389  0.8011899999999998  1.0000
  C   C230      1.0  0.31462  0.22895  0.79758  1.0000
  C   C231      1.0  0.24947999999999995  0.29699  0.80657  1.0000
  C   C232      1.0  0.12264999999999998  0.29521  0.80581  1.0000
  C   C233      1.0  0.05749  0.22611  0.79607  1.0000
  C   C234      1.0  0.06254  0.08083  0.77522  1.0000
  C   C235      1.0  0.12759999999999996  0.013920000000000004  0.76557  1.0000
  C   C236      1.0  0.25519  0.01733  0.76517  1.0000
  C   C237      1.0  0.31566  0.08743  0.77503  1.0000
  C   C238      1.0  0.25234  0.15677000000000005  0.78628  1.0000
  C   C239      1.0  0.12117999999999997  0.15451  0.7857999999999999  1.0000
  C   C240      1.0  0.9218999999999996  0.23244  0.7976399999999999  1.0000
  C   C241      1.0  0.7122399999999998  0.21932000000000004  0.86037  1.0000
  C   C242      1.0  0.7229399999999999  0.22311  0.8946099999999999  1.0000
  C   C243      1.0  0.67992  0.29457  0.90773  1.0000
  C   C244      1.0  0.6771199999999999  0.3036  0.93938  1.0000
  C   C245      1.0  0.7139199999999999  0.23987  0.95864  1.0000
  C   C246      1.0  0.8154  0.10336  0.96565  1.0000
  C   C247      1.0  0.86795  0.03439  0.95361  1.0000
  C   C248      1.0  0.8743299999999998  0.025820000000000006  0.92176  1.0000
  C   C249      1.0  0.82862  0.08656  0.90242  1.0000
  C   C250      1.0  0.77158  0.15824  0.91383  1.0000
  C   C251      1.0  0.7653699999999998  0.16667  0.94645  1.0000
  C   C252      1.0  0.69243  0.24975  0.99182  1.0000
  C   C253      1.0  0.44703  0.24577  0.0517  1.0000
  C   C254      1.0  0.31276  0.24928  0.05529  1.0000
  C   C255      1.0  0.24143999999999993  0.1871  0.04234  1.0000
  C   C256      1.0  0.11451999999999998  0.1916  0.04268  1.0000
  C   C257      1.0  0.05619999999999999  0.25640000000000013  0.05650999999999999  1.0000
  C   C258      1.0  0.07638  0.38476  0.08869  1.0000
  C   C259      1.0  0.14841  0.4429200000000001  0.10364  1.0000
  C   C260      1.0  0.27596999999999994  0.4389  0.10285  1.0000
  C   C261      1.0  0.32963  0.3766000000000001  0.08694  1.0000
  C   C262      1.0  0.25810999999999995  0.31579  0.07102  1.0000
  C   C263      1.0  0.12755  0.31944  0.0719  1.0000
  C   C264      1.0  0.91948  0.25614  0.05388999999999999  1.0000
  C   C265      1.0  0.57697  0.48361  0.80808  1.0000
  C   C266      1.0  0.5705600000000001  0.56791  0.8131000000000002  1.0000
  C   C267      1.0  0.6777699999999999  0.6133  0.81774  1.0000
  C   C268      1.0  0.7879099999999999  0.57104  0.8166199999999999  1.0000
  C   C269      1.0  0.7875099999999998  0.48665  0.8114199999999999  1.0000
  C   C270      1.0  0.6743899999999999  0.70471  0.82277  1.0000
  C   C271      1.0  0.6595499999999999  0.7506000000000003  0.79221  1.0000
  C   C272      1.0  0.66102  0.84315  0.7947600000000001  1.0000
  C   C273      1.0  0.6845899999999999  0.88451  0.8223699999999999  1.0000
  C   C274      1.0  0.68881  0.97018  0.82293  1.0000
  C   C275      1.0  0.64512  0.97699  0.77085  1.0000
  C   C276      1.0  0.63892  0.89173  0.76861  1.0000
  C   C277      1.0  0.65645  0.50355  0.01814  1.0000
  C   C278      1.0  0.638  0.5878  0.01458  1.0000
  C   C279      1.0  0.62884  0.63754  0.04042  1.0000
  C   C280      1.0  0.6388999999999999  0.59913  0.06903  1.0000
  C   C281      1.0  0.6559199999999998  0.51439  0.07086  1.0000
  C   C282      1.0  0.60976  0.72891  0.03765  1.0000
  C   C283      1.0  0.73041  0.77633  0.03926  1.0000
  C   C284      1.0  0.71597  0.86847  0.0417  1.0000
  C   C285      1.0  0.8152199999999997  0.91656  0.05209  1.0000
  C   C286      1.0  0.80196  0.0010900000000000005  0.05526999999999999  1.0000
  C   C287      1.0  0.59975  0.9944400000000001  0.03844  1.0000
  C   C288      1.0  0.60642  0.90945  0.03449  1.0000
  N   N1        1.0  0.32902  0.9838  0.20243  1.0000
  N   N2        1.0  0.31620999999999994  0.5567  0.19269  1.0000
  N   N3        1.0  0.33517  0.53294  0.95421  1.0000
  N   N4        1.0  0.30452999999999997  0.9602  0.9512  1.0000
  N   N5        1.0  0.32902  0.5162  0.70243  1.0000
  N   N6        1.0  0.31620999999999994  0.9433  0.69269  1.0000
  N   N7        1.0  0.33517  0.96706  0.45420999999999995  1.0000
  N   N8        1.0  0.30451999999999996  0.5398  0.4512  1.0000
  N   N9        1.0  0.67098  0.4838  0.29757  1.0000
  N   N10       1.0  0.6837999999999999  0.0567  0.30731  1.0000
  N   N11       1.0  0.66484  0.03294  0.54579  1.0000
  N   N12       1.0  0.69548  0.4602000000000001  0.5488  1.0000
  N   N13       1.0  0.67098  0.0162  0.79757  1.0000
  N   N14       1.0  0.6838  0.4433  0.80731  1.0000
  N   N15       1.0  0.66483  0.46706  0.04579  1.0000
  N   N16       1.0  0.69548  0.0398  0.0488  1.0000
  O   O1        1.0  0.49321999999999994  0.83142  0.19088999999999998  1.0000
  O   O2        1.0  0.50154  0.69587  0.20335  1.0000
  O   O3        1.0  0.3556399999999999  0.83212  0.24545999999999998  1.0000
  O   O4        1.0  0.3039899999999999  0.69631  0.24503  1.0000
  O   O5        1.0  0.12200999999999997  0.69655  0.19704  1.0000
  O   O6        1.0  0.14047  0.83333  0.20619  1.0000
  O   O7        1.0  0.27823  0.85009  0.15285  1.0000
  O   O8        1.0  0.30918999999999996  0.7121900000000002  0.15312  1.0000
  O   O9        1.0  0.50255  0.68853  0.95746  1.0000
  O   O10       1.0  0.50115  0.82294  0.94257  1.0000
  O   O11       1.0  0.2905899999999999  0.67882  0.9968  1.0000
  O   O12       1.0  0.34572  0.8130800000000002  0.9940699999999999  1.0000
  O   O13       1.0  0.13586999999999996  0.67597  0.9423099999999999  1.0000
  O   O14       1.0  0.13226999999999994  0.81254  0.95273  1.0000
  O   O15       1.0  0.34031999999999996  0.82913  0.40478  1.0000
  O   O16       1.0  0.29078  0.69303  0.40197  1.0000
  O   O17       1.0  0.49321999999999994  0.6685800000000002  0.69089  1.0000
  O   O18       1.0  0.50154  0.80413  0.70335  1.0000
  O   O19       1.0  0.35565999999999987  0.66788  0.74546  1.0000
  O   O20       1.0  0.3039899999999999  0.8036800000000002  0.74503  1.0000
  O   O21       1.0  0.12201000000000001  0.8034500000000002  0.69704  1.0000
  O   O22       1.0  0.14048  0.66667  0.7062  1.0000
  O   O23       1.0  0.27823  0.64991  0.65285  1.0000
  O   O24       1.0  0.30918999999999996  0.78781  0.65312  1.0000
  O   O25       1.0  0.50255  0.81147  0.4574599999999999  1.0000
  O   O26       1.0  0.50115  0.6770500000000003  0.44257  1.0000
  O   O27       1.0  0.29059000000000007  0.8211800000000002  0.4968  1.0000
  O   O28       1.0  0.34572  0.68692  0.49407  1.0000
  O   O29       1.0  0.13587  0.82403  0.44231  1.0000
  O   O30       1.0  0.13226999999999997  0.68746  0.45273  1.0000
  O   O31       1.0  0.34031999999999996  0.67087  0.90478  1.0000
  O   O32       1.0  0.29078999999999994  0.80697  0.9019699999999999  1.0000
  O   O33       1.0  0.50678  0.33142  0.30911  1.0000
  O   O34       1.0  0.49845999999999996  0.19587  0.29665  1.0000
  O   O35       1.0  0.64436  0.33212000000000014  0.25454  1.0000
  O   O36       1.0  0.6960199999999999  0.19631  0.25497  1.0000
  O   O37       1.0  0.8779999999999998  0.19655  0.30296  1.0000
  O   O38       1.0  0.85953  0.33333  0.29381  1.0000
  O   O39       1.0  0.7217699999999998  0.35009  0.34715  1.0000
  O   O40       1.0  0.69082  0.21219  0.34688  1.0000
  O   O41       1.0  0.4974599999999999  0.18853  0.54254  1.0000
  O   O42       1.0  0.49886  0.3229400000000001  0.55743  1.0000
  O   O43       1.0  0.70942  0.17882  0.5032  1.0000
  O   O44       1.0  0.6542899999999999  0.31308  0.50593  1.0000
  O   O45       1.0  0.8641299999999998  0.17597000000000004  0.55769  1.0000
  O   O46       1.0  0.8677399999999997  0.31254  0.54727  1.0000
  O   O47       1.0  0.6596799999999999  0.32913  0.09521999999999999  1.0000
  O   O48       1.0  0.7092199999999999  0.19303  0.09803  1.0000
  O   O49       1.0  0.50679  0.16858  0.80911  1.0000
  O   O50       1.0  0.49845999999999996  0.3041300000000001  0.7966499999999999  1.0000
  O   O51       1.0  0.64436  0.16788  0.75455  1.0000
  O   O52       1.0  0.6960199999999999  0.30369  0.75497  1.0000
  O   O53       1.0  0.8779999999999998  0.30345  0.80296  1.0000
  O   O54       1.0  0.85953  0.16667  0.79381  1.0000
  O   O55       1.0  0.72177  0.14991  0.84715  1.0000
  O   O56       1.0  0.69082  0.28781  0.84688  1.0000
  O   O57       1.0  0.49744999999999995  0.31147  0.04254  1.0000
  O   O58       1.0  0.49885999999999997  0.17706  0.05743  1.0000
  O   O59       1.0  0.70942  0.32118  0.0032  1.0000
  O   O60       1.0  0.6542899999999999  0.18692  0.00593  1.0000
  O   O61       1.0  0.8641299999999998  0.32403  0.05769  1.0000
  O   O62       1.0  0.8677399999999997  0.18746  0.04727  1.0000
  O   O63       1.0  0.6596899999999999  0.17087000000000005  0.59522  1.0000
  O   O64       1.0  0.70922  0.30697  0.59803  1.0000
