data_image0
_chemical_formula_structural       Co12H168C276N12O48
_chemical_formula_sum              "Co12 H168 C276 N12 O48"
_cell_length_a       27.78892
_cell_length_b       27.79382
_cell_length_c       27.78581
_cell_angle_alpha    90.01285000000001
_cell_angle_beta     90.0165
_cell_angle_gamma    89.93723

_symmetry_space_group_name_H-M    'P 1'
_symmetry_Int_Tables_number       1

loop_
  _symmetry_equiv_pos_as_xyz
  'x,y,z'

loop_
  _atom_site_type_symbol
  _atom_site_label
  _atom_site_symmetry_multiplicity
  _atom_site_fract_x
  _atom_site_fract_y
  _atom_site_fract_z
  _atom_site_occupancy
  Co  Co1       1.0  6.242500521707238e-20  0.50017  0.7094100000000002  1.0000
  Co  Co2       1.0  0.9982299999999997  0.49839  0.29216  1.0000
  Co  Co3       1.0  0.70939  0.99971  0.5002300000000001  1.0000
  Co  Co4       1.0  0.29155  0.9989299999999999  0.50113  1.0000
  Co  Co5       1.0  0.50004  0.7093999999999999  3.0000000000000008e-05  1.0000
  Co  Co6       1.0  0.49847999999999987  0.29262  0.00165  1.0000
  Co  Co7       1.0  0.99979  0.49969  0.7906100000000003  1.0000
  Co  Co8       1.0  0.00127  0.50125  0.20794000000000007  1.0000
  Co  Co9       1.0  0.502  0.20744  0.9982300000000002  1.0000
  Co  Co10      1.0  0.50008  0.79058  6.0000000000000015e-05  1.0000
  Co  Co11      1.0  0.20845999999999995  0.0012299999999999995  0.4985600000000001  1.0000
  Co  Co12      1.0  0.7905899999999998  0.00010999999999999998  0.5  1.0000
  H   H1        1.0  0.10727999999999997  0.3905399999999999  0.8269400000000002  1.0000
  H   H2        1.0  0.17039999999999994  0.32661999999999997  0.82724  1.0000
  H   H3        1.0  0.89256  0.60951  0.8270000000000002  1.0000
  H   H4        1.0  0.8294099999999998  0.6734499999999999  0.82718  1.0000
  H   H5        1.0  0.8923199999999998  0.39017  0.17243000000000006  1.0000
  H   H6        1.0  0.82924  0.3262199999999999  0.17249  1.0000
  H   H7        1.0  0.00962  0.5744  0.37500000000000006  1.0000
  H   H8        1.0  0.00972  0.5776  0.4643900000000001  1.0000
  H   H9        1.0  0.10732  0.60936  0.17364000000000004  1.0000
  H   H10       1.0  0.17033  0.6731199999999999  0.17306  1.0000
  H   H11       1.0  0.9924699999999997  0.4269199999999999  0.37442  1.0000
  H   H12       1.0  0.9899899999999998  0.4231599999999999  0.46359000000000006  1.0000
  H   H13       1.0  0.8268699999999998  0.10738999999999997  0.39055  1.0000
  H   H14       1.0  0.82718  0.17045  0.32674  1.0000
  H   H15       1.0  0.82703  0.8924399999999998  0.60955  1.0000
  H   H16       1.0  0.82726  0.82935  0.67345  1.0000
  H   H17       1.0  0.17312999999999998  0.89263  0.39057  1.0000
  H   H18       1.0  0.17283999999999997  0.82966  0.32662000000000013  1.0000
  H   H19       1.0  0.17294  0.10745  0.60966  1.0000
  H   H20       1.0  0.17273999999999995  0.17041  0.6736  1.0000
  H   H21       1.0  0.39047  0.8269199999999999  0.10750000000000003  1.0000
  H   H22       1.0  0.3265499999999999  0.82718  0.17053000000000004  1.0000
  H   H23       1.0  0.60943  0.82689  0.89255  1.0000
  H   H24       1.0  0.67327  0.8271199999999999  0.82946  1.0000
  H   H25       1.0  0.3904299999999999  0.17302  0.89285  1.0000
  H   H26       1.0  0.32665  0.17282  0.8297  1.0000
  H   H27       1.0  0.60946  0.17313  0.1074  1.0000
  H   H28       1.0  0.67337  0.17285999999999996  0.17046000000000003  1.0000
  H   H29       1.0  0.8893099999999998  0.6058899999999998  0.67292  1.0000
  H   H30       1.0  0.8254899999999997  0.66907  0.6723300000000002  1.0000
  H   H31       1.0  0.11062  0.39399  0.6728400000000002  1.0000
  H   H32       1.0  0.17445999999999998  0.33084999999999987  0.6724100000000001  1.0000
  H   H33       1.0  0.8893199999999998  0.39411999999999997  0.32646  1.0000
  H   H34       1.0  0.8256399999999998  0.33097  0.32735  1.0000
  H   H35       1.0  0.07301  0.4897799999999999  0.1255  1.0000
  H   H36       1.0  0.07695  0.48996  0.0363  1.0000
  H   H37       1.0  0.11084999999999999  0.60628  0.32773  1.0000
  H   H38       1.0  0.17471  0.6693  0.32788  1.0000
  H   H39       1.0  0.9255299999999997  0.5076899999999999  0.12508  1.0000
  H   H40       1.0  0.92259  0.51067  0.03575  1.0000
  H   H41       1.0  0.6060399999999998  0.32717  0.11048  1.0000
  H   H42       1.0  0.6690199999999997  0.32764  0.17441  1.0000
  H   H43       1.0  0.39410999999999996  0.32706  0.8893400000000002  1.0000
  H   H44       1.0  0.3308799999999999  0.32756  0.8256600000000002  1.0000
  H   H45       1.0  0.39410999999999996  0.67291  0.11066000000000002  1.0000
  H   H46       1.0  0.33098  0.67236  0.17441  1.0000
  H   H47       1.0  0.4910299999999999  0.8752099999999998  0.9262000000000002  1.0000
  H   H48       1.0  0.48988  0.9644999999999998  0.9228800000000003  1.0000
  H   H49       1.0  0.60603  0.6728699999999999  0.88926  1.0000
  H   H50       1.0  0.6690599999999998  0.67231  0.82541  1.0000
  H   H51       1.0  0.50878  0.8749799999999999  0.07367000000000003  1.0000
  H   H52       1.0  0.51031  0.9642199999999997  0.07724  1.0000
  H   H53       1.0  0.3272099999999999  0.8892599999999998  0.3939900000000001  1.0000
  H   H54       1.0  0.32768  0.8255299999999999  0.33085000000000003  1.0000
  H   H55       1.0  0.32705  0.1108  0.60593  1.0000
  H   H56       1.0  0.3275  0.17434999999999995  0.66925  1.0000
  H   H57       1.0  0.6729899999999998  0.8893099999999998  0.6058700000000001  1.0000
  H   H58       1.0  0.6723899999999998  0.8255299999999999  0.6689400000000002  1.0000
  H   H59       1.0  0.8749799999999998  0.07354  0.50897  1.0000
  H   H60       1.0  0.9642699999999997  0.07701999999999998  0.51009  1.0000
  H   H61       1.0  0.6727899999999999  0.11081  0.3939  1.0000
  H   H62       1.0  0.6723399999999999  0.17461999999999994  0.3308400000000001  1.0000
  H   H63       1.0  0.8750899999999998  0.92613  0.4912400000000001  1.0000
  H   H64       1.0  0.9644  0.92268  0.48967000000000005  1.0000
  H   H65       1.0  0.8940399999999997  0.6105799999999999  0.17277000000000006  1.0000
  H   H66       1.0  0.83101  0.6745  0.17233  1.0000
  H   H67       1.0  0.10587999999999999  0.3892399999999999  0.17293000000000006  1.0000
  H   H68       1.0  0.16916  0.32557  0.17249  1.0000
  H   H69       1.0  0.10605999999999997  0.61073  0.8272800000000002  1.0000
  H   H70       1.0  0.16907999999999995  0.67452  0.82769  1.0000
  H   H71       1.0  0.00887  0.4261399999999999  0.6248800000000002  1.0000
  H   H72       1.0  0.010309999999999996  0.4228599999999999  0.53554  1.0000
  H   H73       1.0  0.8939299999999998  0.38933999999999996  0.82705  1.0000
  H   H74       1.0  0.8309399999999999  0.3255499999999999  0.82757  1.0000
  H   H75       1.0  0.99099  0.57352  0.6252200000000001  1.0000
  H   H76       1.0  0.9896999999999998  0.57721  0.53594  1.0000
  H   H77       1.0  0.17228999999999994  0.8938599999999998  0.61077  1.0000
  H   H78       1.0  0.17213999999999993  0.83074  0.67456  1.0000
  H   H79       1.0  0.3749  0.9923499999999997  0.42559  1.0000
  H   H80       1.0  0.46423  0.9897699999999999  0.42253  1.0000
  H   H81       1.0  0.17342999999999997  0.10595  0.38928  1.0000
  H   H82       1.0  0.17259999999999995  0.16921  0.3256900000000001  1.0000
  H   H83       1.0  0.37458  0.009459999999999996  0.5731300000000001  1.0000
  H   H84       1.0  0.4638099999999999  0.00963  0.5770100000000002  1.0000
  H   H85       1.0  0.82707  0.10589  0.6107  1.0000
  H   H86       1.0  0.8276199999999998  0.16904999999999998  0.67445  1.0000
  H   H87       1.0  0.62505  0.00898  0.42621  1.0000
  H   H88       1.0  0.53572  0.00999  0.42268  1.0000
  H   H89       1.0  0.82718  0.8940299999999998  0.38927  1.0000
  H   H90       1.0  0.82771  0.83094  0.32546  1.0000
  H   H91       1.0  0.62507  0.9915399999999998  0.57367  1.0000
  H   H92       1.0  0.53578  0.9898799999999998  0.57711  1.0000
  H   H93       1.0  0.61071  0.17357999999999996  0.8939500000000002  1.0000
  H   H94       1.0  0.67449  0.17267  0.8308200000000002  1.0000
  H   H95       1.0  0.42709  0.3745199999999999  0.99032  1.0000
  H   H96       1.0  0.42306999999999995  0.46366  0.99047  1.0000
  H   H97       1.0  0.3891699999999999  0.17222  0.10634000000000002  1.0000
  H   H98       1.0  0.32523  0.1722  0.16944  1.0000
  H   H99       1.0  0.57468  0.3748499999999999  0.0073700000000000015  1.0000
  H   H100      1.0  0.57752  0.4641599999999999  0.01028  1.0000
  H   H101      1.0  0.61071  0.8270499999999997  0.10586000000000002  1.0000
  H   H102      1.0  0.6745  0.8276299999999998  0.16900000000000007  1.0000
  H   H103      1.0  0.4263099999999999  0.6249399999999998  0.00869  1.0000
  H   H104      1.0  0.4229099999999999  0.5356799999999999  0.01001  1.0000
  H   H105      1.0  0.3892699999999999  0.8271199999999999  0.894  1.0000
  H   H106      1.0  0.32546  0.8276299999999998  0.83087  1.0000
  H   H107      1.0  0.5737899999999998  0.62488  0.9912900000000002  1.0000
  H   H108      1.0  0.5772899999999997  0.5356  0.98996  1.0000
  H   H109      1.0  0.10959  0.39273  0.32705  1.0000
  H   H110      1.0  0.17345999999999995  0.32958  0.3272800000000001  1.0000
  H   H111      1.0  0.8906599999999998  0.60735  0.32688  1.0000
  H   H112      1.0  0.8267499999999998  0.6704499999999999  0.3271500000000001  1.0000
  H   H113      1.0  0.10946999999999997  0.60736  0.6731800000000002  1.0000
  H   H114      1.0  0.17326999999999998  0.67037  0.6728600000000001  1.0000
  H   H115      1.0  0.9262999999999999  0.49157999999999996  0.8749000000000002  1.0000
  H   H116      1.0  0.9227799999999999  0.49009  0.9642000000000002  1.0000
  H   H117      1.0  0.8904299999999999  0.3925  0.6729500000000003  1.0000
  H   H118      1.0  0.8265999999999998  0.32942  0.67274  1.0000
  H   H119      1.0  0.07378999999999997  0.50869  0.8750700000000002  1.0000
  H   H120      1.0  0.07721999999999997  0.50984  0.9644  1.0000
  H   H121      1.0  0.3926199999999999  0.67309  0.8905700000000001  1.0000
  H   H122      1.0  0.32954  0.67281  0.8266800000000002  1.0000
  H   H123      1.0  0.60752  0.6730499999999998  0.10950000000000001  1.0000
  H   H124      1.0  0.67061  0.6727999999999997  0.17343  1.0000
  H   H125      1.0  0.60766  0.32755  0.8901300000000002  1.0000
  H   H126      1.0  0.6708099999999998  0.32742  0.8261700000000002  1.0000
  H   H127      1.0  0.49063  0.12509  0.07453  1.0000
  H   H128      1.0  0.4906399999999999  0.03573  0.07767000000000002  1.0000
  H   H129      1.0  0.3927699999999999  0.3262199999999999  0.10953000000000003  1.0000
  H   H130      1.0  0.32963  0.3269499999999999  0.17328  1.0000
  H   H131      1.0  0.5072199999999999  0.1256  0.9268800000000001  1.0000
  H   H132      1.0  0.50967  0.03647  0.92312  1.0000
  H   H133      1.0  0.673  0.10953999999999997  0.60746  1.0000
  H   H134      1.0  0.67278  0.17347  0.6705400000000002  1.0000
  H   H135      1.0  0.67312  0.8905799999999998  0.39256000000000013  1.0000
  H   H136      1.0  0.67288  0.8266999999999998  0.32949  1.0000
  H   H137      1.0  0.3274499999999999  0.10970999999999999  0.39251000000000014  1.0000
  H   H138      1.0  0.3274299999999999  0.17374  0.32948  1.0000
  H   H139      1.0  0.12525  0.9257399999999999  0.50924  1.0000
  H   H140      1.0  0.03588  0.9224399999999998  0.5094  1.0000
  H   H141      1.0  0.32637999999999995  0.89056  0.60735  1.0000
  H   H142      1.0  0.32695  0.8267399999999999  0.67033  1.0000
  H   H143      1.0  0.12546  0.07329  0.49277  1.0000
  H   H144      1.0  0.036259999999999994  0.07698  0.49033  1.0000
  H   H145      1.0  0.25062  0.31352  0.8129200000000002  1.0000
  H   H146      1.0  0.7493199999999999  0.68644  0.81272  1.0000
  H   H147      1.0  0.7492999999999997  0.31347  0.18712  1.0000
  H   H148      1.0  0.25063  0.6864499999999998  0.18719  1.0000
  H   H149      1.0  0.81284  0.25074  0.31348  1.0000
  H   H150      1.0  0.8127999999999997  0.7492399999999998  0.6864700000000001  1.0000
  H   H151      1.0  0.18722999999999995  0.7493899999999999  0.3135300000000001  1.0000
  H   H152      1.0  0.18713  0.25068999999999997  0.68661  1.0000
  H   H153      1.0  0.31349  0.8127399999999999  0.25062  1.0000
  H   H154      1.0  0.68641  0.8127999999999997  0.7492400000000002  1.0000
  H   H155      1.0  0.31349  0.18711999999999998  0.7494700000000002  1.0000
  H   H156      1.0  0.68653  0.18725  0.25065  1.0000
  H   H157      1.0  0.7507899999999997  0.68721  0.18647  1.0000
  H   H158      1.0  0.24933999999999998  0.3128599999999999  0.18659000000000006  1.0000
  H   H159      1.0  0.24933999999999998  0.6871999999999999  0.81355  1.0000
  H   H160      1.0  0.75073  0.31280999999999987  0.81344  1.0000
  H   H161      1.0  0.18644  0.75057  0.6871600000000002  1.0000
  H   H162      1.0  0.18654  0.24944  0.3128900000000001  1.0000
  H   H163      1.0  0.8135399999999998  0.24925999999999995  0.6871  1.0000
  H   H164      1.0  0.8136  0.7506799999999998  0.3128  1.0000
  H   H165      1.0  0.68724  0.18657999999999994  0.7506400000000001  1.0000
  H   H166      1.0  0.31289999999999996  0.18655  0.24944000000000005  1.0000
  H   H167      1.0  0.68723  0.81357  0.24929000000000007  1.0000
  H   H168      1.0  0.3127199999999999  0.8134299999999998  0.7506400000000001  1.0000
  C   C1        1.0  0.12248  0.3771699999999999  0.79345  1.0000
  C   C2        1.0  0.15791  0.34174  0.7933600000000002  1.0000
  C   C3        1.0  0.8773699999999998  0.62284  0.7934900000000003  1.0000
  C   C4        1.0  0.84197  0.6583  0.7933300000000001  1.0000
  C   C5        1.0  0.87721  0.37691  0.20598  1.0000
  C   C6        1.0  0.84186  0.3414599999999999  0.20628000000000005  1.0000
  C   C7        1.0  0.005649999999999998  0.54182  0.3963800000000001  1.0000
  C   C8        1.0  0.0053199999999999975  0.54309  0.4465  1.0000
  C   C9        1.0  0.12250999999999997  0.62278  0.2071  1.0000
  C   C10       1.0  0.15792999999999996  0.65815  0.20704  1.0000
  C   C11       1.0  0.9961699999999998  0.45942  0.39601  1.0000
  C   C12       1.0  0.9950999999999998  0.45776  0.4460900000000001  1.0000
  C   C13       1.0  0.7933599999999997  0.12256  0.37719000000000014  1.0000
  C   C14       1.0  0.79327  0.15801  0.3418  1.0000
  C   C15       1.0  0.7935399999999998  0.87729  0.62289  1.0000
  C   C16       1.0  0.79338  0.8418799999999999  0.6583100000000002  1.0000
  C   C17       1.0  0.20663999999999996  0.87749  0.37719000000000014  1.0000
  C   C18       1.0  0.20674  0.8421099999999998  0.34173000000000003  1.0000
  C   C19       1.0  0.20648999999999998  0.12258999999999998  0.6228800000000002  1.0000
  C   C20       1.0  0.20661  0.15789999999999996  0.65843  1.0000
  C   C21       1.0  0.3771199999999999  0.79343  0.12262  1.0000
  C   C22       1.0  0.3416799999999999  0.7933  0.15802  1.0000
  C   C23       1.0  0.62279  0.79338  0.8773900000000002  1.0000
  C   C24       1.0  0.65818  0.79325  0.84194  1.0000
  C   C25       1.0  0.3771699999999999  0.20655  0.87766  1.0000
  C   C26       1.0  0.34172  0.20667999999999995  0.8422500000000002  1.0000
  C   C27       1.0  0.6228499999999998  0.20662999999999995  0.12248000000000003  1.0000
  C   C28       1.0  0.65824  0.20672999999999997  0.15794  1.0000
  C   C29       1.0  0.8759099999999997  0.62117  0.7063600000000002  1.0000
  C   C30       1.0  0.84055  0.65664  0.7062700000000002  1.0000
  C   C31       1.0  0.12397999999999998  0.37876999999999994  0.70633  1.0000
  C   C32       1.0  0.15938999999999998  0.34332  0.70632  1.0000
  C   C33       1.0  0.8758699999999998  0.37873  0.2930900000000001  1.0000
  C   C34       1.0  0.8405799999999998  0.34328  0.29333  1.0000
  C   C35       1.0  0.04052  0.49396  0.10396  1.0000
  C   C36       1.0  0.04229  0.49448  0.05387000000000001  1.0000
  C   C37       1.0  0.12408  0.62136  0.29415  1.0000
  C   C38       1.0  0.15952  0.6567499999999998  0.2940300000000001  1.0000
  C   C39       1.0  0.9581399999999998  0.50392  0.10368  1.0000
  C   C40       1.0  0.95699  0.5052299999999998  0.05357000000000001  1.0000
  C   C41       1.0  0.6212499999999997  0.29369  0.12386000000000001  1.0000
  C   C42       1.0  0.65661  0.29372  0.15935000000000002  1.0000
  C   C43       1.0  0.3788399999999999  0.29359  0.8760900000000003  1.0000
  C   C44       1.0  0.3433099999999999  0.29364  0.8407600000000002  1.0000
  C   C45       1.0  0.3788199999999999  0.70636  0.12402  1.0000
  C   C46       1.0  0.34337  0.7062999999999998  0.15939  1.0000
  C   C47       1.0  0.4950199999999999  0.8966  0.95881  1.0000
  C   C48       1.0  0.49474999999999997  0.94672  0.9573900000000002  1.0000
  C   C49       1.0  0.6212399999999998  0.70632  0.87591  1.0000
  C   C50       1.0  0.6566199999999998  0.7062499999999998  0.84047  1.0000
  C   C51       1.0  0.50487  0.89646  0.04112  1.0000
  C   C52       1.0  0.50536  0.94655  0.04269000000000001  1.0000
  C   C53       1.0  0.29373  0.8759399999999998  0.3787800000000001  1.0000
  C   C54       1.0  0.29374999999999996  0.84058  0.34331000000000006  1.0000
  C   C55       1.0  0.29354999999999987  0.12409  0.62116  1.0000
  C   C56       1.0  0.29359  0.15931999999999993  0.65677  1.0000
  C   C57       1.0  0.70643  0.87591  0.62116  1.0000
  C   C58       1.0  0.7063399999999999  0.84053  0.65658  1.0000
  C   C59       1.0  0.8964699999999998  0.04098  0.5049900000000002  1.0000
  C   C60       1.0  0.9465899999999999  0.042489999999999986  0.50522  1.0000
  C   C61       1.0  0.70629  0.12409999999999997  0.37873  1.0000
  C   C62       1.0  0.7062699999999997  0.15953  0.34333  1.0000
  C   C63       1.0  0.8965399999999998  0.95868  0.49515  1.0000
  C   C64       1.0  0.9466499999999998  0.9571999999999999  0.4946100000000001  1.0000
  C   C65       1.0  0.8788699999999998  0.6239799999999998  0.20626000000000005  1.0000
  C   C66       1.0  0.8434599999999998  0.65942  0.20625  1.0000
  C   C67       1.0  0.12115  0.37598  0.20643000000000006  1.0000
  C   C68       1.0  0.1567  0.3406899999999999  0.2064  1.0000
  C   C69       1.0  0.12124999999999997  0.6240099999999997  0.7937600000000002  1.0000
  C   C70       1.0  0.15662999999999994  0.65942  0.79377  1.0000
  C   C71       1.0  0.004860000000000001  0.4587099999999999  0.60347  1.0000
  C   C72       1.0  0.00528  0.45734  0.5533300000000001  1.0000
  C   C73       1.0  0.8787299999999998  0.3759599999999999  0.7935700000000002  1.0000
  C   C74       1.0  0.84336  0.34056  0.79362  1.0000
  C   C75       1.0  0.9949299999999999  0.54102  0.6036800000000002  1.0000
  C   C76       1.0  0.99458  0.54264  0.55357  1.0000
  C   C77       1.0  0.20587  0.8787199999999997  0.6239900000000003  1.0000
  C   C78       1.0  0.20599  0.84326  0.65939  1.0000
  C   C79       1.0  0.3963199999999999  0.996  0.45821  1.0000
  C   C80       1.0  0.4464199999999999  0.99491  0.4569800000000001  1.0000
  C   C81       1.0  0.20679999999999996  0.12128  0.3758900000000001  1.0000
  C   C82       1.0  0.2066  0.15681  0.34065  1.0000
  C   C83       1.0  0.3961199999999999  0.005519999999999998  0.54061  1.0000
  C   C84       1.0  0.4462099999999999  0.005219999999999998  0.54234  1.0000
  C   C85       1.0  0.7936199999999998  0.12116  0.62406  1.0000
  C   C86       1.0  0.79368  0.15664  0.65941  1.0000
  C   C87       1.0  0.60358  0.005029999999999998  0.4587500000000001  1.0000
  C   C88       1.0  0.5534599999999998  0.0052  0.45723  1.0000
  C   C89       1.0  0.79371  0.8788199999999998  0.3759300000000001  1.0000
  C   C90       1.0  0.7937699999999998  0.84339  0.34052  1.0000
  C   C91       1.0  0.60358  0.99536  0.5411  1.0000
  C   C92       1.0  0.5534599999999998  0.9947699999999998  0.54257  1.0000
  C   C93       1.0  0.62415  0.20691999999999994  0.8786  1.0000
  C   C94       1.0  0.6594999999999999  0.20667999999999995  0.8431700000000002  1.0000
  C   C95       1.0  0.45959  0.39602  0.9942600000000003  1.0000
  C   C96       1.0  0.4577799999999999  0.44609  0.9948  1.0000
  C   C97       1.0  0.37591  0.20578  0.12145000000000003  1.0000
  C   C98       1.0  0.34045  0.20597999999999994  0.15684000000000006  1.0000
  C   C99       1.0  0.54203  0.39624  0.0037300000000000007  1.0000
  C   C100      1.0  0.54312  0.44633  0.00506  1.0000
  C   C101      1.0  0.6241  0.7936199999999998  0.12115  1.0000
  C   C102      1.0  0.65948  0.79369  0.15660000000000004  1.0000
  C   C103      1.0  0.4589099999999999  0.60349  0.00486  1.0000
  C   C104      1.0  0.45743999999999996  0.5533799999999999  0.00527  1.0000
  C   C105      1.0  0.37593  0.7936499999999997  0.87877  1.0000
  C   C106      1.0  0.3405199999999999  0.7936999999999997  0.84333  1.0000
  C   C107      1.0  0.54124  0.60346  0.9952200000000002  1.0000
  C   C108      1.0  0.5427699999999999  0.55335  0.99487  1.0000
  C   C109      1.0  0.12283999999999999  0.37754  0.29351  1.0000
  C   C110      1.0  0.15833  0.34217  0.29342000000000007  1.0000
  C   C111      1.0  0.87728  0.62253  0.2933800000000001  1.0000
  C   C112      1.0  0.84186  0.6579599999999999  0.29327000000000003  1.0000
  C   C113      1.0  0.12282  0.6225  0.70669  1.0000
  C   C114      1.0  0.1582  0.6579099999999999  0.70677  1.0000
  C   C115      1.0  0.9588499999999998  0.49544  0.8964000000000002  1.0000
  C   C116      1.0  0.9573099999999998  0.49501  0.94652  1.0000
  C   C117      1.0  0.8771099999999997  0.3773699999999999  0.70647  1.0000
  C   C118      1.0  0.84175  0.34194999999999987  0.7066  1.0000
  C   C119      1.0  0.04120999999999998  0.50491  0.89652  1.0000
  C   C120      1.0  0.04266  0.5052299999999998  0.94665  1.0000
  C   C121      1.0  0.37744  0.7065799999999998  0.87719  1.0000
  C   C122      1.0  0.34201  0.70669  0.84177  1.0000
  C   C123      1.0  0.62268  0.7065299999999998  0.12286000000000001  1.0000
  C   C124      1.0  0.6580899999999997  0.70667  0.15829000000000004  1.0000
  C   C125      1.0  0.6227699999999999  0.29398999999999986  0.8768600000000002  1.0000
  C   C126      1.0  0.6581599999999997  0.29369  0.8414200000000002  1.0000
  C   C127      1.0  0.49444999999999995  0.10373  0.04189000000000001  1.0000
  C   C128      1.0  0.4948899999999999  0.05362  0.043150000000000015  1.0000
  C   C129      1.0  0.37752  0.29282  0.12294000000000001  1.0000
  C   C130      1.0  0.3420499999999999  0.29297  0.15828000000000006  1.0000
  C   C131      1.0  0.50363  0.10406  0.9594200000000003  1.0000
  C   C132      1.0  0.50474  0.05399  0.9577600000000002  1.0000
  C   C133      1.0  0.70651  0.12286  0.6226200000000002  1.0000
  C   C134      1.0  0.7066499999999998  0.15832  0.658  1.0000
  C   C135      1.0  0.70663  0.87722  0.3774  1.0000
  C   C136      1.0  0.7067599999999998  0.8418  0.3419800000000001  1.0000
  C   C137      1.0  0.29389999999999994  0.12298999999999997  0.3773600000000001  1.0000
  C   C138      1.0  0.2936399999999999  0.15850999999999998  0.34205  1.0000
  C   C139      1.0  0.10378999999999997  0.95833  0.50542  1.0000
  C   C140      1.0  0.053679999999999985  0.9569799999999998  0.50512  1.0000
  C   C141      1.0  0.2929099999999999  0.87717  0.6224900000000001  1.0000
  C   C142      1.0  0.2929699999999999  0.8417299999999999  0.65789  1.0000
  C   C143      1.0  0.10392999999999997  0.04075  0.49627  1.0000
  C   C144      1.0  0.053849999999999995  0.042369999999999984  0.4952400000000001  1.0000
  C   C145      1.0  0.9999199999999999  0.5000699999999999  0.52664  1.0000
  C   C146      1.0  8.999999999999995e-05  0.50032  0.47311  1.0000
  C   C147      1.0  0.52666  0.9998899999999998  0.4998700000000001  1.0000
  C   C148      1.0  0.4731299999999999  0.99995  0.49975  1.0000
  C   C149      1.0  0.50015  0.5265599999999999  0.00013  1.0000
  C   C150      1.0  0.50032  0.4730399999999999  2e-05  1.0000
  C   C151      1.0  0.99994  0.50017  0.97338  1.0000
  C   C152      1.0  0.99975  0.50002  0.02691  1.0000
  C   C153      1.0  0.49991999999999986  0.02698  0.00032  1.0000
  C   C154      1.0  0.5001  0.9734499999999998  0.00011000000000000003  1.0000
  C   C155      1.0  0.026949999999999995  0.9997399999999999  0.50003  1.0000
  C   C156      1.0  0.9734199999999997  0.9998399999999998  0.4998700000000001  1.0000
  C   C157      1.0  0.06719  0.43369  0.7499400000000002  1.0000
  C   C158      1.0  0.10519  0.39599999999999996  0.74991  1.0000
  C   C159      1.0  0.17695999999999995  0.32416  0.74982  1.0000
  C   C160      1.0  0.21453999999999995  0.28645999999999994  0.74976  1.0000
  C   C161      1.0  0.9325  0.5661  0.7499600000000002  1.0000
  C   C162      1.0  0.8946699999999997  0.60396  0.74997  1.0000
  C   C163      1.0  0.82295  0.67583  0.7497500000000002  1.0000
  C   C164      1.0  0.7853799999999997  0.71351  0.7496200000000002  1.0000
  C   C165      1.0  0.93239  0.4336699999999999  0.24948  1.0000
  C   C166      1.0  0.89451  0.3958899999999999  0.24943000000000007  1.0000
  C   C167      1.0  0.82296  0.32402  0.24992000000000006  1.0000
  C   C168      1.0  0.7854099999999999  0.28638  0.25021  1.0000
  C   C169      1.0  0.06701  0.56634  0.25055  1.0000
  C   C170      1.0  0.10513  0.60404  0.25065  1.0000
  C   C171      1.0  0.17706  0.67583  0.25049  1.0000
  C   C172      1.0  0.21460999999999994  0.71353  0.2504  1.0000
  C   C173      1.0  0.7499  0.06715  0.43368000000000007  1.0000
  C   C174      1.0  0.7498599999999997  0.10521999999999997  0.39599  1.0000
  C   C175      1.0  0.74975  0.17709  0.32418  1.0000
  C   C176      1.0  0.7496699999999997  0.21463999999999994  0.28646  1.0000
  C   C177      1.0  0.75002  0.93257  0.56632  1.0000
  C   C178      1.0  0.7500399999999998  0.8946399999999998  0.60403  1.0000
  C   C179      1.0  0.7498  0.82292  0.6758100000000002  1.0000
  C   C180      1.0  0.7496299999999998  0.78538  0.7135000000000001  1.0000
  C   C181      1.0  0.2500899999999999  0.9323299999999998  0.43423  1.0000
  C   C182      1.0  0.25016  0.89468  0.39614  1.0000
  C   C183      1.0  0.2502599999999999  0.82302  0.32415  1.0000
  C   C184      1.0  0.25035  0.7854399999999999  0.28646  1.0000
  C   C185      1.0  0.24996999999999994  0.06771999999999999  0.56568  1.0000
  C   C186      1.0  0.24998999999999993  0.10536  0.60383  1.0000
  C   C187      1.0  0.25014  0.17693  0.6760000000000003  1.0000
  C   C188      1.0  0.25028  0.21451999999999993  0.71369  1.0000
  C   C189      1.0  0.43372  0.7499499999999998  0.06728  1.0000
  C   C190      1.0  0.39600999999999986  0.7499499999999998  0.10526000000000002  1.0000
  C   C191      1.0  0.3241199999999999  0.7497499999999998  0.17699000000000006  1.0000
  C   C192      1.0  0.28641  0.74963  0.21455  1.0000
  C   C193      1.0  0.56644  0.74994  0.93289  1.0000
  C   C194      1.0  0.60404  0.74989  0.8947800000000002  1.0000
  C   C195      1.0  0.6757599999999998  0.74971  0.8228800000000002  1.0000
  C   C196      1.0  0.71347  0.74963  0.7853300000000001  1.0000
  C   C197      1.0  0.4343299999999999  0.24997  0.9324800000000002  1.0000
  C   C198      1.0  0.3961899999999999  0.25004  0.8948400000000002  1.0000
  C   C199      1.0  0.3241399999999999  0.2502  0.8231600000000002  1.0000
  C   C200      1.0  0.28644  0.25031  0.78556  1.0000
  C   C201      1.0  0.5665  0.25005  0.06686  1.0000
  C   C202      1.0  0.60407  0.25013  0.10504  1.0000
  C   C203      1.0  0.6757999999999997  0.2502499999999999  0.17696  1.0000
  C   C204      1.0  0.71351  0.25034  0.21453000000000003  1.0000
  C   C205      1.0  0.9337  0.56706  0.24994000000000005  1.0000
  C   C206      1.0  0.89608  0.6051599999999998  0.24986000000000005  1.0000
  C   C207      1.0  0.8242799999999998  0.6770099999999998  0.24973  1.0000
  C   C208      1.0  0.78657  0.71459  0.24964  1.0000
  C   C209      1.0  0.06566  0.4323599999999999  0.25004000000000004  1.0000
  C   C210      1.0  0.1038  0.3947299999999999  0.25001  1.0000
  C   C211      1.0  0.17589  0.3231  0.24987000000000004  1.0000
  C   C212      1.0  0.21357999999999994  0.28551  0.24976000000000007  1.0000
  C   C213      1.0  0.06639999999999999  0.56701  0.7501300000000002  1.0000
  C   C214      1.0  0.10402  0.6051099999999998  0.7502000000000002  1.0000
  C   C215      1.0  0.17580999999999994  0.67698  0.75029  1.0000
  C   C216      1.0  0.21350999999999998  0.71452  0.7503500000000002  1.0000
  C   C217      1.0  0.93352  0.43283  0.7499900000000003  1.0000
  C   C218      1.0  0.8958999999999999  0.3947799999999999  0.7499800000000001  1.0000
  C   C219      1.0  0.8241999999999999  0.3229399999999999  0.7501500000000001  1.0000
  C   C220      1.0  0.7865399999999998  0.28539999999999993  0.75025  1.0000
  C   C221      1.0  0.24956999999999993  0.9340399999999999  0.5673  1.0000
  C   C222      1.0  0.24938999999999995  0.8960499999999998  0.60513  1.0000
  C   C223      1.0  0.24950999999999995  0.8240999999999998  0.6769800000000002  1.0000
  C   C224      1.0  0.24955999999999995  0.7863799999999997  0.71454  1.0000
  C   C225      1.0  0.2504  0.06605999999999998  0.43231  1.0000
  C   C226      1.0  0.25044  0.10397999999999998  0.39454  1.0000
  C   C227      1.0  0.25002  0.17601999999999995  0.32308  1.0000
  C   C228      1.0  0.24977  0.21366999999999994  0.28553000000000006  1.0000
  C   C229      1.0  0.7500399999999998  0.06608  0.5675  1.0000
  C   C230      1.0  0.75002  0.10396  0.6053200000000002  1.0000
  C   C231      1.0  0.7502199999999999  0.17586  0.6769800000000002  1.0000
  C   C232      1.0  0.7503799999999998  0.21355999999999997  0.7145100000000002  1.0000
  C   C233      1.0  0.7500699999999998  0.9337  0.43277  1.0000
  C   C234      1.0  0.7501199999999998  0.8960199999999999  0.39475  1.0000
  C   C235      1.0  0.75031  0.8242199999999998  0.32294  1.0000
  C   C236      1.0  0.7504099999999998  0.7865  0.28539000000000003  1.0000
  C   C237      1.0  0.5675899999999999  0.2506  0.93366  1.0000
  C   C238      1.0  0.60545  0.25058  0.8957800000000002  1.0000
  C   C239      1.0  0.67712  0.25007  0.8239700000000002  1.0000
  C   C240      1.0  0.71468  0.24977  0.7863400000000003  1.0000
  C   C241      1.0  0.43325  0.24935999999999997  0.06676  1.0000
  C   C242      1.0  0.3949199999999999  0.24922999999999995  0.10425000000000002  1.0000
  C   C243      1.0  0.3229599999999999  0.24954  0.17593  1.0000
  C   C244      1.0  0.28543  0.24966999999999995  0.21363000000000004  1.0000
  C   C245      1.0  0.56752  0.7500299999999998  0.06613000000000001  1.0000
  C   C246      1.0  0.6053699999999997  0.7500299999999998  0.10397000000000003  1.0000
  C   C247      1.0  0.67709  0.7502299999999997  0.17582000000000003  1.0000
  C   C248      1.0  0.7146599999999997  0.75037  0.21352  1.0000
  C   C249      1.0  0.43271  0.75004  0.9337600000000003  1.0000
  C   C250      1.0  0.3947499999999999  0.7500799999999997  0.8960200000000003  1.0000
  C   C251      1.0  0.32295  0.75022  0.82417  1.0000
  C   C252      1.0  0.28538  0.7502999999999999  0.78645  1.0000
  C   C253      1.0  0.25053999999999993  0.28588  0.7852  1.0000
  C   C254      1.0  0.7493699999999998  0.71408  0.7850100000000001  1.0000
  C   C255      1.0  0.74938  0.28584  0.21483000000000005  1.0000
  C   C256      1.0  0.25054999999999994  0.71409  0.21492000000000006  1.0000
  C   C257      1.0  0.7851  0.2506  0.28584  1.0000
  C   C258      1.0  0.78506  0.7493699999999998  0.7140800000000003  1.0000
  C   C259      1.0  0.21494  0.74946  0.2859  1.0000
  C   C260      1.0  0.21485999999999994  0.25056  0.71424  1.0000
  C   C261      1.0  0.28585  0.78506  0.25055  1.0000
  C   C262      1.0  0.7140499999999999  0.78506  0.74935  1.0000
  C   C263      1.0  0.28585  0.21485999999999997  0.74957  1.0000
  C   C264      1.0  0.7141399999999998  0.21495999999999998  0.25055  1.0000
  C   C265      1.0  0.7506799999999998  0.71494  0.21410000000000007  1.0000
  C   C266      1.0  0.24946  0.28515  0.21422  1.0000
  C   C267      1.0  0.24940999999999994  0.7148799999999997  0.7858900000000002  1.0000
  C   C268      1.0  0.7506799999999998  0.28511  0.78579  1.0000
  C   C269      1.0  0.21407  0.7504799999999998  0.7149  1.0000
  C   C270      1.0  0.21416999999999994  0.24953  0.28518  1.0000
  C   C271      1.0  0.78593  0.24939999999999996  0.7148300000000002  1.0000
  C   C272      1.0  0.7859799999999998  0.7505999999999999  0.28507000000000005  1.0000
  C   C273      1.0  0.71498  0.21417999999999995  0.75051  1.0000
  C   C274      1.0  0.28516  0.21417999999999995  0.24954000000000007  1.0000
  C   C275      1.0  0.71497  0.78593  0.24939000000000003  1.0000
  C   C276      1.0  0.28502  0.78581  0.7505400000000002  1.0000
  N   N1        1.0  0.99982  0.4998  0.62869  1.0000
  N   N2        1.0  0.00147  0.50069  0.37106  1.0000
  N   N3        1.0  0.6287  0.0003  0.49995  1.0000
  N   N4        1.0  0.37108999999999986  0.00132  0.4992600000000001  1.0000
  N   N5        1.0  0.50006  0.62861  9e-05  1.0000
  N   N6        1.0  0.5010199999999999  0.3709899999999999  0.9982500000000002  1.0000
  N   N7        1.0  3.999999999999999e-05  0.50028  0.87134  1.0000
  N   N8        1.0  0.9991399999999999  0.49821  0.12895  1.0000
  N   N9        1.0  0.49847  0.12904  0.00074  1.0000
  N   N10       1.0  0.4998999999999999  0.87139  0.99992  1.0000
  N   N11       1.0  0.12897999999999998  0.9995  0.50132  1.0000
  N   N12       1.0  0.87137  0.9998199999999999  0.50016  1.0000
  O   O1        1.0  0.051399999999999994  0.44851  0.70927  1.0000
  O   O2        1.0  0.9479799999999998  0.551  0.7092600000000002  1.0000
  O   O3        1.0  0.9477599999999998  0.44779  0.29077  1.0000
  O   O4        1.0  0.050419999999999986  0.55176  0.29076  1.0000
  O   O5        1.0  0.7093099999999998  0.05096  0.44814  1.0000
  O   O6        1.0  0.7092299999999998  0.9483199999999999  0.55169  1.0000
  O   O7        1.0  0.29069  0.9475399999999998  0.4498000000000001  1.0000
  O   O8        1.0  0.29062  0.05233999999999999  0.55032  1.0000
  O   O9        1.0  0.44828  0.70927  0.05128  1.0000
  O   O10       1.0  0.5521099999999999  0.70932  0.94923  1.0000
  O   O11       1.0  0.4495999999999999  0.29059  0.94793  1.0000
  O   O12       1.0  0.55216  0.29068  0.05052  1.0000
  O   O13       1.0  0.9477599999999998  0.55041  0.79051  1.0000
  O   O14       1.0  0.0522  0.44952  0.79053  1.0000
  O   O15       1.0  0.9475099999999997  0.44993999999999995  0.20937000000000006  1.0000
  O   O16       1.0  0.052769999999999984  0.5505799999999998  0.20943  1.0000
  O   O17       1.0  0.5504099999999998  0.20944999999999994  0.05234  1.0000
  O   O18       1.0  0.4499399999999999  0.20935999999999996  0.9475300000000001  1.0000
  O   O19       1.0  0.4498  0.7904899999999998  0.05244  1.0000
  O   O20       1.0  0.5502399999999998  0.79051  0.94757  1.0000
  O   O21       1.0  0.20945999999999995  0.9476399999999998  0.44962000000000013  1.0000
  O   O22       1.0  0.2094  0.05247  0.55018  1.0000
  O   O23       1.0  0.79049  0.94758  0.55032  1.0000
  O   O24       1.0  0.7905199999999998  0.05239  0.4498000000000001  1.0000
  O   O25       1.0  0.9495899999999998  0.55225  0.29056  1.0000
  O   O26       1.0  0.05012  0.44755  0.2906400000000001  1.0000
  O   O27       1.0  0.050209999999999984  0.5524199999999999  0.7094900000000002  1.0000
  O   O28       1.0  0.9496799999999997  0.4476  0.7094900000000002  1.0000
  O   O29       1.0  0.29062  0.94965  0.55294  1.0000
  O   O30       1.0  0.29060999999999987  0.049879999999999994  0.44749  1.0000
  O   O31       1.0  0.70951  0.050299999999999984  0.55233  1.0000
  O   O32       1.0  0.7094899999999997  0.9496399999999998  0.4477000000000001  1.0000
  O   O33       1.0  0.5524  0.2907  0.9498600000000003  1.0000
  O   O34       1.0  0.4477899999999999  0.29069  0.051990000000000015  1.0000
  O   O35       1.0  0.55232  0.70949  0.05044  1.0000
  O   O36       1.0  0.4477099999999999  0.7094799999999998  0.9496900000000003  1.0000
  O   O37       1.0  0.05032  0.44773  0.20940000000000006  1.0000
  O   O38       1.0  0.9482399999999999  0.551  0.20928  1.0000
  O   O39       1.0  0.05206999999999997  0.55056  0.79068  1.0000
  O   O40       1.0  0.94793  0.4489599999999999  0.7907100000000002  1.0000
  O   O41       1.0  0.4484999999999999  0.79071  0.9485100000000001  1.0000
  O   O42       1.0  0.5520199999999998  0.79073  0.05104  1.0000
  O   O43       1.0  0.55236  0.20927999999999994  0.9477900000000002  1.0000
  O   O44       1.0  0.4495299999999999  0.20927  0.05152  1.0000
  O   O45       1.0  0.7907399999999998  0.05101  0.55199  1.0000
  O   O46       1.0  0.7907299999999998  0.9483199999999999  0.44873  1.0000
  O   O47       1.0  0.20926999999999998  0.05165  0.44766  1.0000
  O   O48       1.0  0.20935  0.9492  0.5510500000000002  1.0000
