data_image0
_chemical_formula_structural       Ag24H224C152S8N64O40
_chemical_formula_sum              "Ag24 H224 C152 S8 N64 O40"
_cell_length_a       11.08926
_cell_length_b       11.83565
_cell_length_c       43.15014
_cell_angle_alpha    88.88158999999999
_cell_angle_beta     89.97976
_cell_angle_gamma    90.15465999999999

_symmetry_space_group_name_H-M    'P 1'
_symmetry_Int_Tables_number       1

loop_
  _symmetry_equiv_pos_as_xyz
  'x,y,z'

loop_
  _atom_site_type_symbol
  _atom_site_label
  _atom_site_symmetry_multiplicity
  _atom_site_fract_x
  _atom_site_fract_y
  _atom_site_fract_z
  _atom_site_occupancy
  Ag  Ag1       1.0  0.50427  0.8954300000000001  0.98417  1.0000
  Ag  Ag2       1.0  0.5764  0.59057  0.87158  1.0000
  Ag  Ag3       1.0  0.67732  0.87492  0.25595  1.0000
  Ag  Ag4       1.0  0.4853199999999999  0.6077900000000002  0.48171  1.0000
  Ag  Ag5       1.0  0.16263  0.6033100000000002  0.38342  1.0000
  Ag  Ag6       1.0  0.31849999999999995  0.6309  0.75134  1.0000
  Ag  Ag7       1.0  0.00369  0.10441  0.51624  1.0000
  Ag  Ag8       1.0  0.07327999999999998  0.41829000000000005  0.62758  1.0000
  Ag  Ag9       1.0  0.17874999999999996  0.12200000000000004  0.24563  1.0000
  Ag  Ag10      1.0  0.9875299999999999  0.3927400000000001  0.01761  1.0000
  Ag  Ag11      1.0  0.65976  0.3931  0.1171  1.0000
  Ag  Ag12      1.0  0.8197999999999999  0.37332  0.7480099999999998  1.0000
  Ag  Ag13      1.0  0.49571  0.10456  0.01583  1.0000
  Ag  Ag14      1.0  0.42359  0.40940000000000004  0.12842  1.0000
  Ag  Ag15      1.0  0.32267  0.12508  0.74404  1.0000
  Ag  Ag16      1.0  0.51468  0.39221  0.51829  1.0000
  Ag  Ag17      1.0  0.8373599999999999  0.39669000000000004  0.61658  1.0000
  Ag  Ag18      1.0  0.68149  0.36909000000000003  0.24866999999999997  1.0000
  Ag  Ag19      1.0  0.9963199999999999  0.89559  0.48377  1.0000
  Ag  Ag20      1.0  0.92672  0.58171  0.37242  1.0000
  Ag  Ag21      1.0  0.82124  0.8780000000000001  0.75437  1.0000
  Ag  Ag22      1.0  0.01248  0.6072899999999999  0.9824  1.0000
  Ag  Ag23      1.0  0.34023  0.6069  0.8829  1.0000
  Ag  Ag24      1.0  0.1802  0.62668  0.252  1.0000
  H   H1        1.0  0.37786999999999993  0.9531900000000001  0.10713  1.0000
  H   H2        1.0  0.42387  0.8982500000000001  0.1626  1.0000
  H   H3        1.0  0.69525  0.66862  0.13098  1.0000
  H   H4        1.0  0.64562  0.72096  0.07599  1.0000
  H   H5        1.0  0.64594  0.78467  0.9219899999999999  1.0000
  H   H6        1.0  0.50632  0.71117  0.92717  1.0000
  H   H7        1.0  0.7492099999999998  0.73477  0.00133  1.0000
  H   H8        1.0  0.7854999999999999  0.79829  0.96455  1.0000
  H   H9        1.0  0.55875  0.63959  0.00849  1.0000
  H   H10       1.0  0.45704999999999996  0.62772  0.97696  1.0000
  H   H11       1.0  0.8294  0.52862  0.9259100000000001  1.0000
  H   H12       1.0  0.83151  0.6788300000000002  0.9210300000000001  1.0000
  H   H13       1.0  0.7794  0.44515  0.97597  1.0000
  H   H14       1.0  0.7469799999999999  0.53396  0.00789  1.0000
  H   H15       1.0  0.5021099999999998  0.50933  0.93406  1.0000
  H   H16       1.0  0.6395399999999999  0.43078  0.93389  1.0000
  H   H17       1.0  0.7925099999999999  0.50014  0.81366  1.0000
  H   H18       1.0  0.65134  0.4281  0.81042  1.0000
  H   H19       1.0  0.6577  0.78167  0.81854  1.0000
  H   H20       1.0  0.79576  0.7037  0.81852  1.0000
  H   H21       1.0  0.4654  0.53372  0.8104  1.0000
  H   H22       1.0  0.46851  0.68396  0.8139299999999999  1.0000
  H   H23       1.0  0.7784899999999998  0.63331  0.73667  1.0000
  H   H24       1.0  0.86473  0.6174199999999999  0.7716500000000001  1.0000
  H   H25       1.0  0.5889  0.5379  0.7319  1.0000
  H   H26       1.0  0.53501  0.44897  0.76372  1.0000
  H   H27       1.0  0.5420399999999999  0.8007000000000001  0.7715  1.0000
  H   H28       1.0  0.5926599999999999  0.73678  0.73648  1.0000
  H   H29       1.0  0.64071  0.58081  0.60355  1.0000
  H   H30       1.0  0.60135  0.64188  0.65812  1.0000
  H   H31       1.0  0.26819  0.7946500000000001  0.62818  1.0000
  H   H32       1.0  0.31756  0.74812  0.57307  1.0000
  H   H33       1.0  0.34306  0.72861  0.41694999999999993  1.0000
  H   H34       1.0  0.4846199999999999  0.8009  0.41966  1.0000
  H   H35       1.0  0.26017  0.77015  0.49762  1.0000
  H   H36       1.0  0.21591  0.7112500000000003  0.46132  1.0000
  H   H37       1.0  0.4521199999999999  0.8694200000000001  0.50132  1.0000
  H   H38       1.0  0.54539  0.88291  0.4679400000000001  1.0000
  H   H39       1.0  0.16168  0.98191  0.42242  1.0000
  H   H40       1.0  0.16003  0.83178  0.41844000000000003  1.0000
  H   H41       1.0  0.22212  0.06318  0.47121  1.0000
  H   H42       1.0  0.26411  0.97323  0.50312  1.0000
  H   H43       1.0  0.48869999999999997  0.004170000000000005  0.42511999999999994  1.0000
  H   H44       1.0  0.35048  0.08016000000000001  0.42646000000000006  1.0000
  H   H45       1.0  0.18958  0.9910300000000001  0.31211  1.0000
  H   H46       1.0  0.33071999999999996  0.06347  0.31228  1.0000
  H   H47       1.0  0.31999999999999995  0.7096200000000001  0.32061  1.0000
  H   H48       1.0  0.18462  0.7886  0.31685  1.0000
  H   H49       1.0  0.5141  0.9598200000000001  0.31736  1.0000
  H   H50       1.0  0.51081  0.80797  0.3208  1.0000
  H   H51       1.0  0.23313999999999993  0.8683100000000001  0.23546999999999998  1.0000
  H   H52       1.0  0.13432  0.8790300000000001  0.26809  1.0000
  H   H53       1.0  0.42423  0.96564  0.23588999999999996  1.0000
  H   H54       1.0  0.46417  0.05027  0.269  1.0000
  H   H55       1.0  0.45567  0.69729  0.27704  1.0000
  H   H56       1.0  0.4204499999999999  0.7647600000000004  0.2406  1.0000
  H   H57       1.0  0.8750399999999998  0.04774  0.39339  1.0000
  H   H58       1.0  0.9197599999999999  0.10485000000000001  0.33792  1.0000
  H   H59       1.0  0.19296999999999997  0.33371  0.36958  1.0000
  H   H60       1.0  0.14343  0.28059  0.42461  1.0000
  H   H61       1.0  0.14107999999999998  0.22002  0.57899  1.0000
  H   H62       1.0  0.0028899999999999998  0.29353  0.57233  1.0000
  H   H63       1.0  0.25416  0.26118  0.50028  1.0000
  H   H64       1.0  0.28514  0.20221  0.53791  1.0000
  H   H65       1.0  0.06495  0.35689000000000004  0.49093  1.0000
  H   H66       1.0  0.9596699999999998  0.37211000000000005  0.52152  1.0000
  H   H67       1.0  0.32718  0.47581  0.57442  1.0000
  H   H68       1.0  0.32805  0.32609  0.58049  1.0000
  H   H69       1.0  0.2832799999999999  0.5541  0.52342  1.0000
  H   H70       1.0  0.25321  0.4619600000000001  0.49205000000000004  1.0000
  H   H71       1.0  0.0010499999999999995  0.49422  0.56396  1.0000
  H   H72       1.0  0.13884  0.57287  0.56453  1.0000
  H   H73       1.0  0.29477999999999993  0.5043000000000002  0.68556  1.0000
  H   H74       1.0  0.15424999999999997  0.57647  0.689  1.0000
  H   H75       1.0  0.15873999999999996  0.22332  0.6797  1.0000
  H   H76       1.0  0.29697  0.3016300000000001  0.68009  1.0000
  H   H77       1.0  0.9675499999999999  0.47101  0.68884  1.0000
  H   H78       1.0  0.96952  0.32105000000000006  0.68468  1.0000
  H   H79       1.0  0.27973  0.36823  0.76214  1.0000
  H   H80       1.0  0.36609  0.38544  0.7272  1.0000
  H   H81       1.0  0.09082999999999995  0.46269000000000005  0.76727  1.0000
  H   H82       1.0  0.03719  0.55322  0.73585  1.0000
  H   H83       1.0  0.04243  0.20214  0.72665  1.0000
  H   H84       1.0  0.09308999999999999  0.26398  0.76198  1.0000
  H   H85       1.0  0.14149999999999996  0.42371  0.89575  1.0000
  H   H86       1.0  0.10189  0.36367  0.84109  1.0000
  H   H87       1.0  0.7695599999999999  0.20726  0.8708299999999999  1.0000
  H   H88       1.0  0.8178  0.25452  0.92593  1.0000
  H   H89       1.0  0.8434999999999998  0.27402  0.08224  1.0000
  H   H90       1.0  0.98456  0.20146  0.07993  1.0000
  H   H91       1.0  0.76346  0.23042  0.0014  1.0000
  H   H92       1.0  0.71795  0.29054  0.0374  1.0000
  H   H93       1.0  0.9549499999999997  0.13139000000000003  0.99835  1.0000
  H   H94       1.0  0.04654999999999999  0.11852  0.03203  1.0000
  H   H95       1.0  0.66047  0.0209  0.07679  1.0000
  H   H96       1.0  0.65989  0.17112  0.08045  1.0000
  H   H97       1.0  0.7224  0.93833  0.028039999999999995  1.0000
  H   H98       1.0  0.7663  0.028240000000000005  0.9962199999999999  1.0000
  H   H99       1.0  0.98741  0.99803  0.0748  1.0000
  H   H100      1.0  0.84857  0.9222500000000002  0.07322  1.0000
  H   H101      1.0  0.6914999999999999  0.003940000000000003  0.18906999999999996  1.0000
  H   H102      1.0  0.8318599999999998  0.9309800000000001  0.18944  1.0000
  H   H103      1.0  0.8251899999999999  0.28469  0.18015  1.0000
  H   H104      1.0  0.68867  0.20651000000000003  0.18368  1.0000
  H   H105      1.0  0.01617  0.03341  0.18459  1.0000
  H   H106      1.0  0.015089999999999998  0.18514000000000003  0.18058  1.0000
  H   H107      1.0  0.7333299999999998  0.12921  0.26545  1.0000
  H   H108      1.0  0.6355  0.11755  0.23262  1.0000
  H   H109      1.0  0.92349  0.0315  0.26575  1.0000
  H   H110      1.0  0.9639  0.94548  0.233  1.0000
  H   H111      1.0  0.9588099999999998  0.29827  0.22397  1.0000
  H   H112      1.0  0.9216099999999999  0.23228000000000001  0.26047  1.0000
  H   H113      1.0  0.6221  0.04681  0.89287  1.0000
  H   H114      1.0  0.5761799999999999  0.10175  0.83741  1.0000
  H   H115      1.0  0.30475  0.33139  0.8690299999999999  1.0000
  H   H116      1.0  0.35439  0.27904  0.9240100000000001  1.0000
  H   H117      1.0  0.35405999999999993  0.21532000000000007  0.07801  1.0000
  H   H118      1.0  0.49369  0.28882  0.07283  1.0000
  H   H119      1.0  0.25079  0.26523  0.99867  1.0000
  H   H120      1.0  0.21448999999999996  0.2017  0.03545  1.0000
  H   H121      1.0  0.44124  0.36041  0.99151  1.0000
  H   H122      1.0  0.54294  0.37228000000000006  0.02304  1.0000
  H   H123      1.0  0.17059999999999997  0.47136  0.07409  1.0000
  H   H124      1.0  0.16849999999999998  0.32115  0.07897  1.0000
  H   H125      1.0  0.22058999999999998  0.55485  0.02403  1.0000
  H   H126      1.0  0.25301  0.46604  0.99211  1.0000
  H   H127      1.0  0.49789  0.49066  0.06594  1.0000
  H   H128      1.0  0.36045999999999995  0.56921  0.06611  1.0000
  H   H129      1.0  0.20748  0.4998600000000001  0.18634000000000003  1.0000
  H   H130      1.0  0.34866  0.5718900000000001  0.18958  1.0000
  H   H131      1.0  0.34229  0.21832  0.18146  1.0000
  H   H132      1.0  0.20422999999999994  0.29629  0.18149  1.0000
  H   H133      1.0  0.5345899999999999  0.4662700000000001  0.18960000000000002  1.0000
  H   H134      1.0  0.53147  0.31603  0.18606999999999999  1.0000
  H   H135      1.0  0.2215  0.36669  0.26334  1.0000
  H   H136      1.0  0.13526999999999997  0.38258  0.22835  1.0000
  H   H137      1.0  0.4111  0.46210000000000007  0.2681  1.0000
  H   H138      1.0  0.46498999999999996  0.55103  0.23628  1.0000
  H   H139      1.0  0.45793999999999996  0.1993  0.22851000000000002  1.0000
  H   H140      1.0  0.40733  0.26321  0.26352  1.0000
  H   H141      1.0  0.35929  0.41919000000000006  0.39645  1.0000
  H   H142      1.0  0.3986499999999999  0.35811  0.34188  1.0000
  H   H143      1.0  0.73181  0.20534000000000002  0.37182  1.0000
  H   H144      1.0  0.68244  0.25189  0.42693  1.0000
  H   H145      1.0  0.6569399999999999  0.27139  0.58305  1.0000
  H   H146      1.0  0.5153799999999998  0.1991  0.58034  1.0000
  H   H147      1.0  0.7398299999999998  0.22985  0.50239  1.0000
  H   H148      1.0  0.78409  0.28875  0.53868  1.0000
  H   H149      1.0  0.54788  0.13058  0.49868000000000007  1.0000
  H   H150      1.0  0.45461  0.11709  0.53206  1.0000
  H   H151      1.0  0.8383099999999999  0.018090000000000002  0.57758  1.0000
  H   H152      1.0  0.83997  0.16821999999999998  0.58156  1.0000
  H   H153      1.0  0.7778799999999999  0.93682  0.52879  1.0000
  H   H154      1.0  0.73589  0.02676999999999999  0.49688000000000004  1.0000
  H   H155      1.0  0.51129  0.99583  0.57488  1.0000
  H   H156      1.0  0.6495199999999999  0.91984  0.57354  1.0000
  H   H157      1.0  0.81043  0.008969999999999994  0.68789  1.0000
  H   H158      1.0  0.66929  0.9365300000000002  0.68772  1.0000
  H   H159      1.0  0.68  0.29038  0.6794  1.0000
  H   H160      1.0  0.81538  0.21140000000000003  0.68315  1.0000
  H   H161      1.0  0.48590999999999995  0.040179999999999993  0.68264  1.0000
  H   H162      1.0  0.48918999999999996  0.19203  0.6792  1.0000
  H   H163      1.0  0.7668499999999998  0.1317  0.76453  1.0000
  H   H164      1.0  0.8656699999999999  0.12098000000000005  0.73191  1.0000
  H   H165      1.0  0.57575  0.03436999999999999  0.76411  1.0000
  H   H166      1.0  0.53583  0.94973  0.731  1.0000
  H   H167      1.0  0.5443299999999999  0.30271  0.72296  1.0000
  H   H168      1.0  0.57953  0.23524999999999993  0.7594  1.0000
  H   H169      1.0  0.12495999999999999  0.95224  0.60661  1.0000
  H   H170      1.0  0.08021999999999999  0.89516  0.66208  1.0000
  H   H171      1.0  0.80701  0.6662899999999999  0.63042  1.0000
  H   H172      1.0  0.8565599999999998  0.7194000000000002  0.57539  1.0000
  H   H173      1.0  0.85892  0.7799700000000003  0.42100999999999994  1.0000
  H   H174      1.0  0.9971099999999999  0.7064700000000002  0.42767  1.0000
  H   H175      1.0  0.74584  0.73881  0.49972  1.0000
  H   H176      1.0  0.71486  0.79779  0.46209  1.0000
  H   H177      1.0  0.93505  0.6431000000000002  0.50907  1.0000
  H   H178      1.0  0.04033  0.62789  0.47848  1.0000
  H   H179      1.0  0.67282  0.52418  0.4255900000000001  1.0000
  H   H180      1.0  0.6719499999999999  0.6739  0.41951  1.0000
  H   H181      1.0  0.71671  0.4459000000000001  0.47658  1.0000
  H   H182      1.0  0.74679  0.53804  0.50795  1.0000
  H   H183      1.0  0.9989499999999999  0.50577  0.43604  1.0000
  H   H184      1.0  0.86116  0.42712  0.43547  1.0000
  H   H185      1.0  0.70521  0.4957  0.31444  1.0000
  H   H186      1.0  0.8457399999999999  0.42352  0.311  1.0000
  H   H187      1.0  0.8412499999999999  0.77668  0.3203  1.0000
  H   H188      1.0  0.70302  0.69836  0.31991  1.0000
  H   H189      1.0  0.03245  0.52899  0.31116  1.0000
  H   H190      1.0  0.03047  0.67895  0.31532  1.0000
  H   H191      1.0  0.72027  0.63177  0.23786  1.0000
  H   H192      1.0  0.6339  0.61456  0.2728  1.0000
  H   H193      1.0  0.90916  0.5373  0.23273  1.0000
  H   H194      1.0  0.9627999999999999  0.44677  0.26415  1.0000
  H   H195      1.0  0.95756  0.79786  0.27335  1.0000
  H   H196      1.0  0.90691  0.73601  0.23802  1.0000
  H   H197      1.0  0.85853  0.57627  0.10426  1.0000
  H   H198      1.0  0.89812  0.63632  0.15892  1.0000
  H   H199      1.0  0.23045  0.7927300000000004  0.12918  1.0000
  H   H200      1.0  0.1822  0.74544  0.07408  1.0000
  H   H201      1.0  0.1565  0.72597  0.91776  1.0000
  H   H202      1.0  0.01544  0.79852  0.92007  1.0000
  H   H203      1.0  0.23654999999999998  0.7695700000000001  0.9986000000000002  1.0000
  H   H204      1.0  0.28206  0.70946  0.9626  1.0000
  H   H205      1.0  0.04506  0.8686  0.0016500000000000002  1.0000
  H   H206      1.0  0.9534499999999999  0.88147  0.9679699999999999  1.0000
  H   H207      1.0  0.33953  0.9791  0.92321  1.0000
  H   H208      1.0  0.34011  0.82887  0.91955  1.0000
  H   H209      1.0  0.2776  0.06165999999999999  0.97196  1.0000
  H   H210      1.0  0.23371  0.97176  0.00378  1.0000
  H   H211      1.0  0.012589999999999997  0.0019499999999999925  0.9252  1.0000
  H   H212      1.0  0.15142  0.07774  0.9267799999999999  1.0000
  H   H213      1.0  0.30849  0.9960600000000002  0.81093  1.0000
  H   H214      1.0  0.16812999999999997  0.06902  0.81057  1.0000
  H   H215      1.0  0.17481  0.7153100000000001  0.81985  1.0000
  H   H216      1.0  0.31133  0.7934900000000001  0.81632  1.0000
  H   H217      1.0  0.98383  0.96659  0.8154099999999999  1.0000
  H   H218      1.0  0.9848999999999998  0.81485  0.8194199999999999  1.0000
  H   H219      1.0  0.26665999999999995  0.8707800000000001  0.73455  1.0000
  H   H220      1.0  0.36449999999999994  0.88245  0.7673799999999998  1.0000
  H   H221      1.0  0.0765  0.9685000000000001  0.73425  1.0000
  H   H222      1.0  0.03609  0.05451999999999999  0.767  1.0000
  H   H223      1.0  0.04118  0.70172  0.77603  1.0000
  H   H224      1.0  0.07837999999999999  0.76772  0.73953  1.0000
  C   C1        1.0  0.4893699999999999  0.88246  0.05551  1.0000
  C   C2        1.0  0.5094299999999999  0.8410300000000002  0.08834  1.0000
  C   C3        1.0  0.44615  0.8903  0.11278999999999999  1.0000
  C   C4        1.0  0.47239999999999993  0.86089  0.14348  1.0000
  C   C5        1.0  0.5636999999999999  0.78218  0.14985  1.0000
  C   C6        1.0  0.6251499999999999  0.73001  0.12573  1.0000
  C   C7        1.0  0.5975  0.7592100000000002  0.09507000000000002  1.0000
  C   C8        1.0  0.60184  0.71297  0.93394  1.0000
  C   C9        1.0  0.74107  0.72618  0.97616  1.0000
  C   C10       1.0  0.5525399999999999  0.62867  0.9834199999999998  1.0000
  C   C11       1.0  0.78652  0.6074700000000002  0.93291  1.0000
  C   C12       1.0  0.7361999999999999  0.52404  0.9828099999999999  1.0000
  C   C13       1.0  0.59751  0.51001  0.9410000000000001  1.0000
  C   C14       1.0  0.70069  0.50573  0.80444  1.0000
  C   C15       1.0  0.7042  0.70844  0.80895  1.0000
  C   C16       1.0  0.5147299999999999  0.61111  0.80413  1.0000
  C   C17       1.0  0.77357  0.62282  0.7619400000000001  1.0000
  C   C18       1.0  0.58421  0.52594  0.7571200000000001  1.0000
  C   C19       1.0  0.5881399999999999  0.72759  0.7617900000000001  1.0000
  C   C20       1.0  0.5031899999999999  0.62048  0.55287  1.0000
  C   C21       1.0  0.4818999999999999  0.6614300000000002  0.58514  1.0000
  C   C22       1.0  0.56155  0.63094  0.60914  1.0000
  C   C23       1.0  0.53863  0.6626  0.63948  1.0000
  C   C24       1.0  0.4321  0.72105  0.64603  1.0000
  C   C25       1.0  0.35153  0.75168  0.62244  1.0000
  C   C26       1.0  0.37803999999999993  0.72388  0.5919  1.0000
  C   C27       1.0  0.39054  0.7999400000000001  0.42763  1.0000
  C   C28       1.0  0.26248  0.7819900000000001  0.47234  1.0000
  C   C29       1.0  0.45165  0.8809800000000001  0.47606  1.0000
  C   C30       1.0  0.20693999999999996  0.90304  0.42921  1.0000
  C   C31       1.0  0.26798  0.98437  0.47781  1.0000
  C   C32       1.0  0.39488  0.0006599999999999997  0.43322  1.0000
  C   C33       1.0  0.2843899999999999  0.98626  0.30524  1.0000
  C   C34       1.0  0.27942  0.7849700000000002  0.30968  1.0000
  C   C35       1.0  0.46787999999999996  0.8826900000000001  0.31017  1.0000
  C   C36       1.0  0.22885999999999998  0.87553  0.26076  1.0000
  C   C37       1.0  0.4182299999999999  0.97409  0.2611  1.0000
  C   C38       1.0  0.41373999999999994  0.7713  0.26584  1.0000
  C   C39       1.0  0.98673  0.11764000000000002  0.44479  1.0000
  C   C40       1.0  0.00689  0.16015  0.41213  1.0000
  C   C41       1.0  0.94311  0.1111  0.38771  1.0000
  C   C42       1.0  0.96879  0.14138  0.35709  1.0000
  C   C43       1.0  0.06069999999999999  0.21991  0.35085  1.0000
  C   C44       1.0  0.12265  0.2722  0.37489  1.0000
  C   C45       1.0  0.09504999999999997  0.24248  0.40553  1.0000
  C   C46       1.0  0.09906999999999998  0.29072  0.56622  1.0000
  C   C47       1.0  0.24279999999999996  0.27293  0.52525  1.0000
  C   C48       1.0  0.05584999999999999  0.37035  0.51584  1.0000
  C   C49       1.0  0.28473999999999994  0.39614000000000005  0.56773  1.0000
  C   C50       1.0  0.24011  0.47449999999999987  0.51696  1.0000
  C   C51       1.0  0.09716  0.49295  0.55769  1.0000
  C   C52       1.0  0.20286  0.49853000000000003  0.69476  1.0000
  C   C53       1.0  0.20528  0.2962  0.68959  1.0000
  C   C54       1.0  0.01623  0.39324000000000003  0.69479  1.0000
  C   C55       1.0  0.27487  0.37971  0.7369  1.0000
  C   C56       1.0  0.08606  0.47601  0.7421  1.0000
  C   C57       1.0  0.08875999999999999  0.27474  0.7367  1.0000
  C   C58       1.0  0.00295  0.38297  0.94651  1.0000
  C   C59       1.0  0.9820899999999999  0.34266  0.9140900000000001  1.0000
  C   C60       1.0  0.062159999999999986  0.37344  0.89012  1.0000
  C   C61       1.0  0.03923999999999999  0.34208  0.85971  1.0000
  C   C62       1.0  0.9328799999999999  0.28294  0.8530200000000001  1.0000
  C   C63       1.0  0.85252  0.25119  0.87662  1.0000
  C   C64       1.0  0.8786099999999998  0.27931  0.90719  1.0000
  C   C65       1.0  0.8907599999999999  0.20238  0.07177  1.0000
  C   C66       1.0  0.76444  0.21936  0.026689999999999995  1.0000
  C   C67       1.0  0.9532199999999997  0.12034000000000002  0.02363  1.0000
  C   C68       1.0  0.7065899999999999  0.09946  0.06992  1.0000
  C   C69       1.0  0.76891  0.01713  0.02154  1.0000
  C   C70       1.0  0.8939199999999999  0.00153  0.06648  1.0000
  C   C71       1.0  0.7861  0.008659999999999998  0.19615  1.0000
  C   C72       1.0  0.78317  0.20992  0.19112  1.0000
  C   C73       1.0  0.9706699999999998  0.11125000000000002  0.19137  1.0000
  C   C74       1.0  0.7297899999999999  0.12112  0.24017000000000002  1.0000
  C   C75       1.0  0.9183399999999999  0.0221  0.24055  1.0000
  C   C76       1.0  0.9157899999999998  0.22472  0.23524000000000003  1.0000
  C   C77       1.0  0.51063  0.11756  0.94449  1.0000
  C   C78       1.0  0.4905399999999999  0.15896000000000002  0.91166  1.0000
  C   C79       1.0  0.55383  0.10970000000000002  0.88721  1.0000
  C   C80       1.0  0.52762  0.13913000000000006  0.85652  1.0000
  C   C81       1.0  0.43633  0.21786  0.85015  1.0000
  C   C82       1.0  0.37485999999999997  0.2700100000000001  0.87427  1.0000
  C   C83       1.0  0.4024899999999999  0.24079000000000006  0.90493  1.0000
  C   C84       1.0  0.39816  0.28702  0.06606  1.0000
  C   C85       1.0  0.25893  0.27381  0.02384  1.0000
  C   C86       1.0  0.44745  0.37133  0.01658  1.0000
  C   C87       1.0  0.21348  0.39252000000000004  0.06709  1.0000
  C   C88       1.0  0.26379  0.47595000000000004  0.01719  1.0000
  C   C89       1.0  0.40247999999999995  0.48998  0.059  1.0000
  C   C90       1.0  0.2993  0.49427  0.19556000000000004  1.0000
  C   C91       1.0  0.29579  0.29155  0.19106  1.0000
  C   C92       1.0  0.48526  0.38888  0.19587  1.0000
  C   C93       1.0  0.22642  0.37718000000000007  0.23806  1.0000
  C   C94       1.0  0.41578  0.47406  0.24287999999999998  1.0000
  C   C95       1.0  0.41183999999999993  0.27241  0.23822  1.0000
  C   C96       1.0  0.49681  0.3795200000000001  0.44714  1.0000
  C   C97       1.0  0.51811  0.33857  0.41486  1.0000
  C   C98       1.0  0.43845  0.36906  0.39086000000000004  1.0000
  C   C99       1.0  0.4613699999999999  0.33739  0.36052  1.0000
  C   C100      1.0  0.5679  0.27895  0.35397  1.0000
  C   C101      1.0  0.6484699999999999  0.24831  0.37756000000000006  1.0000
  C   C102      1.0  0.62196  0.27612  0.40811  1.0000
  C   C103      1.0  0.60945  0.20006  0.57237  1.0000
  C   C104      1.0  0.73752  0.21801  0.52766  1.0000
  C   C105      1.0  0.5483499999999999  0.11902  0.52394  1.0000
  C   C106      1.0  0.79305  0.09695999999999998  0.57079  1.0000
  C   C107      1.0  0.7320199999999999  0.01563  0.52219  1.0000
  C   C108      1.0  0.60512  0.99934  0.56678  1.0000
  C   C109      1.0  0.71561  0.01375  0.69476  1.0000
  C   C110      1.0  0.72058  0.21504000000000004  0.69032  1.0000
  C   C111      1.0  0.53212  0.11731000000000001  0.68983  1.0000
  C   C112      1.0  0.77113  0.12448000000000001  0.73924  1.0000
  C   C113      1.0  0.58176  0.02591  0.7389  1.0000
  C   C114      1.0  0.58625  0.2287  0.73416  1.0000
  C   C115      1.0  0.013269999999999997  0.8823600000000001  0.55521  1.0000
  C   C116      1.0  0.9931099999999998  0.8398400000000003  0.58787  1.0000
  C   C117      1.0  0.05688999999999999  0.88888  0.61229  1.0000
  C   C118      1.0  0.0312  0.8586100000000001  0.64291  1.0000
  C   C119      1.0  0.9392999999999999  0.78007  0.64915  1.0000
  C   C120      1.0  0.87734  0.72779  0.62511  1.0000
  C   C121      1.0  0.90495  0.7575100000000002  0.59447  1.0000
  C   C122      1.0  0.90093  0.7092700000000001  0.43378  1.0000
  C   C123      1.0  0.7571999999999999  0.72707  0.47475  1.0000
  C   C124      1.0  0.9441499999999998  0.62964  0.4841599999999999  1.0000
  C   C125      1.0  0.71526  0.60385  0.43227  1.0000
  C   C126      1.0  0.75989  0.5255  0.48303999999999997  1.0000
  C   C127      1.0  0.9028399999999999  0.50705  0.44231  1.0000
  C   C128      1.0  0.79713  0.50147  0.30524  1.0000
  C   C129      1.0  0.7947099999999999  0.7038  0.31041  1.0000
  C   C130      1.0  0.9837599999999999  0.60676  0.30521  1.0000
  C   C131      1.0  0.7251199999999998  0.62029  0.2631  1.0000
  C   C132      1.0  0.9139299999999999  0.52399  0.2579  1.0000
  C   C133      1.0  0.91124  0.7252500000000001  0.2633  1.0000
  C   C134      1.0  0.99704  0.61701  0.0535  1.0000
  C   C135      1.0  0.017899999999999996  0.65734  0.08592  1.0000
  C   C136      1.0  0.93785  0.62656  0.1099  1.0000
  C   C137      1.0  0.96077  0.65791  0.1403  1.0000
  C   C138      1.0  0.06713999999999999  0.71705  0.147  1.0000
  C   C139      1.0  0.14748  0.7488100000000001  0.12339  1.0000
  C   C140      1.0  0.12137999999999999  0.7206900000000002  0.09282  1.0000
  C   C141      1.0  0.10924  0.7976  0.92823  1.0000
  C   C142      1.0  0.23556  0.7806300000000002  0.9733099999999999  1.0000
  C   C143      1.0  0.04679  0.87966  0.97637  1.0000
  C   C144      1.0  0.29341  0.90053  0.93008  1.0000
  C   C145      1.0  0.23108999999999996  0.9828600000000001  0.97846  1.0000
  C   C146      1.0  0.10608  0.99845  0.93352  1.0000
  C   C147      1.0  0.21388999999999997  0.99134  0.8038499999999998  1.0000
  C   C148      1.0  0.21683  0.7900800000000001  0.80888  1.0000
  C   C149      1.0  0.029319999999999995  0.8887500000000003  0.8086300000000001  1.0000
  C   C150      1.0  0.2702  0.8788700000000002  0.7598299999999999  1.0000
  C   C151      1.0  0.08165  0.9779  0.75945  1.0000
  C   C152      1.0  0.0842  0.7752800000000002  0.7647599999999999  1.0000
  S   S1        1.0  0.6025399999999999  0.74946  0.18916  1.0000
  S   S2        1.0  0.39962999999999993  0.75415  0.68527  1.0000
  S   S3        1.0  0.09998999999999997  0.2503  0.31162  1.0000
  S   S4        1.0  0.89912  0.25375  0.81348  1.0000
  S   S5        1.0  0.39746  0.25054  0.8108399999999999  1.0000
  S   S6        1.0  0.60037  0.24584  0.31473  1.0000
  S   S7        1.0  0.90001  0.7496800000000001  0.68838  1.0000
  S   S8        1.0  0.10091  0.74625  0.18652999999999997  1.0000
  N   N1        1.0  0.6119599999999998  0.72702  0.96764  1.0000
  N   N2        1.0  0.65771  0.60582  0.92371  1.0000
  N   N3        1.0  0.80078  0.62001  0.96687  1.0000
  N   N4        1.0  0.60829  0.52202  0.97452  1.0000
  N   N5        1.0  0.63768  0.6043700000000001  0.81769  1.0000
  N   N6        1.0  0.71227  0.72313  0.7747699999999998  1.0000
  N   N7        1.0  0.7081099999999999  0.51774  0.77003  1.0000
  N   N8        1.0  0.51972  0.62407  0.7700700000000001  1.0000
  N   N9        1.0  0.38994  0.7821600000000001  0.46191999999999994  1.0000
  N   N10       1.0  0.33211  0.90603  0.41822  1.0000
  N   N11       1.0  0.19968  0.8887  0.46372  1.0000
  N   N12       1.0  0.3937499999999999  0.9882400000000001  0.46736999999999995  1.0000
  N   N13       1.0  0.34142  0.88673  0.31963  1.0000
  N   N14       1.0  0.28487  0.7735800000000002  0.2752  1.0000
  N   N15       1.0  0.28961  0.98027  0.27043  1.0000
  N   N16       1.0  0.47887  0.87424  0.2757  1.0000
  N   N17       1.0  0.1127  0.27335  0.53274  1.0000
  N   N18       1.0  0.15495  0.39873000000000003  0.57602  1.0000
  N   N19       1.0  0.30231  0.38006  0.53404  1.0000
  N   N20       1.0  0.11144  0.47778000000000004  0.52437  1.0000
  N   N21       1.0  0.13921999999999998  0.40058  0.6812  1.0000
  N   N22       1.0  0.21302999999999994  0.27998  0.72374  1.0000
  N   N23       1.0  0.20998999999999998  0.48508999999999997  0.72915  1.0000
  N   N24       1.0  0.02096  0.37859  0.72881  1.0000
  N   N25       1.0  0.8915  0.21940000000000004  0.03746  1.0000
  N   N26       1.0  0.83129  0.09654  0.08121  1.0000
  N   N27       1.0  0.70065  0.11296  0.03539  1.0000
  N   N28       1.0  0.89428  0.01329  0.03231  1.0000
  N   N29       1.0  0.8445699999999999  0.10749  0.18161  1.0000
  N   N30       1.0  0.78722  0.22249  0.22559  1.0000
  N   N31       1.0  0.7899999999999999  0.015880000000000005  0.23094  1.0000
  N   N32       1.0  0.9803899999999999  0.12121000000000001  0.22582  1.0000
  N   N33       1.0  0.38804  0.27298  0.03236  1.0000
  N   N34       1.0  0.34229  0.39417  0.07629  1.0000
  N   N35       1.0  0.19922  0.37998000000000004  0.03313  1.0000
  N   N36       1.0  0.3916999999999999  0.47797  0.025480000000000003  1.0000
  N   N37       1.0  0.3623099999999999  0.39562  0.18231  1.0000
  N   N38       1.0  0.28772  0.27687  0.22523  1.0000
  N   N39       1.0  0.29188  0.48225000000000007  0.22997  1.0000
  N   N40       1.0  0.4802699999999999  0.37593  0.22993  1.0000
  N   N41       1.0  0.61006  0.21784  0.53808  1.0000
  N   N42       1.0  0.66788  0.09396  0.58178  1.0000
  N   N43       1.0  0.8003199999999998  0.1113  0.53628  1.0000
  N   N44       1.0  0.6062399999999999  0.01175  0.53263  1.0000
  N   N45       1.0  0.6585799999999999  0.11327000000000001  0.68037  1.0000
  N   N46       1.0  0.71512  0.22642  0.7248  1.0000
  N   N47       1.0  0.71038  0.01973  0.72957  1.0000
  N   N48       1.0  0.52112  0.12576  0.7243  1.0000
  N   N49       1.0  0.8872999999999999  0.72665  0.46726  1.0000
  N   N50       1.0  0.8450399999999999  0.60126  0.42398  1.0000
  N   N51       1.0  0.69769  0.61993  0.46596  1.0000
  N   N52       1.0  0.88856  0.52222  0.47563  1.0000
  N   N53       1.0  0.86077  0.59942  0.31881  1.0000
  N   N54       1.0  0.7869699999999997  0.7200100000000003  0.27626  1.0000
  N   N55       1.0  0.7899999999999999  0.5149  0.27085  1.0000
  N   N56       1.0  0.97903  0.62141  0.27119  1.0000
  N   N57       1.0  0.1085  0.78059  0.96254  1.0000
  N   N58       1.0  0.16871  0.9034500000000002  0.91879  1.0000
  N   N59       1.0  0.29935  0.8870300000000001  0.96461  1.0000
  N   N60       1.0  0.10571999999999998  0.9867000000000001  0.96769  1.0000
  N   N61       1.0  0.15542999999999998  0.89251  0.8183900000000001  1.0000
  N   N62       1.0  0.21277999999999997  0.77751  0.77441  1.0000
  N   N63       1.0  0.20998999999999998  0.9841099999999999  0.76906  1.0000
  N   N64       1.0  0.019599999999999996  0.8787800000000001  0.77418  1.0000
  O   O1        1.0  0.5503999999999999  0.83394  0.03442  1.0000
  O   O2        1.0  0.4179099999999999  0.96556  0.05145  1.0000
  O   O3        1.0  0.56309  0.85152  0.20639  1.0000
  O   O4        1.0  0.73412  0.7313700000000001  0.19050000000000003  1.0000
  O   O5        1.0  0.5328  0.64693  0.19845  1.0000
  O   O6        1.0  0.4425299999999999  0.66854  0.53119  1.0000
  O   O7        1.0  0.57614  0.53818  0.54996  1.0000
  O   O8        1.0  0.44188  0.6517  0.70311  1.0000
  O   O9        1.0  0.26791  0.7716000000000001  0.68761  1.0000
  O   O10       1.0  0.4716699999999999  0.85623  0.69241  1.0000
  O   O11       1.0  0.04768  0.16606  0.46592999999999996  1.0000
  O   O12       1.0  0.9153199999999998  0.03408  0.44863  1.0000
  O   O13       1.0  0.06581  0.14502  0.29503  1.0000
  O   O14       1.0  0.23069999999999996  0.27403  0.31081  1.0000
  O   O15       1.0  0.02547  0.34831  0.30144  1.0000
  O   O16       1.0  0.9390499999999999  0.33659  0.9679  1.0000
  O   O17       1.0  0.07891  0.46277  0.95  1.0000
  O   O18       1.0  0.93917  0.35976  0.7968200000000001  1.0000
  O   O19       1.0  0.7677399999999998  0.23426000000000002  0.81116  1.0000
  O   O20       1.0  0.97154  0.15428  0.80467  1.0000
  O   O21       1.0  0.4496  0.16608  0.96559  1.0000
  O   O22       1.0  0.58209  0.03447000000000001  0.94856  1.0000
  O   O23       1.0  0.4369199999999999  0.14847000000000002  0.79362  1.0000
  O   O24       1.0  0.26588  0.2686  0.8094999999999999  1.0000
  O   O25       1.0  0.46717999999999993  0.35307  0.80154  1.0000
  O   O26       1.0  0.5574599999999998  0.3314600000000001  0.46881000000000006  1.0000
  O   O27       1.0  0.42385  0.46182  0.45004  1.0000
  O   O28       1.0  0.55811  0.34829  0.2969  1.0000
  O   O29       1.0  0.73209  0.2284  0.31239  1.0000
  O   O30       1.0  0.52832  0.14377  0.30759  1.0000
  O   O31       1.0  0.9523099999999999  0.8339600000000001  0.53407  1.0000
  O   O32       1.0  0.0847  0.96591  0.55137  1.0000
  O   O33       1.0  0.93418  0.8549500000000001  0.70498  1.0000
  O   O34       1.0  0.7693  0.72597  0.68919  1.0000
  O   O35       1.0  0.9745299999999999  0.6516800000000001  0.69856  1.0000
  O   O36       1.0  0.06095  0.6634000000000001  0.03211  1.0000
  O   O37       1.0  0.9210699999999998  0.53722  0.050010000000000006  1.0000
  O   O38       1.0  0.0608  0.64025  0.20319  1.0000
  O   O39       1.0  0.23228999999999994  0.76571  0.18887000000000004  1.0000
  O   O40       1.0  0.02855  0.8457600000000001  0.19533  1.0000
