data_image0
_chemical_formula_structural       Ni12H168C240N24O96
_chemical_formula_sum              "Ni12 H168 C240 N24 O96"
_cell_length_a       25.24846
_cell_length_b       25.175439999999995
_cell_length_c       24.996939999999995
_cell_angle_alpha    109.37167000000001
_cell_angle_beta     109.51133
_cell_angle_gamma    109.78829

_symmetry_space_group_name_H-M    'P 1'
_symmetry_Int_Tables_number       1

loop_
  _symmetry_equiv_pos_as_xyz
  'x,y,z'

loop_
  _atom_site_type_symbol
  _atom_site_label
  _atom_site_symmetry_multiplicity
  _atom_site_fract_x
  _atom_site_fract_y
  _atom_site_fract_z
  _atom_site_occupancy
  Ni  Ni1       1.0  0.44231  0.72224  0.47209  1.0000
  Ni  Ni2       1.0  0.055460000000000016  0.52669  0.27685  1.0000
  Ni  Ni3       1.0  0.74974  0.9699799999999997  0.02717  1.0000
  Ni  Ni4       1.0  0.7502199999999999  0.7780699999999998  0.22393999999999997  1.0000
  Ni  Ni5       1.0  0.2783  0.55809  0.029279999999999997  1.0000
  Ni  Ni6       1.0  0.47252999999999995  0.9455199999999998  0.22342  1.0000
  Ni  Ni7       1.0  0.22135000000000005  0.24962999999999994  0.27662  1.0000
  Ni  Ni8       1.0  0.028910000000000016  0.24972  0.47189  1.0000
  Ni  Ni9       1.0  0.27920999999999996  0.7214499999999999  0.75033  1.0000
  Ni  Ni10      1.0  0.4723599999999999  0.5294199999999999  0.75145  1.0000
  Ni  Ni11      1.0  0.02739999999999999  0.77749  0.05503  1.0000
  Ni  Ni12      1.0  0.22185999999999997  0.9731  0.44412  1.0000
  H   H1        1.0  0.37878  0.86059  0.47457  1.0000
  H   H2        1.0  0.32401000000000013  0.61715  0.45337  1.0000
  H   H3        1.0  0.24188  0.61122  0.49074  1.0000
  H   H4        1.0  0.25358  0.71475  0.5645  1.0000
  H   H5        1.0  0.34957  0.8217  0.60162  1.0000
  H   H6        1.0  0.42761000000000005  0.81858  0.56123  1.0000
  H   H7        1.0  0.51006  0.77749  0.43197  1.0000
  H   H8        1.0  0.11880999999999997  0.5919999999999999  0.4786099999999999  1.0000
  H   H9        1.0  0.17392999999999997  0.6272599999999999  0.29187  1.0000
  H   H10       1.0  0.2558900000000001  0.74747  0.3689  1.0000
  H   H11       1.0  0.24474000000000004  0.80906  0.46142  1.0000
  H   H12       1.0  0.14991  0.74889  0.47309  1.0000
  H   H13       1.0  0.07201000000000003  0.6296499999999999  0.39107  1.0000
  H   H14       1.0  0.9898000000000002  0.41603  0.25804  1.0000
  H   H15       1.0  0.8857199999999998  0.9048199999999998  0.02591  1.0000
  H   H16       1.0  0.66441  0.87047  0.04695  1.0000
  H   H17       1.0  0.62093  0.75071  0.0095  1.0000
  H   H18       1.0  0.65002  0.68841  0.9352199999999999  1.0000
  H   H19       1.0  0.71972  0.74742  0.8980500000000001  1.0000
  H   H20       1.0  0.7572999999999999  0.8661499999999998  0.9386799999999998  1.0000
  H   H21       1.0  0.8446500000000005  0.07852  0.06728  1.0000
  H   H22       1.0  0.61328  0.63978  0.02305  1.0000
  H   H23       1.0  0.83449  0.8812800000000001  0.20782  1.0000
  H   H24       1.0  0.87762  0.8863099999999999  0.13084  1.0000
  H   H25       1.0  0.84699  0.7825299999999998  0.03854  1.0000
  H   H26       1.0  0.77496  0.6758399999999998  0.026759999999999996  1.0000
  H   H27       1.0  0.73772  0.6799099999999998  0.10875000000000001  1.0000
  H   H28       1.0  0.65898  0.73174  0.2437  1.0000
  H   H29       1.0  0.47967  0.6217299999999999  0.09584  1.0000
  H   H30       1.0  0.29414999999999997  0.6775499999999999  0.1302  1.0000
  H   H31       1.0  0.37142  0.75973  0.25086  1.0000
  H   H32       1.0  0.46255  0.74743  0.31277  1.0000
  H   H33       1.0  0.47182  0.65102  0.2527  1.0000
  H   H34       1.0  0.38949  0.57292  0.13316  1.0000
  H   H35       1.0  0.26318  0.4891  0.91989  1.0000
  H   H36       1.0  0.47405  0.8834799999999999  0.36272  1.0000
  H   H37       1.0  0.45383999999999997  0.8270799999999999  0.11913  1.0000
  H   H38       1.0  0.4914899999999999  0.7454599999999998  0.1137  1.0000
  H   H39       1.0  0.5643999999999999  0.7569699999999999  0.21791  1.0000
  H   H40       1.0  0.59944  0.85166  0.32533  1.0000
  H   H41       1.0  0.55851  0.9291799999999997  0.32165  1.0000
  H   H42       1.0  0.42749999999999994  0.010550000000000007  0.27006  1.0000
  H   H43       1.0  0.01948  0.11211  0.13618  1.0000
  H   H44       1.0  0.20807999999999996  0.33513999999999994  0.38209  1.0000
  H   H45       1.0  0.13179999999999997  0.37780999999999987  0.38805  1.0000
  H   H46       1.0  0.039670000000000025  0.34756  0.28419  1.0000
  H   H47       1.0  0.02792999999999999  0.27735  0.1765  1.0000
  H   H48       1.0  0.10939999999999998  0.24088999999999997  0.17962  1.0000
  H   H49       1.0  0.23544000000000004  0.15551  0.22270000000000004  1.0000
  H   H50       1.0  0.028139999999999984  0.38526999999999995  0.40638  1.0000
  H   H51       1.0  0.04668999999999996  0.16429999999999995  0.37072  1.0000
  H   H52       1.0  0.008  0.12046  0.24997  1.0000
  H   H53       1.0  0.93438  0.15009999999999998  0.18782  1.0000
  H   H54       1.0  0.89982  0.22138999999999992  0.24815999999999996  1.0000
  H   H55       1.0  0.9419500000000002  0.25959999999999994  0.36804  1.0000
  H   H56       1.0  0.07392000000000001  0.34181  0.58307  1.0000
  H   H57       1.0  0.14134  0.52049  0.61437  1.0000
  H   H58       1.0  0.38329  0.70718  0.83689  1.0000
  H   H59       1.0  0.38816999999999996  0.6304699999999999  0.8802  1.0000
  H   H60       1.0  0.28431  0.53832  0.84957  1.0000
  H   H61       1.0  0.17811999999999997  0.5275099999999999  0.77878  1.0000
  H   H62       1.0  0.18241000000000004  0.6092799999999999  0.74172  1.0000
  H   H63       1.0  0.22523  0.73598  0.65559  1.0000
  H   H64       1.0  0.40652  0.52551  0.88769  1.0000
  H   H65       1.0  0.37258  0.54767  0.66504  1.0000
  H   H66       1.0  0.25276  0.50901  0.6213  1.0000
  H   H67       1.0  0.19146000000000005  0.43581  0.65197  1.0000
  H   H68       1.0  0.25098  0.40005  0.72302  1.0000
  H   H69       1.0  0.36949  0.44119  0.76003  1.0000
  H   H70       1.0  0.5805  0.56925  0.84647  1.0000
  H   H71       1.0  0.09224999999999989  0.9788799999999998  0.11747999999999999  1.0000
  H   H72       1.0  0.12725999999999998  0.7931999999999999  0.17458  1.0000
  H   H73       1.0  0.24723000000000003  0.87005  0.2568  1.0000
  H   H74       1.0  0.30889  0.96172  0.24471999999999997  1.0000
  H   H75       1.0  0.24904999999999985  0.9728299999999996  0.14885  1.0000
  H   H76       1.0  0.13002  0.89095  0.07072  1.0000
  H   H77       1.0  0.9169099999999999  0.7581299999999999  0.9891599999999999  1.0000
  H   H78       1.0  0.35789  0.97281  0.3796  1.0000
  H   H79       1.0  0.11819000000000009  0.95403  0.3244  1.0000
  H   H80       1.0  0.11262999999999986  0.9915499999999999  0.24177  1.0000
  H   H81       1.0  0.21617  0.06546  0.2536  1.0000
  H   H82       1.0  0.32270000000000004  0.10123  0.34937  1.0000
  H   H83       1.0  0.31917000000000006  0.06008999999999997  0.42759  1.0000
  H   H84       1.0  0.26777  0.9277099999999999  0.50987  1.0000
  H   H85       1.0  0.11749000000000004  0.52514  0.13807  1.0000
  H   H86       1.0  0.17397  0.54524  0.38136  1.0000
  H   H87       1.0  0.2558  0.5081  0.38715  1.0000
  H   H88       1.0  0.24441  0.43505  0.28292  1.0000
  H   H89       1.0  0.14959  0.3995099999999999  0.17552  1.0000
  H   H90       1.0  0.07185999999999995  0.43997999999999987  0.17884  1.0000
  H   H91       1.0  0.9904100000000001  0.5720999999999999  0.23032999999999998  1.0000
  H   H92       1.0  0.38049  0.52051  0.4061  1.0000
  H   H93       1.0  0.32315000000000005  0.7069  0.37121  1.0000
  H   H94       1.0  0.24117000000000005  0.62996  0.25052  1.0000
  H   H95       1.0  0.25308  0.53861  0.18837  1.0000
  H   H96       1.0  0.34904  0.52876  0.24833  1.0000
  H   H97       1.0  0.42685  0.6105899999999999  0.36803  1.0000
  H   H98       1.0  0.5121  0.7379299999999999  0.58168  1.0000
  H   H99       1.0  0.61482  0.9731099999999998  0.09443  1.0000
  H   H100      1.0  0.83461  0.9511299999999996  0.12782  1.0000
  H   H101      1.0  0.8781  0.98965  0.24859  1.0000
  H   H102      1.0  0.84918  0.06378999999999997  0.31051  1.0000
  H   H103      1.0  0.7798700000000001  0.10045000000000003  0.25052  1.0000
  H   H104      1.0  0.7424000000000001  0.05888  0.13091  1.0000
  H   H105      1.0  0.65541  0.93027  0.91796  1.0000
  H   H106      1.0  0.8871200000000001  0.97909  0.36028  1.0000
  H   H107      1.0  0.66488  0.7920899999999998  0.11936  1.0000
  H   H108      1.0  0.62199  0.8683299999999999  0.11331999999999999  1.0000
  H   H109      1.0  0.6527899999999998  0.9609599999999998  0.21718  1.0000
  H   H110      1.0  0.7246199999999999  0.9736099999999998  0.32495  1.0000
  H   H111      1.0  0.76176  0.89248  0.32186  1.0000
  H   H112      1.0  0.8419200000000001  0.75984  0.27023  1.0000
  H   H113      1.0  0.020989999999999932  0.9074599999999998  0.38042  1.0000
  H   H114      1.0  0.20619  0.8725899999999998  0.32465  1.0000
  H   H115      1.0  0.12984000000000007  0.7522  0.24302999999999997  1.0000
  H   H116      1.0  0.03867999999999994  0.6904199999999998  0.25536  1.0000
  H   H117      1.0  0.027489999999999962  0.7506999999999999  0.35093  1.0000
  H   H118      1.0  0.10861999999999994  0.8701199999999998  0.42827  1.0000
  H   H119      1.0  0.2403300000000001  0.08320999999999998  0.51015  1.0000
  H   H120      1.0  0.027869999999999943  0.6411999999999999  0.12022  1.0000
  H   H121      1.0  0.046629999999999984  0.88153  0.17451  1.0000
  H   H122      1.0  0.009049999999999983  0.8868999999999999  0.25699  1.0000
  H   H123      1.0  0.9356099999999999  0.7833499999999999  0.24528  1.0000
  H   H124      1.0  0.89956  0.67642  0.14936  1.0000
  H   H125      1.0  0.9404900000000002  0.6800799999999998  0.07118  1.0000
  H   H126      1.0  0.0723599999999999  0.7308899999999998  0.98946  1.0000
  H   H127      1.0  0.47995999999999983  0.8615599999999999  0.8863899999999999  1.0000
  H   H128      1.0  0.29269999999999996  0.61661  0.66409  1.0000
  H   H129      1.0  0.3687099999999999  0.6109799999999999  0.62047  1.0000
  H   H130      1.0  0.46085999999999994  0.7147199999999998  0.65059  1.0000
  H   H131      1.0  0.47214  0.8213999999999998  0.72088  1.0000
  H   H132      1.0  0.39089  0.8179  0.75826  1.0000
  H   H133      1.0  0.26422  0.77558  0.84436  1.0000
  H   H134      1.0  0.47481  0.59378  0.61426  1.0000
  H   H135      1.0  0.4536199999999999  0.6289999999999998  0.8371499999999998  1.0000
  H   H136      1.0  0.49068  0.7485999999999998  0.8798  1.0000
  H   H137      1.0  0.56378  0.81066  0.84929  1.0000
  H   H138      1.0  0.60055  0.7517899999999998  0.77954  1.0000
  H   H139      1.0  0.56057  0.6332  0.7431  1.0000
  H   H140      1.0  0.43161  0.42009  0.6574  1.0000
  H   H141      1.0  0.3609800000000001  0.38655  0.47933  1.0000
  H   H142      1.0  0.11692  0.16456  0.29172  1.0000
  H   H143      1.0  0.11193999999999997  0.12193999999999995  0.3693  1.0000
  H   H144      1.0  0.21549999999999997  0.15227999999999994  0.4613999999999999  1.0000
  H   H145      1.0  0.32191  0.22201  0.47153  1.0000
  H   H146      1.0  0.31775  0.25828  0.38879  1.0000
  H   H147      1.0  0.27461  0.34314  0.26135  1.0000
  H   H148      1.0  0.09371000000000004  0.11432000000000005  0.47324000000000005  1.0000
  H   H149      1.0  0.12921  0.3359  0.454  1.0000
  H   H150      1.0  0.24881000000000003  0.37973  0.49212  1.0000
  H   H151      1.0  0.31055  0.34957  0.56575  1.0000
  H   H152      1.0  0.25087  0.27781  0.60096  1.0000
  H   H153      1.0  0.13212000000000002  0.23970000000000002  0.55942  1.0000
  H   H154      1.0  0.9187600000000001  0.15731999999999996  0.42717000000000005  1.0000
  H   H155      1.0  0.40854999999999997  0.8824899999999998  0.02195  1.0000
  H   H156      1.0  0.37248  0.8268499999999999  0.20843  1.0000
  H   H157      1.0  0.2527  0.7441999999999999  0.13095  1.0000
  H   H158      1.0  0.19120999999999994  0.7551499999999999  0.0381  1.0000
  H   H159      1.0  0.25093  0.85058  0.02665  1.0000
  H   H160      1.0  0.3697499999999999  0.9291299999999998  0.10913  1.0000
  H   H161      1.0  0.58321  0.010970000000000011  0.24277  1.0000
  H   H162      1.0  0.14052999999999996  0.6208399999999998  0.02632  1.0000
  H   H163      1.0  0.38309000000000004  0.67685  0.04819  1.0000
  H   H164      1.0  0.38910000000000006  0.7587199999999998  0.00998  1.0000
  H   H165      1.0  0.28580999999999995  0.7466099999999998  0.93542  1.0000
  H   H166      1.0  0.17909999999999998  0.6507199999999999  0.8986500000000001  1.0000
  H   H167      1.0  0.18217999999999987  0.5730199999999998  0.9400699999999999  1.0000
  H   H168      1.0  0.22316000000000005  0.4883799999999999  0.06836  1.0000
  C   C1        1.0  0.45536000000000004  0.82549  0.43468999999999997  1.0000
  C   C2        1.0  0.42921999999999993  0.8673299999999999  0.42007  1.0000
  C   C3        1.0  0.3894999999999999  0.8800599999999997  0.4442499999999999  1.0000
  C   C4        1.0  0.57774  0.7819099999999998  0.50911  1.0000
  C   C5        1.0  0.63936  0.80641  0.51722  1.0000
  C   C6        1.0  0.3271799999999999  0.6607699999999999  0.4861500000000001  1.0000
  C   C7        1.0  0.28196999999999994  0.6580899999999997  0.50677  1.0000
  C   C8        1.0  0.28883  0.7162099999999999  0.54832  1.0000
  C   C9        1.0  0.3418  0.77513  0.56878  1.0000
  C   C10       1.0  0.3855199999999999  0.7741099999999999  0.54675  1.0000
  C   C11       1.0  0.04438999999999995  0.4741099999999999  0.36595  1.0000
  C   C12       1.0  0.07082999999999998  0.48716999999999994  0.43515  1.0000
  C   C13       1.0  0.10907000000000008  0.55146  0.48792  1.0000
  C   C14       1.0  0.92121  0.43197999999999986  0.21232999999999996  1.0000
  C   C15       1.0  0.87422  0.3951899999999999  0.21891  1.0000
  C   C16       1.0  0.17112  0.65666  0.33285  1.0000
  C   C17       1.0  0.21620999999999999  0.7228199999999999  0.37581  1.0000
  C   C18       1.0  0.20969000000000007  0.75725  0.42762  1.0000
  C   C19       1.0  0.15729  0.7240199999999999  0.43379999999999996  1.0000
  C   C20       1.0  0.11369999999999997  0.6579099999999999  0.38864  1.0000
  C   C21       1.0  0.89021  0.02126  0.06511  1.0000
  C   C22       1.0  0.94661  0.00983  0.07962  1.0000
  C   C23       1.0  0.93533  0.9458999999999999  0.055540000000000006  1.0000
  C   C24       1.0  0.77205  0.06799999999999999  0.98914  1.0000
  C   C25       1.0  0.78831  0.12117  0.9802  1.0000
  C   C26       1.0  0.67502  0.84078  0.014020000000000001  1.0000
  C   C27       1.0  0.65161  0.7748  0.99334  1.0000
  C   C28       1.0  0.66784  0.73998  0.95154  1.0000
  C   C29       1.0  0.7062  0.77255  0.93102  1.0000
  C   C30       1.0  0.72737  0.8384599999999999  0.95316  1.0000
  C   C31       1.0  0.6086499999999999  0.6783199999999998  0.13584  1.0000
  C   C32       1.0  0.55239  0.63532  0.0668  1.0000
  C   C33       1.0  0.5636299999999999  0.62065  0.01388  1.0000
  C   C34       1.0  0.72046  0.70821  0.28879  1.0000
  C   C35       1.0  0.67723  0.65444  0.28211  1.0000
  C   C36       1.0  0.8229599999999998  0.8374599999999999  0.16691  1.0000
  C   C37       1.0  0.84618  0.83963  0.12396999999999998  1.0000
  C   C38       1.0  0.82891  0.7812499999999998  0.07228  1.0000
  C   C39       1.0  0.78944  0.7225700000000002  0.06606  1.0000
  C   C40       1.0  0.76846  0.72411  0.11119999999999998  1.0000
  C   C41       1.0  0.36733999999999994  0.5445599999999999  0.9781599999999999  1.0000
  C   C42       1.0  0.43563  0.57073  0.99035  1.0000
  C   C43       1.0  0.48841  0.6103799999999999  0.054819999999999994  1.0000
  C   C44       1.0  0.20283000000000004  0.42153  0.9306  1.0000
  C   C45       1.0  0.1676799999999999  0.3596099999999999  0.8769599999999999  1.0000
  C   C46       1.0  0.33435999999999994  0.6742199999999999  0.15983  1.0000
  C   C47       1.0  0.37748000000000004  0.7194399999999997  0.22626  1.0000
  C   C48       1.0  0.42835  0.7122499999999998  0.26086  1.0000
  C   C49       1.0  0.43335999999999997  0.6590099999999999  0.22768  1.0000
  C   C50       1.0  0.38803  0.6153  0.16137  1.0000
  C   C51       1.0  0.43062999999999996  0.9565599999999997  0.32338  1.0000
  C   C52       1.0  0.4170499999999999  0.9305999999999996  0.36627  1.0000
  C   C53       1.0  0.4430099999999999  0.8928699999999996  0.38128  1.0000
  C   C54       1.0  0.5120899999999999  0.07987  0.29272  1.0000
  C   C55       1.0  0.5226  0.12794000000000003  0.34584  1.0000
  C   C56       1.0  0.4860599999999999  0.8300899999999998  0.16314  1.0000
  C   C57       1.0  0.50683  0.78515  0.16071  1.0000
  C   C58       1.0  0.54782  0.79184  0.21929000000000004  1.0000
  C   C59       1.0  0.56723  0.8441799999999999  0.27841  1.0000
  C   C60       1.0  0.54497  0.8875999999999997  0.27711  1.0000
  C   C61       1.0  0.13159  0.10839999999999997  0.1738  1.0000
  C   C62       1.0  0.06329  0.051549999999999985  0.13186  1.0000
  C   C63       1.0  0.010619999999999994  0.06249999999999999  0.11770000000000001  1.0000
  C   C64       1.0  0.29734  0.228  0.21686999999999998  1.0000
  C   C65       1.0  0.33446  0.21218  0.19205  1.0000
  C   C66       1.0  0.16736000000000004  0.32389  0.33824  1.0000
  C   C67       1.0  0.12476  0.3467799999999999  0.34094  1.0000
  C   C68       1.0  0.07320000000000004  0.32982  0.28253  1.0000
  C   C69       1.0  0.06696  0.29131  0.22328  1.0000
  C   C70       1.0  0.11182  0.27074  0.22429  1.0000
  C   C71       1.0  0.07021000000000002  0.3909  0.52465  1.0000
  C   C72       1.0  0.08340999999999998  0.44687  0.51187  1.0000
  C   C73       1.0  0.05805000000000001  0.4351  0.44734  1.0000
  C   C74       1.0  0.9893000000000001  0.28001  0.56714  1.0000
  C   C75       1.0  0.97918  0.32316  0.60413  1.0000
  C   C76       1.0  0.014220000000000012  0.17535  0.34114  1.0000
  C   C77       1.0  0.99282  0.15169  0.2746  1.0000
  C   C78       1.0  0.9514500000000001  0.16827999999999999  0.23986999999999997  1.0000
  C   C79       1.0  0.93233  0.20749  0.27319  1.0000
  C   C80       1.0  0.9552799999999999  0.22899  0.33968  1.0000
  C   C81       1.0  0.17663  0.63209  0.60929  1.0000
  C   C82       1.0  0.13471000000000005  0.56367  0.55255  1.0000
  C   C83       1.0  0.12170000000000007  0.51118  0.56426  1.0000
  C   C84       1.0  0.21915  0.79708  0.72758  1.0000
  C   C85       1.0  0.19297  0.83282  0.71035  1.0000
  C   C86       1.0  0.33952000000000016  0.6665600000000002  0.8256600000000001  1.0000
  C   C87       1.0  0.34161  0.62375  0.8489599999999999  1.0000
  C   C88       1.0  0.28330999999999995  0.5722899999999999  0.83188  1.0000
  C   C89       1.0  0.22482  0.56644  0.79294  1.0000
  C   C90       1.0  0.22649  0.61149  0.77201  1.0000
  C   C91       1.0  0.52302  0.5671  0.89263  1.0000
  C   C92       1.0  0.51126  0.58154  0.94933  1.0000
  C   C93       1.0  0.44728  0.55644  0.93776  1.0000
  C   C94       1.0  0.5699  0.49154  0.77375  1.0000
  C   C95       1.0  0.62302  0.483  0.79032  1.0000
  C   C96       1.0  0.34315  0.5149699999999999  0.67615  1.0000
  C   C97       1.0  0.27726999999999996  0.49376999999999993  0.65276  1.0000
  C   C98       1.0  0.24295999999999995  0.45245999999999986  0.66989  1.0000
  C   C99       1.0  0.27579000000000004  0.4326900000000001  0.70889  1.0000
  C   C100      1.0  0.34153  0.45515  0.72977  1.0000
  C   C101      1.0  0.97491  0.86581  0.04356  1.0000
  C   C102      1.0  0.98755  0.9344599999999998  0.06913  1.0000
  C   C103      1.0  0.05152000000000004  0.98749  0.10719999999999999  1.0000
  C   C104      1.0  0.9321900000000001  0.71191  0.9197  1.0000
  C   C105      1.0  0.89474  0.7171899999999998  0.87181  1.0000
  C   C106      1.0  0.15670999999999996  0.8337799999999999  0.17137  1.0000
  C   C107      1.0  0.2227500000000001  0.87664  0.21658999999999998  1.0000
  C   C108      1.0  0.2572  0.92795  0.20954  1.0000
  C   C109      1.0  0.22416  0.93383  0.15656  1.0000
  C   C110      1.0  0.15816999999999998  0.8887699999999998  0.11284999999999999  1.0000
  C   C111      1.0  0.32097999999999993  0.9313199999999998  0.45563999999999993  1.0000
  C   C112      1.0  0.36373999999999995  0.9180799999999999  0.42993  1.0000
  C   C113      1.0  0.37762  0.9431599999999999  0.39082  1.0000
  C   C114      1.0  0.29116  0.012420000000000002  0.57941  1.0000
  C   C115      1.0  0.34424  0.022580000000000003  0.62706  1.0000
  C   C116      1.0  0.16182999999999986  0.9865399999999999  0.32742  1.0000
  C   C117      1.0  0.15934  0.007319999999999992  0.28196  1.0000
  C   C118      1.0  0.21745  0.048819999999999995  0.2888  1.0000
  C   C119      1.0  0.27615  0.06861999999999996  0.34172  1.0000
  C   C120      1.0  0.27493  0.04622999999999996  0.38556  1.0000
  C   C121      1.0  0.04407  0.56833  0.17675  1.0000
  C   C122      1.0  0.07026000000000006  0.58216  0.13417  1.0000
  C   C123      1.0  0.10805000000000003  0.55628  0.11948  1.0000
  C   C124      1.0  0.92127  0.4875199999999999  0.20787  1.0000
  C   C125      1.0  0.8730700000000001  0.47718999999999995  0.15496  1.0000
  C   C126      1.0  0.17098999999999998  0.5130099999999999  0.33741  1.0000
  C   C127      1.0  0.21606000000000006  0.4924699999999999  0.34003  1.0000
  C   C128      1.0  0.20945  0.45144  0.28156  1.0000
  C   C129      1.0  0.15702999999999998  0.43175999999999987  0.22237  1.0000
  C   C130      1.0  0.11351000000000003  0.45383  0.2235  1.0000
  C   C131      1.0  0.45613000000000004  0.63298  0.52373  1.0000
  C   C132      1.0  0.43005000000000004  0.5644399999999999  0.51157  1.0000
  C   C133      1.0  0.39102  0.5115599999999999  0.44708  1.0000
  C   C134      1.0  0.579  0.7973  0.56975  1.0000
  C   C135      1.0  0.6414200000000001  0.83209  0.62226  1.0000
  C   C136      1.0  0.32631  0.66654  0.34156  1.0000
  C   C137      1.0  0.28121  0.62361  0.27508  1.0000
  C   C138      1.0  0.28818000000000005  0.57259  0.24036  1.0000
  C   C139      1.0  0.34116  0.56728  0.27349  1.0000
  C   C140      1.0  0.38472  0.61238  0.33989  1.0000
  C   C141      1.0  0.60933  0.93256  0.9764100000000001  1.0000
  C   C142      1.0  0.55334  0.9186299999999998  0.98893  1.0000
  C   C143      1.0  0.56506  0.9434  0.053489999999999996  1.0000
  C   C144      1.0  0.72688  0.008329999999999933  0.9288099999999999  1.0000
  C   C145      1.0  0.70974  0.017949999999999966  0.87591  1.0000
  C   C146      1.0  0.82411  0.98413  0.15748  1.0000
  C   C147      1.0  0.84746  0.005339999999999999  0.22393  1.0000
  C   C148      1.0  0.8312600000000001  0.04717  0.25858  1.0000
  C   C149      1.0  0.79319  0.06734999999999998  0.22544999999999998  1.0000
  C   C150      1.0  0.7721099999999997  0.04471  0.15909  1.0000
  C   C151      1.0  0.8917900000000001  0.8669999999999999  0.32325  1.0000
  C   C152      1.0  0.94803  0.9358  0.36555  1.0000
  C   C153      1.0  0.9367400000000002  0.9883099999999999  0.37938  1.0000
  C   C154      1.0  0.78027  0.71283  0.29305  1.0000
  C   C155      1.0  0.82301  0.71777  0.34605  1.0000
  C   C156      1.0  0.6764500000000002  0.8330699999999999  0.1632  1.0000
  C   C157      1.0  0.65338  0.8756199999999998  0.16046  1.0000
  C   C158      1.0  0.67073  0.9274899999999999  0.21887  1.0000
  C   C159      1.0  0.71009  0.93422  0.27813  1.0000
  C   C160      1.0  0.73099  0.8894799999999998  0.27715  1.0000
  C   C161      1.0  0.13331  0.025209999999999982  0.45554  1.0000
  C   C162      1.0  0.06477  0.012349999999999986  0.4295  1.0000
  C   C163      1.0  0.012109999999999971  0.9480899999999998  0.39078  1.0000
  C   C164      1.0  0.28702999999999995  0.06807999999999999  0.57961  1.0000
  C   C165      1.0  0.28212  0.10558000000000001  0.62775  1.0000
  C   C166      1.0  0.16577999999999996  0.8431199999999998  0.32796  1.0000
  C   C167      1.0  0.12322999999999995  0.77684  0.28307  1.0000
  C   C168      1.0  0.07217  0.7423  0.29026  1.0000
  C   C169      1.0  0.06622999999999997  0.7755599999999999  0.34301  1.0000
  C   C170      1.0  0.11091999999999992  0.8417999999999998  0.38635  1.0000
  C   C171      1.0  0.06937  0.67824  0.04434  1.0000
  C   C172      1.0  0.08288  0.63568  0.07049  1.0000
  C   C173      1.0  0.05766999999999998  0.62161  0.10938999999999999  1.0000
  C   C174      1.0  0.9875899999999999  0.7075599999999997  0.91982  1.0000
  C   C175      1.0  0.97719  0.6543699999999999  0.87206  1.0000
  C   C176      1.0  0.014099999999999998  0.83776  0.17142  1.0000
  C   C177      1.0  0.9933900000000001  0.84017  0.21680999999999997  1.0000
  C   C178      1.0  0.9520499999999998  0.78189  0.20998999999999998  1.0000
  C   C179      1.0  0.9321299999999999  0.7231  0.15704  1.0000
  C   C180      1.0  0.9543799999999999  0.72438  0.11320999999999999  1.0000
  C   C181      1.0  0.36831  0.8248099999999998  0.89149  1.0000
  C   C182      1.0  0.43677  0.86697  0.9481099999999999  1.0000
  C   C183      1.0  0.4891499999999999  0.8804999999999997  0.93644  1.0000
  C   C184      1.0  0.20331  0.78124  0.77177  1.0000
  C   C185      1.0  0.16608999999999996  0.8058999999999998  0.78731  1.0000
  C   C186      1.0  0.33335  0.6603  0.6752  1.0000
  C   C187      1.0  0.37578  0.65779  0.65172  1.0000
  C   C188      1.0  0.42718999999999996  0.7159899999999999  0.66845  1.0000
  C   C189      1.0  0.43332  0.77481  0.70719  1.0000
  C   C190      1.0  0.38863  0.77359  0.72831  1.0000
  C   C191      1.0  0.43379  0.47696999999999995  0.60984  1.0000
  C   C192      1.0  0.41922  0.48875  0.55294  1.0000
  C   C193      1.0  0.44412  0.55282  0.56427  1.0000
  C   C194      1.0  0.51009  0.43153999999999987  0.72937  1.0000
  C   C195      1.0  0.51849  0.37828  0.71288  1.0000
  C   C196      1.0  0.4859999999999999  0.6585899999999998  0.8258999999999999  1.0000
  C   C197      1.0  0.5064599999999999  0.7244599999999999  0.84885  1.0000
  C   C198      1.0  0.54762  0.7591599999999998  0.83187  1.0000
  C   C199      1.0  0.56793  0.7266499999999998  0.79345  1.0000
  C   C200      1.0  0.5461  0.6608599999999999  0.77285  1.0000
  C   C201      1.0  0.32381  0.39065  0.36648  1.0000
  C   C202      1.0  0.36604  0.44743999999999995  0.43528  1.0000
  C   C203      1.0  0.38025  0.4362999999999999  0.48841  1.0000
  C   C204      1.0  0.28212999999999994  0.27224  0.20111999999999997  1.0000
  C   C205      1.0  0.30835  0.28956999999999994  0.1652  1.0000
  C   C206      1.0  0.16064  0.17566999999999997  0.33237  1.0000
  C   C207      1.0  0.15848000000000004  0.15279  0.37565  1.0000
  C   C208      1.0  0.21675  0.16975  0.42717000000000005  1.0000
  C   C209      1.0  0.27527  0.20802999999999994  0.43257  1.0000
  C   C210      1.0  0.2737  0.22853999999999994  0.38703  1.0000
  C   C211      1.0  0.97648  0.10855999999999995  0.43137  1.0000
  C   C212      1.0  0.98898  0.05266999999999998  0.41789999999999994  1.0000
  C   C213      1.0  0.05296  0.06445000000000001  0.44297  1.0000
  C   C214      1.0  0.93359  0.2197  0.51127  1.0000
  C   C215      1.0  0.8957799999999995  0.17705999999999997  0.5215  1.0000
  C   C216      1.0  0.15858999999999998  0.32466999999999996  0.48649999999999993  1.0000
  C   C217      1.0  0.22450000000000003  0.3483  0.50757  1.0000
  C   C218      1.0  0.2589699999999999  0.3313999999999999  0.54895  1.0000
  C   C219      1.0  0.22602000000000003  0.29196  0.56843  1.0000
  C   C220      1.0  0.16013000000000002  0.27052  0.54581  1.0000
  C   C221      1.0  0.5256199999999999  0.9564699999999999  0.13468  1.0000
  C   C222      1.0  0.5130899999999999  0.9304499999999998  0.06561  1.0000
  C   C223      1.0  0.44899000000000006  0.8923299999999997  0.0127  1.0000
  C   C224      1.0  0.56757  0.08006  0.28843  1.0000
  C   C225      1.0  0.60483  0.12742  0.2825  1.0000
  C   C226      1.0  0.3431099999999999  0.8295399999999997  0.1673  1.0000
  C   C227      1.0  0.27719  0.78409  0.12411  1.0000
  C   C228      1.0  0.24280999999999994  0.79053  0.07212  1.0000
  C   C229      1.0  0.27579  0.8432299999999998  0.06605  1.0000
  C   C230      1.0  0.3416699999999999  0.8871799999999997  0.11144999999999998  1.0000
  C   C231      1.0  0.17532  0.54393  0.06639  1.0000
  C   C232      1.0  0.13367999999999997  0.5702699999999999  0.08089  1.0000
  C   C233      1.0  0.12098000000000002  0.61003  0.056510000000000005  1.0000
  C   C234      1.0  0.21826  0.4216  0.99071  1.0000
  C   C235      1.0  0.19404000000000005  0.35970000000000013  0.9822900000000001  1.0000
  C   C236      1.0  0.33959  0.67365  0.015249999999999998  1.0000
  C   C237      1.0  0.34232  0.71866  0.9941  1.0000
  C   C238      1.0  0.28434  0.7115899999999998  0.9521300000000001  1.0000
  C   C239      1.0  0.22553000000000006  0.6586499999999998  0.9318400000000001  1.0000
  C   C240      1.0  0.22651999999999997  0.6151799999999998  0.95447  1.0000
  N   N1        1.0  0.37805  0.71779  0.50548  1.0000
  N   N2        1.0  0.12069000000000002  0.6244799999999999  0.3391  1.0000
  N   N3        1.0  0.71252  0.87235  0.9945299999999999  1.0000
  N   N4        1.0  0.78464  0.78069  0.16076  1.0000
  N   N5        1.0  0.33955000000000013  0.62306  0.12767  1.0000
  N   N6        1.0  0.50463  0.8805299999999999  0.22032  1.0000
  N   N7        1.0  0.161  0.28623  0.28089  1.0000
  N   N8        1.0  0.9959900000000004  0.21354  0.37341  1.0000
  N   N9        1.0  0.28294  0.66053  0.78753  1.0000
  N   N10       1.0  0.37498  0.4962399999999999  0.71426  1.0000
  N   N11       1.0  0.12474999999999997  0.8396599999999999  0.12032  1.0000
  N   N12       1.0  0.21860999999999997  0.005459999999999984  0.37841  1.0000
  N   N13       1.0  0.1205  0.4942599999999999  0.28017  1.0000
  N   N14       1.0  0.37715  0.66098  0.37372  1.0000
  N   N15       1.0  0.78677  0.0031800000000000005  0.12535  1.0000
  N   N16       1.0  0.71476  0.8397799999999997  0.22052  1.0000
  N   N17       1.0  0.15980999999999998  0.8752999999999999  0.37878  1.0000
  N   N18       1.0  0.9951400000000002  0.78086  0.12046  1.0000
  N   N19       1.0  0.33971  0.71722  0.71319  1.0000
  N   N20       1.0  0.50513  0.6270299999999999  0.7882  1.0000
  N   N21       1.0  0.21728999999999993  0.21322  0.338  1.0000
  N   N22       1.0  0.12666  0.28625  0.50507  1.0000
  N   N23       1.0  0.3750800000000001  0.88022  0.1611  1.0000
  N   N24       1.0  0.2826900000000001  0.62285  0.99613  1.0000
  O   O1        1.0  0.4380899999999999  0.80125  0.46745999999999993  1.0000
  O   O2        1.0  0.49221  0.81549  0.41248  1.0000
  O   O3        1.0  0.5197799999999999  0.7452399999999998  0.45045999999999997  1.0000
  O   O4        1.0  0.6784800000000001  0.8162399999999999  0.49949  1.0000
  O   O5        1.0  0.058510000000000006  0.52411  0.35877  1.0000
  O   O6        1.0  0.010879999999999963  0.4149599999999999  0.31933  1.0000
  O   O7        1.0  0.97533  0.42439999999999994  0.21802999999999997  1.0000
  O   O8        1.0  0.83169  0.36249  0.22361  1.0000
  O   O9        1.0  0.83345  0.97101  0.03184  1.0000
  O   O10       1.0  0.90231  0.08038  0.08767  1.0000
  O   O11       1.0  0.79398  0.06918999999999999  0.04815  1.0000
  O   O12       1.0  0.8157699999999998  0.17793999999999988  0.99726  1.0000
  O   O13       1.0  0.6654800000000001  0.6989899999999998  0.14261  1.0000
  O   O14       1.0  0.59655  0.6922399999999999  0.18271  1.0000
  O   O15       1.0  0.7072999999999999  0.7568999999999998  0.28339  1.0000
  O   O16       1.0  0.63987  0.60702  0.27723  1.0000
  O   O17       1.0  0.3607  0.56155  0.02846  1.0000
  O   O18       1.0  0.32031000000000004  0.50792  0.91861  1.0000
  O   O19       1.0  0.22199000000000005  0.47885000000000005  0.9288400000000001  1.0000
  O   O20       1.0  0.1399  0.32062999999999997  0.8197800000000001  1.0000
  O   O21       1.0  0.46639999999999987  0.9423799999999998  0.30226  1.0000
  O   O22       1.0  0.4051  0.9896699999999998  0.30984  1.0000
  O   O23       1.0  0.4502  0.024799999999999985  0.24431999999999998  1.0000
  O   O24       1.0  0.53274  0.17151  0.3926  1.0000
  O   O25       1.0  0.13825000000000007  0.16509  0.19682  1.0000
  O   O26       1.0  0.17877999999999994  0.09692999999999999  0.18488  1.0000
  O   O27       1.0  0.27689  0.20630999999999994  0.25418  1.0000
  O   O28       1.0  0.36384  0.18508999999999998  0.18196  1.0000
  O   O29       1.0  0.03465999999999997  0.33369999999999994  0.4742199999999999  1.0000
  O   O30       1.0  0.0957  0.4037  0.58409  1.0000
  O   O31       1.0  0.05110000000000003  0.2936099999999999  0.57467  1.0000
  O   O32       1.0  0.96934  0.36029  0.637  1.0000
  O   O33       1.0  0.20012  0.63893  0.66644  1.0000
  O   O34       1.0  0.18729000000000004  0.67928  0.59735  1.0000
  O   O35       1.0  0.25679  0.77789  0.70644  1.0000
  O   O36       1.0  0.18178999999999998  0.8616499999999998  0.68257  1.0000
  O   O37       1.0  0.47303000000000006  0.53407  0.83546  1.0000
  O   O38       1.0  0.58203  0.5895  0.90475  1.0000
  O   O39       1.0  0.5716700000000002  0.55036  0.79561  1.0000
  O   O40       1.0  0.6796100000000002  0.50015  0.81797  1.0000
  O   O41       1.0  0.024940000000000007  0.85915  0.057839999999999996  1.0000
  O   O42       1.0  0.91598  0.81913  0.01048  1.0000
  O   O43       1.0  0.92504  0.71837  0.9747499999999999  1.0000
  O   O44       1.0  0.8611500000000001  0.7206599999999999  0.8286  1.0000
  O   O45       1.0  0.29995999999999995  0.9669999999999997  0.44097  1.0000
  O   O46       1.0  0.30768999999999996  0.9057599999999998  0.48918  1.0000
  O   O47       1.0  0.24255999999999997  0.9503999999999998  0.52433  1.0000
  O   O48       1.0  0.39091000000000004  0.03219000000000001  0.67017  1.0000
  O   O49       1.0  0.05785999999999997  0.5321799999999999  0.19776  1.0000
  O   O50       1.0  0.011079999999999982  0.5939799999999998  0.19011  1.0000
  O   O51       1.0  0.97607  0.5497  0.25625  1.0000
  O   O52       1.0  0.82959  0.46763  0.10855  1.0000
  O   O53       1.0  0.43878000000000006  0.6395500000000001  0.47331000000000006  1.0000
  O   O54       1.0  0.49295999999999995  0.6801299999999998  0.58314  1.0000
  O   O55       1.0  0.52204  0.7785199999999999  0.57211  1.0000
  O   O56       1.0  0.68279  0.85954  0.67845  1.0000
  O   O57       1.0  0.6662800000000001  0.96545  0.026550000000000004  1.0000
  O   O58       1.0  0.59678  0.9101099999999999  0.91685  1.0000
  O   O59       1.0  0.7053400000000001  0.94911  0.92688  1.0000
  O   O60       1.0  0.68165  0.002509999999999995  0.8194199999999999  1.0000
  O   O61       1.0  0.83484  0.8598999999999999  0.30217  1.0000
  O   O62       1.0  0.90388  0.8204199999999999  0.31006  1.0000
  O   O63       1.0  0.7936900000000001  0.7195599999999999  0.24452  1.0000
  O   O64       1.0  0.85983  0.7207099999999997  0.39252  1.0000
  O   O65       1.0  0.14014  0.97519  0.44053  1.0000
  O   O66       1.0  0.17990000000000006  0.08438  0.48961  1.0000
  O   O67       1.0  0.28031  0.07526999999999999  0.5245  1.0000
  O   O68       1.0  0.27916  0.13912  0.67138  1.0000
  O   O69       1.0  0.03347999999999992  0.6990399999999998  0.05851  1.0000
  O   O70       1.0  0.09481000000000005  0.6915  0.01076  1.0000
  O   O71       1.0  0.04958000000000001  0.75611  0.97487  1.0000
  O   O72       1.0  0.9673200000000001  0.6075499999999999  0.82887  1.0000
  O   O73       1.0  0.36137  0.8008399999999999  0.8343300000000001  1.0000
  O   O74       1.0  0.32139000000000006  0.8144099999999997  0.90353  1.0000
  O   O75       1.0  0.22294999999999998  0.7439799999999999  0.79366  1.0000
  O   O76       1.0  0.13650999999999994  0.8165099999999998  0.8141199999999998  1.0000
  O   O77       1.0  0.46821  0.5273  0.66699  1.0000
  O   O78       1.0  0.41023999999999994  0.4178999999999999  0.5979  1.0000
  O   O79       1.0  0.45132  0.4297799999999999  0.70816  1.0000
  O   O80       1.0  0.50162  0.3216299999999999  0.68576  1.0000
  O   O81       1.0  0.30122  0.3338899999999999  0.36  1.0000
  O   O82       1.0  0.3122599999999999  0.40231999999999996  0.31896  1.0000
  O   O83       1.0  0.24397  0.29285  0.22019000000000002  1.0000
  O   O84       1.0  0.32024  0.31728  0.13646  1.0000
  O   O85       1.0  0.02654999999999998  0.16586999999999993  0.4662  1.0000
  O   O86       1.0  0.9175000000000001  0.09568999999999996  0.40662999999999994  1.0000
  O   O87       1.0  0.92648  0.20538999999999993  0.44891  1.0000
  O   O88       1.0  0.8619199999999998  0.14023  0.53106  1.0000
  O   O89       1.0  0.4755  0.94257  0.14139  1.0000
  O   O90       1.0  0.5844599999999999  0.9894299999999996  0.1817  1.0000
  O   O91       1.0  0.57493  0.025710000000000007  0.28276  1.0000
  O   O92       1.0  0.63817  0.17026  0.27851  1.0000
  O   O93       1.0  0.19934000000000002  0.56123  0.03349  1.0000
  O   O94       1.0  0.18518  0.50689  0.08853  1.0000
  O   O95       1.0  0.255  0.47899  0.049929999999999995  1.0000
  O   O96       1.0  0.1837499999999999  0.3197899999999999  0.9990299999999999  1.0000
