data_image0
_chemical_formula_structural       Cd28H128C240N24O96
_chemical_formula_sum              "Cd28 H128 C240 N24 O96"
_cell_length_a       18.32479
_cell_length_b       22.603700000000003
_cell_length_c       26.03952
_cell_angle_alpha    89.96441
_cell_angle_beta     91.33252999999999
_cell_angle_gamma    89.85758

_symmetry_space_group_name_H-M    'P 1'
_symmetry_Int_Tables_number       1

loop_
  _symmetry_equiv_pos_as_xyz
  'x,y,z'

loop_
  _atom_site_type_symbol
  _atom_site_label
  _atom_site_symmetry_multiplicity
  _atom_site_fract_x
  _atom_site_fract_y
  _atom_site_fract_z
  _atom_site_occupancy
  Cd  Cd1       1.0  0.64585  0.55754  0.40444000000000013  1.0000
  Cd  Cd2       1.0  0.74584  0.64766  0.49427  1.0000
  Cd  Cd3       1.0  0.8422  0.57197  0.59381  1.0000
  Cd  Cd4       1.0  0.49129  0.87621  0.74614  1.0000
  Cd  Cd5       1.0  0.85213  0.31528  0.09356  1.0000
  Cd  Cd6       1.0  0.74758  0.39774  0.00299  1.0000
  Cd  Cd7       1.0  0.84443  0.8132500000000001  0.0969  1.0000
  Cd  Cd8       1.0  0.85535  0.05738  0.59536  1.0000
  Cd  Cd9       1.0  0.75424  0.14826  0.50616  1.0000
  Cd  Cd10      1.0  0.65652  0.07147  0.40558  1.0000
  Cd  Cd11      1.0  0.00814  0.37849000000000005  0.25218  1.0000
  Cd  Cd12      1.0  0.64937  0.81565  0.90565  1.0000
  Cd  Cd13      1.0  0.75391  0.89793  0.9970600000000001  1.0000
  Cd  Cd14      1.0  0.65409  0.31281  0.90347  1.0000
  Cd  Cd15      1.0  0.3539  0.44246  0.59553  1.0000
  Cd  Cd16      1.0  0.25404999999999994  0.35238  0.50552  1.0000
  Cd  Cd17      1.0  0.15724  0.4285399999999999  0.40584  1.0000
  Cd  Cd18      1.0  0.5086900000000001  0.12424000000000002  0.25389  1.0000
  Cd  Cd19      1.0  0.14747  0.68514  0.90664  1.0000
  Cd  Cd20      1.0  0.25258  0.60259  0.99696  1.0000
  Cd  Cd21      1.0  0.15584  0.18664  0.9031000000000001  1.0000
  Cd  Cd22      1.0  0.14456  0.94274  0.40463  1.0000
  Cd  Cd23      1.0  0.24566000000000002  0.85142  0.49409000000000003  1.0000
  Cd  Cd24      1.0  0.34312  0.92828  0.59449  1.0000
  Cd  Cd25      1.0  0.9937500000000001  0.62129  0.7500500000000001  1.0000
  Cd  Cd26      1.0  0.35049000000000013  0.18475  0.09452  1.0000
  Cd  Cd27      1.0  0.24648000000000003  0.10232  0.0029800000000000004  1.0000
  Cd  Cd28      1.0  0.346  0.68728  0.09651  1.0000
  H   H1        1.0  0.6424500000000001  0.56663  0.22158000000000003  1.0000
  H   H2        1.0  0.6790100000000001  0.53096  0.13404  1.0000
  H   H3        1.0  0.74797  0.36561  0.20017  1.0000
  H   H4        1.0  0.71541  0.40274  0.28821  1.0000
  H   H5        1.0  0.74211  0.61752  0.29956  1.0000
  H   H6        1.0  0.77564  0.65573  0.21237  1.0000
  H   H7        1.0  0.84639  0.81915  0.28007  1.0000
  H   H8        1.0  0.81456  0.7810300000000001  0.36769  1.0000
  H   H9        1.0  0.45602000000000004  0.70464  0.41645  1.0000
  H   H10       1.0  0.38945  0.7899999999999999  0.45493  1.0000
  H   H11       1.0  0.52827  0.77951  0.59009  1.0000
  H   H12       1.0  0.59541  0.69427  0.55125  1.0000
  H   H13       1.0  0.68099  0.8004  0.60989  1.0000
  H   H14       1.0  0.63276  0.85035  0.6876500000000001  1.0000
  H   H15       1.0  0.67045  0.6908  0.77551  1.0000
  H   H16       1.0  0.71852  0.64156  0.69688  1.0000
  H   H17       1.0  0.04206  0.46179000000000003  0.0854  1.0000
  H   H18       1.0  0.8940400000000001  0.45269  0.9552900000000001  1.0000
  H   H19       1.0  0.8117  0.43670999999999993  0.72223  1.0000
  H   H20       1.0  0.7669200000000002  0.3883400000000001  0.80244  1.0000
  H   H21       1.0  0.8130100000000001  0.54693  0.88771  1.0000
  H   H22       1.0  0.85744  0.59603  0.8083500000000001  1.0000
  H   H23       1.0  0.4563900000000001  0.45097  0.91951  1.0000
  H   H24       1.0  0.61097  0.46207  0.04604  1.0000
  H   H25       1.0  0.65929  0.39673  0.43277  1.0000
  H   H26       1.0  0.69731  0.30401  0.47959  1.0000
  H   H27       1.0  0.7764100000000002  0.3075  0.5567  1.0000
  H   H28       1.0  0.82425  0.40358  0.59137  1.0000
  H   H29       1.0  0.6845900000000001  0.15112  0.9159  1.0000
  H   H30       1.0  0.73363  0.05566999999999999  0.95285  1.0000
  H   H31       1.0  0.8113800000000001  0.054619999999999995  0.03085  1.0000
  H   H32       1.0  0.84722  0.14816  0.07571  1.0000
  H   H33       1.0  0.8570000000000002  0.06595  0.77809  1.0000
  H   H34       1.0  0.82118  0.02987  0.8657000000000001  1.0000
  H   H35       1.0  0.75293  0.86484  0.79917  1.0000
  H   H36       1.0  0.78498  0.9023399999999999  0.71124  1.0000
  H   H37       1.0  0.75775  0.11776999999999999  0.70107  1.0000
  H   H38       1.0  0.72337  0.15579  0.78826  1.0000
  H   H39       1.0  0.65246  0.31951  0.7205  1.0000
  H   H40       1.0  0.68448  0.28147  0.63288  1.0000
  H   H41       1.0  0.04466  0.20373  0.584  1.0000
  H   H42       1.0  0.11037  0.28986  0.54653  1.0000
  H   H43       1.0  0.9720300000000001  0.28031  0.41082  1.0000
  H   H44       1.0  0.90581  0.19453000000000004  0.4492  1.0000
  H   H45       1.0  0.81995  0.30016  0.39047  1.0000
  H   H46       1.0  0.86722  0.35095  0.31296  1.0000
  H   H47       1.0  0.82999  0.19195000000000004  0.22433  1.0000
  H   H48       1.0  0.7828300000000002  0.14241  0.3027  1.0000
  H   H49       1.0  0.45985000000000004  0.96302  0.9138800000000002  1.0000
  H   H50       1.0  0.6067  0.95385  0.04469  1.0000
  H   H51       1.0  0.68894  0.93563  0.27672  1.0000
  H   H52       1.0  0.73259  0.88767  0.19626  1.0000
  H   H53       1.0  0.68731  0.04768  0.11211  1.0000
  H   H54       1.0  0.6441900000000002  0.09644  0.19203  1.0000
  H   H55       1.0  0.04325  0.9519299999999999  0.0812  1.0000
  H   H56       1.0  0.8888200000000002  0.96247  0.95451  1.0000
  H   H57       1.0  0.84099  0.8968000000000002  0.56733  1.0000
  H   H58       1.0  0.8027800000000003  0.80427  0.52051  1.0000
  H   H59       1.0  0.7236000000000001  0.80823  0.44343000000000005  1.0000
  H   H60       1.0  0.67575  0.90475  0.4088800000000001  1.0000
  H   H61       1.0  0.81567  0.65113  0.08419  1.0000
  H   H62       1.0  0.7664  0.55585  0.04737  1.0000
  H   H63       1.0  0.68889  0.55514  0.96925  1.0000
  H   H64       1.0  0.65353  0.64882  0.92409  1.0000
  H   H65       1.0  0.35625000000000007  0.4336  0.7780600000000001  1.0000
  H   H66       1.0  0.32108  0.46938  0.86584  1.0000
  H   H67       1.0  0.25219  0.63495  0.8001600000000001  1.0000
  H   H68       1.0  0.28363  0.59792  0.71192  1.0000
  H   H69       1.0  0.25776  0.38251  0.70026  1.0000
  H   H70       1.0  0.22444000000000003  0.34432  0.78752  1.0000
  H   H71       1.0  0.15386  0.1808  0.72  1.0000
  H   H72       1.0  0.18523  0.21888000000000002  0.6323  1.0000
  H   H73       1.0  0.5439  0.29543  0.58359  1.0000
  H   H74       1.0  0.61051  0.21016000000000004  0.54514  1.0000
  H   H75       1.0  0.47167  0.22065  0.40996  1.0000
  H   H76       1.0  0.4045700000000001  0.30585  0.44878  1.0000
  H   H77       1.0  0.31884  0.19980000000000003  0.39019000000000004  1.0000
  H   H78       1.0  0.36727  0.14976  0.31248  1.0000
  H   H79       1.0  0.3298  0.30914  0.22452  1.0000
  H   H80       1.0  0.28141  0.35848  0.30299  1.0000
  H   H81       1.0  0.9578600000000002  0.53819  0.91463  1.0000
  H   H82       1.0  0.10597  0.54729  0.04475  1.0000
  H   H83       1.0  0.18927  0.56461  0.27742  1.0000
  H   H84       1.0  0.23348  0.61242  0.19682  1.0000
  H   H85       1.0  0.18709000000000006  0.45321  0.11246000000000002  1.0000
  H   H86       1.0  0.1438  0.40452000000000005  0.19233  1.0000
  H   H87       1.0  0.54366  0.54905  0.08054  1.0000
  H   H88       1.0  0.38907  0.53796  0.95402  1.0000
  H   H89       1.0  0.34053  0.60316  0.5672  1.0000
  H   H90       1.0  0.30261  0.69591  0.5204  1.0000
  H   H91       1.0  0.22361  0.69252  0.44325  1.0000
  H   H92       1.0  0.17579  0.59645  0.40848000000000007  1.0000
  H   H93       1.0  0.31545  0.84899  0.08415  1.0000
  H   H94       1.0  0.26634  0.94442  0.04716000000000001  1.0000
  H   H95       1.0  0.18861000000000003  0.9454300000000001  0.96916  1.0000
  H   H96       1.0  0.15280000000000002  0.85181  0.92431  1.0000
  H   H97       1.0  0.14308000000000004  0.93426  0.222  1.0000
  H   H98       1.0  0.17870000000000005  0.97028  0.1343  1.0000
  H   H99       1.0  0.24701  0.13541  0.2007  1.0000
  H   H100      1.0  0.21529  0.09783  0.28872  1.0000
  H   H101      1.0  0.2425  0.8823  0.29896  1.0000
  H   H102      1.0  0.27656  0.8442  0.21174  1.0000
  H   H103      1.0  0.34737  0.68044  0.27944  1.0000
  H   H104      1.0  0.31564  0.71852  0.36709  1.0000
  H   H105      1.0  0.9553600000000002  0.7964  0.41587  1.0000
  H   H106      1.0  0.88965  0.71019  0.45334  1.0000
  H   H107      1.0  0.02794  0.71974  0.58909  1.0000
  H   H108      1.0  0.09416  0.8055399999999999  0.55068  1.0000
  H   H109      1.0  0.17915  0.69905  0.61074  1.0000
  H   H110      1.0  0.13282  0.64945  0.68904  1.0000
  H   H111      1.0  0.17067  0.80929  0.7760000000000001  1.0000
  H   H112      1.0  0.21725999999999998  0.85815  0.6969500000000001  1.0000
  H   H113      1.0  0.53973  0.03725  0.08627  1.0000
  H   H114      1.0  0.39286  0.04653  0.95533  1.0000
  H   H115      1.0  0.3110000000000001  0.06427  0.7232900000000001  1.0000
  H   H116      1.0  0.26725  0.11222  0.80379  1.0000
  H   H117      1.0  0.31245  0.9521  0.8878300000000001  1.0000
  H   H118      1.0  0.35565  0.90347  0.8079500000000001  1.0000
  H   H119      1.0  0.9567700000000001  0.04804  0.91871  1.0000
  H   H120      1.0  0.11123000000000001  0.0375  0.04538  1.0000
  H   H121      1.0  0.15902  0.10316999999999998  0.4327  1.0000
  H   H122      1.0  0.19725000000000004  0.1957  0.4794800000000001  1.0000
  H   H123      1.0  0.27643000000000006  0.19176  0.55654  1.0000
  H   H124      1.0  0.32422  0.09526  0.59115  1.0000
  H   H125      1.0  0.18433  0.34896  0.91577  1.0000
  H   H126      1.0  0.23363000000000003  0.44423  0.95261  1.0000
  H   H127      1.0  0.31115  0.44494  0.03072  1.0000
  H   H128      1.0  0.34641  0.35121  0.07591  1.0000
  C   C1        1.0  0.6577300000000001  0.5083  0.31171  1.0000
  C   C2        1.0  0.6768500000000001  0.4863799999999999  0.25952  1.0000
  C   C3        1.0  0.66637  0.523  0.21633  1.0000
  C   C4        1.0  0.6864  0.50324  0.16795  1.0000
  C   C5        1.0  0.71582  0.44625  0.16238  1.0000
  C   C6        1.0  0.72609  0.40979  0.20563  1.0000
  C   C7        1.0  0.70743  0.42987  0.25401  1.0000
  C   C8        1.0  0.7344100000000001  0.42298  0.1109  1.0000
  C   C9        1.0  0.76024  0.67429  0.39076  1.0000
  C   C10       1.0  0.77715  0.69686  0.33867  1.0000
  C   C11       1.0  0.76606  0.66114  0.29508  1.0000
  C   C12       1.0  0.78398  0.6824  0.24674000000000001  1.0000
  C   C13       1.0  0.8127800000000001  0.73946  0.2415  1.0000
  C   C14       1.0  0.8238000000000001  0.77516  0.28512  1.0000
  C   C15       1.0  0.80617  0.7540500000000001  0.33346000000000003  1.0000
  C   C16       1.0  0.82951  0.76352  0.18959  1.0000
  C   C17       1.0  0.57109  0.64464  0.45853  1.0000
  C   C18       1.0  0.52975  0.69466  0.48156  1.0000
  C   C19       1.0  0.47146  0.72139  0.45432  1.0000
  C   C20       1.0  0.43475  0.76905  0.47569  1.0000
  C   C21       1.0  0.45582999999999996  0.78994  0.52464  1.0000
  C   C22       1.0  0.51332  0.7626500000000002  0.5522  1.0000
  C   C23       1.0  0.55022  0.71537  0.53067  1.0000
  C   C24       1.0  0.41803  0.84136  0.54711  1.0000
  C   C25       1.0  0.73014  0.68545  0.60295  1.0000
  C   C26       1.0  0.7020400000000001  0.71791  0.64907  1.0000
  C   C27       1.0  0.67735  0.77672  0.64619  1.0000
  C   C28       1.0  0.64905  0.80395  0.6896900000000001  1.0000
  C   C29       1.0  0.6459  0.77267  0.73637  1.0000
  C   C30       1.0  0.6721000000000001  0.7141199999999999  0.73906  1.0000
  C   C31       1.0  0.69925  0.68705  0.69574  1.0000
  C   C32       1.0  0.62052  0.79882  0.7850100000000001  1.0000
  C   C33       1.0  0.92608  0.40249  0.0463  1.0000
  C   C34       1.0  0.9647300000000001  0.45261  0.022560000000000004  1.0000
  C   C35       1.0  0.02433  0.47898  0.04817  1.0000
  C   C36       1.0  0.94053  0.47358  0.97432  1.0000
  C   C37       1.0  0.86369  0.54563  0.7118100000000002  1.0000
  C   C38       1.0  0.84069  0.51833  0.7604400000000001  1.0000
  C   C39       1.0  0.81324  0.4601199999999999  0.75872  1.0000
  C   C40       1.0  0.7886900000000002  0.43317  0.80314  1.0000
  C   C41       1.0  0.79011  0.4642  0.8498600000000002  1.0000
  C   C42       1.0  0.8150000000000002  0.52298  0.8515000000000001  1.0000
  C   C43       1.0  0.84077  0.54974  0.80716  1.0000
  C   C44       1.0  0.76657  0.43317  0.89809  1.0000
  C   C45       1.0  0.57803  0.39960000000000007  0.9589600000000001  1.0000
  C   C46       1.0  0.53759  0.45111  0.9803900000000001  1.0000
  C   C47       1.0  0.47495  0.4728899999999999  0.95463  1.0000
  C   C48       1.0  0.56229  0.47851  0.02604  1.0000
  C   C49       1.0  0.7203200000000001  0.45187999999999995  0.48695  1.0000
  C   C50       1.0  0.6941500000000002  0.39781  0.4671200000000001  1.0000
  C   C51       1.0  0.71573  0.34702  0.4933  1.0000
  C   C52       1.0  0.76219  0.34904  0.53778  1.0000
  C   C53       1.0  0.78861  0.40204999999999996  0.55741  1.0000
  C   C54       1.0  0.76695  0.45389  0.53123  1.0000
  C   C55       1.0  0.73794  0.20264999999999997  0.97637  1.0000
  C   C56       1.0  0.71855  0.14994  0.95068  1.0000
  C   C57       1.0  0.74611  0.0977  0.97143  1.0000
  C   C58       1.0  0.79188  0.09703999999999999  0.01627  1.0000
  C   C59       1.0  0.81162  0.14866  0.0417  1.0000
  C   C60       1.0  0.7839600000000001  0.20188999999999996  0.020990000000000005  1.0000
  C   C61       1.0  0.84265  0.00828  0.68808  1.0000
  C   C62       1.0  0.82313  0.98594  0.74007  1.0000
  C   C63       1.0  0.83331  0.02234  0.78335  1.0000
  C   C64       1.0  0.81361  0.0023599999999999993  0.83172  1.0000
  C   C65       1.0  0.78455  0.94534  0.83721  1.0000
  C   C66       1.0  0.7744000000000001  0.90912  0.79383  1.0000
  C   C67       1.0  0.7928  0.92942  0.74544  1.0000
  C   C68       1.0  0.76617  0.92197  0.88874  1.0000
  C   C69       1.0  0.73966  0.17421  0.61026  1.0000
  C   C70       1.0  0.72245  0.19721  0.66207  1.0000
  C   C71       1.0  0.7335700000000002  0.16139  0.70566  1.0000
  C   C72       1.0  0.7150900000000001  0.18255  0.7538900000000001  1.0000
  C   C73       1.0  0.68616  0.23972  0.7589400000000001  1.0000
  C   C74       1.0  0.6751100000000001  0.27548  0.71535  1.0000
  C   C75       1.0  0.69308  0.25441  0.66708  1.0000
  C   C76       1.0  0.6689600000000001  0.26382  0.81069  1.0000
  C   C77       1.0  0.9302300000000001  0.14427  0.54151  1.0000
  C   C78       1.0  0.9714100000000001  0.19437  0.51874  1.0000
  C   C79       1.0  0.029240000000000002  0.22101  0.54628  1.0000
  C   C80       1.0  0.06548  0.26907  0.52536  1.0000
  C   C81       1.0  0.0446  0.29026  0.47637  1.0000
  C   C82       1.0  0.9872600000000001  0.26321  0.44863000000000003  1.0000
  C   C83       1.0  0.9508  0.21562  0.46983  1.0000
  C   C84       1.0  0.0832  0.34127  0.45396  1.0000
  C   C85       1.0  0.76976  0.18582  0.39694000000000007  1.0000
  C   C86       1.0  0.7986000000000002  0.21827999999999997  0.35094000000000003  1.0000
  C   C87       1.0  0.82355  0.27688  0.35403  1.0000
  C   C88       1.0  0.85145  0.30453  0.31062  1.0000
  C   C89       1.0  0.85438  0.27385  0.26368  1.0000
  C   C90       1.0  0.8288  0.21517  0.26083  1.0000
  C   C91       1.0  0.80191  0.18783  0.30413  1.0000
  C   C92       1.0  0.87837  0.30111  0.21509000000000006  1.0000
  C   C93       1.0  0.57715  0.90466  0.9532100000000002  1.0000
  C   C94       1.0  0.53697  0.95407  0.97694  1.0000
  C   C95       1.0  0.4767100000000001  0.9798099999999998  0.95141  1.0000
  C   C96       1.0  0.55984  0.97443  0.025650000000000003  1.0000
  C   C97       1.0  0.63769  0.045059999999999996  0.28826  1.0000
  C   C98       1.0  0.66064  0.0181  0.23942  1.0000
  C   C99       1.0  0.6874600000000001  0.9595500000000001  0.24047  1.0000
  C   C100      1.0  0.7115200000000002  0.93282  0.19576  1.0000
  C   C101      1.0  0.71031  0.96451  0.14932  1.0000
  C   C102      1.0  0.68575  0.0235  0.14826  1.0000
  C   C103      1.0  0.6606600000000001  0.05005  0.1929  1.0000
  C   C104      1.0  0.73371  0.93441  0.10063  1.0000
  C   C105      1.0  0.92102  0.9007600000000001  0.0418  1.0000
  C   C106      1.0  0.96191  0.95185  0.02024  1.0000
  C   C107      1.0  0.024710000000000006  0.9733299999999999  0.04578  1.0000
  C   C108      1.0  0.9376500000000001  0.9787999999999999  0.97422  1.0000
  C   C109      1.0  0.7799700000000002  0.95231  0.51319  1.0000
  C   C110      1.0  0.8061  0.89806  0.53299  1.0000
  C   C111      1.0  0.78442  0.8474  0.50681  1.0000
  C   C112      1.0  0.73788  0.8496899999999998  0.46235000000000004  1.0000
  C   C113      1.0  0.71149  0.9028700000000001  0.44279  1.0000
  C   C114      1.0  0.73327  0.95456  0.46897000000000005  1.0000
  C   C115      1.0  0.76255  0.70277  0.0236  1.0000
  C   C116      1.0  0.78176  0.65001  0.04938  1.0000
  C   C117      1.0  0.75413  0.59791  0.028670000000000005  1.0000
  C   C118      1.0  0.7085200000000001  0.59746  0.98375  1.0000
  C   C119      1.0  0.6889900000000001  0.64918  0.95818  1.0000
  C   C120      1.0  0.71671  0.70227  0.9788800000000002  1.0000
  C   C121      1.0  0.34106  0.49188  0.68817  1.0000
  C   C122      1.0  0.32202  0.51398  0.74032  1.0000
  C   C123      1.0  0.33264  0.47731  0.78347  1.0000
  C   C124      1.0  0.31327000000000005  0.49711000000000005  0.8319700000000001  1.0000
  C   C125      1.0  0.28398  0.55412  0.83766  1.0000
  C   C126      1.0  0.27364000000000005  0.59066  0.79448  1.0000
  C   C127      1.0  0.29178000000000004  0.57059  0.74598  1.0000
  C   C128      1.0  0.2655100000000001  0.57739  0.8891700000000002  1.0000
  C   C129      1.0  0.23966  0.3257  0.60908  1.0000
  C   C130      1.0  0.22272000000000003  0.3031  0.6611800000000001  1.0000
  C   C131      1.0  0.23378  0.3389  0.70476  1.0000
  C   C132      1.0  0.21603000000000006  0.31766  0.75315  1.0000
  C   C133      1.0  0.18760000000000002  0.26048  0.7585100000000001  1.0000
  C   C134      1.0  0.17631  0.22481999999999996  0.71489  1.0000
  C   C135      1.0  0.1937  0.24592  0.66648  1.0000
  C   C136      1.0  0.17077  0.23636  0.81042  1.0000
  C   C137      1.0  0.42893  0.35552  0.54151  1.0000
  C   C138      1.0  0.47026000000000007  0.30551  0.51847  1.0000
  C   C139      1.0  0.52853  0.27874  0.54569  1.0000
  C   C140      1.0  0.56523  0.23106  0.52433  1.0000
  C   C141      1.0  0.54412  0.21014999999999998  0.4753800000000001  1.0000
  C   C142      1.0  0.4866500000000001  0.2375  0.44784  1.0000
  C   C143      1.0  0.44979  0.2848  0.46936  1.0000
  C   C144      1.0  0.58183  0.15868  0.45286000000000004  1.0000
  C   C145      1.0  0.26948  0.31454  0.39699  1.0000
  C   C146      1.0  0.2978  0.28217  0.3509300000000001  1.0000
  C   C147      1.0  0.32264  0.22342999999999996  0.35388  1.0000
  C   C148      1.0  0.35102000000000005  0.19616  0.31044  1.0000
  C   C149      1.0  0.35417  0.22737  0.26376  1.0000
  C   C150      1.0  0.32808  0.28594  0.26102  1.0000
  C   C151      1.0  0.3008  0.31304  0.30427  1.0000
  C   C152      1.0  0.37931  0.20108  0.2151  1.0000
  C   C153      1.0  0.07399  0.59748  0.95373  1.0000
  C   C154      1.0  0.03535  0.54733  0.97743  1.0000
  C   C155      1.0  0.9756900000000001  0.52099  0.9518400000000002  1.0000
  C   C156      1.0  0.05951000000000001  0.52638  0.02569  1.0000
  C   C157      1.0  0.13781  0.4556200000000001  0.28857  1.0000
  C   C158      1.0  0.16044  0.48262  0.23976  1.0000
  C   C159      1.0  0.18758000000000002  0.54093  0.24106  1.0000
  C   C160      1.0  0.2119  0.56754  0.19645000000000007  1.0000
  C   C161      1.0  0.21031000000000002  0.53611  0.14993  1.0000
  C   C162      1.0  0.18551  0.47733999999999993  0.1486  1.0000
  C   C163      1.0  0.16018  0.45086  0.19319  1.0000
  C   C164      1.0  0.23371000000000003  0.56695  0.10166000000000001  1.0000
  C   C165      1.0  0.4219800000000001  0.60043  0.04103  1.0000
  C   C166      1.0  0.46247000000000005  0.54892  0.01964  1.0000
  C   C167      1.0  0.5251  0.52714  0.04542  1.0000
  C   C168      1.0  0.4377599999999999  0.52152  0.974  1.0000
  C   C169      1.0  0.27956  0.54807  0.51296  1.0000
  C   C170      1.0  0.30573  0.60212  0.53282  1.0000
  C   C171      1.0  0.2842  0.65292  0.50665  1.0000
  C   C172      1.0  0.23778999999999997  0.65095  0.46215  1.0000
  C   C173      1.0  0.21137  0.59796  0.44247  1.0000
  C   C174      1.0  0.23299  0.5461  0.46865  1.0000
  C   C175      1.0  0.26213  0.79746  0.02369  1.0000
  C   C176      1.0  0.28149  0.85017  0.04936  1.0000
  C   C177      1.0  0.25389000000000006  0.90238  0.0286  1.0000
  C   C178      1.0  0.20811  0.9030299999999999  0.98375  1.0000
  C   C179      1.0  0.18837  0.85139  0.95834  1.0000
  C   C180      1.0  0.21606000000000003  0.79819  0.97909  1.0000
  C   C181      1.0  0.1574  0.99191  0.31193  1.0000
  C   C182      1.0  0.1773  0.01419  0.25998  1.0000
  C   C183      1.0  0.16689000000000004  0.97783  0.21669  1.0000
  C   C184      1.0  0.18635  0.99781  0.16827  1.0000
  C   C185      1.0  0.21543  0.05482000000000001  0.16273000000000004  1.0000
  C   C186      1.0  0.22562999999999997  0.0911  0.20608000000000004  1.0000
  C   C187      1.0  0.20750000000000005  0.07075  0.25452  1.0000
  C   C188      1.0  0.23385  0.07814  0.11120000000000001  1.0000
  C   C189      1.0  0.26028  0.82569  0.38981  1.0000
  C   C190      1.0  0.2775  0.80272  0.33796000000000004  1.0000
  C   C191      1.0  0.26655  0.8386300000000001  0.29439  1.0000
  C   C192      1.0  0.28497  0.81749  0.24614  1.0000
  C   C193      1.0  0.31383000000000005  0.76031  0.24105  1.0000
  C   C194      1.0  0.32489  0.7245299999999999  0.28462  1.0000
  C   C195      1.0  0.30699000000000004  0.7455800000000001  0.3329  1.0000
  C   C196      1.0  0.33111  0.73623  0.18931  1.0000
  C   C197      1.0  0.06989000000000001  0.8556100000000001  0.4584500000000001  1.0000
  C   C198      1.0  0.028639999999999995  0.8055599999999999  0.48113  1.0000
  C   C199      1.0  0.97083  0.779  0.45354000000000005  1.0000
  C   C200      1.0  0.93455  0.73099  0.47448  1.0000
  C   C201      1.0  0.95533  0.70982  0.52347  1.0000
  C   C202      1.0  0.012730000000000007  0.7367700000000001  0.55126  1.0000
  C   C203      1.0  0.049260000000000005  0.7843099999999998  0.53004  1.0000
  C   C204      1.0  0.9166199999999999  0.65888  0.54584  1.0000
  C   C205      1.0  0.23024000000000003  0.81368  0.60323  1.0000
  C   C206      1.0  0.20112  0.7816500000000001  0.6494100000000002  1.0000
  C   C207      1.0  0.17615  0.72297  0.64696  1.0000
  C   C208      1.0  0.14876  0.69586  0.69085  1.0000
  C   C209      1.0  0.14611  0.7270700000000001  0.73756  1.0000
  C   C210      1.0  0.17184000000000002  0.78573  0.7396700000000002  1.0000
  C   C211      1.0  0.19825  0.81265  0.69602  1.0000
  C   C212      1.0  0.12176000000000001  0.70113  0.78667  1.0000
  C   C213      1.0  0.42281  0.0962  0.0469  1.0000
  C   C214      1.0  0.46253  0.04647  0.023140000000000004  1.0000
  C   C215      1.0  0.52275  0.02058  0.04872  1.0000
  C   C216      1.0  0.43967  0.02602  0.97446  1.0000
  C   C217      1.0  0.36216  0.95478  0.71177  1.0000
  C   C218      1.0  0.3393  0.98183  0.76059  1.0000
  C   C219      1.0  0.31254000000000004  0.0404  0.75958  1.0000
  C   C220      1.0  0.28843  0.06709  0.8043  1.0000
  C   C221      1.0  0.2896  0.03535  0.85074  1.0000
  C   C222      1.0  0.31411  0.97636  0.85173  1.0000
  C   C223      1.0  0.33928  0.94986  0.80709  1.0000
  C   C224      1.0  0.26631  0.06543  0.8995  1.0000
  C   C225      1.0  0.07904000000000003  0.09926  0.9581300000000001  1.0000
  C   C226      1.0  0.03809000000000001  0.04819  0.9797000000000001  1.0000
  C   C227      1.0  0.9752999999999998  0.026679999999999995  0.9541500000000003  1.0000
  C   C228      1.0  0.06235000000000001  0.02121  0.025700000000000008  1.0000
  C   C229      1.0  0.21998000000000004  0.04764000000000001  0.48687  1.0000
  C   C230      1.0  0.19389  0.1019  0.4670500000000001  1.0000
  C   C231      1.0  0.21559  0.15257  0.4932000000000001  1.0000
  C   C232      1.0  0.26212  0.15029  0.53765  1.0000
  C   C233      1.0  0.28848  0.09711  0.55724  1.0000
  C   C234      1.0  0.26668  0.04539  0.5311  1.0000
  C   C235      1.0  0.23740000000000003  0.29732  0.97638  1.0000
  C   C236      1.0  0.21824000000000002  0.35008  0.95058  1.0000
  C   C237      1.0  0.24589  0.40217  0.9713  1.0000
  C   C238      1.0  0.29150000000000004  0.40263  0.01623  1.0000
  C   C239      1.0  0.31096  0.35092  0.04181000000000001  1.0000
  C   C240      1.0  0.2831600000000001  0.29786  0.02112  1.0000
  N   N1        1.0  0.70938  0.50914  0.47117  1.0000
  N   N2        1.0  0.7469100000000001  0.54379  0.50319  1.0000
  N   N3        1.0  0.78233  0.51237  0.53968  1.0000
  N   N4        1.0  0.72098  0.26084  0.96653  1.0000
  N   N5        1.0  0.75455  0.29332  0.00224  1.0000
  N   N6        1.0  0.79287  0.25959  0.03569  1.0000
  N   N7        1.0  0.79094  0.00953  0.52891  1.0000
  N   N8        1.0  0.75334  0.04439  0.4969  1.0000
  N   N9        1.0  0.7178800000000001  0.01309  0.46045  1.0000
  N   N10       1.0  0.77964  0.7608699999999999  0.03338  1.0000
  N   N11       1.0  0.74639  0.79352  0.99754  1.0000
  N   N12       1.0  0.70807  0.76004  0.96409  1.0000
  N   N13       1.0  0.29044  0.49081  0.52874  1.0000
  N   N14       1.0  0.25296  0.45618  0.49667  1.0000
  N   N15       1.0  0.21760000000000004  0.48763  0.46017  1.0000
  N   N16       1.0  0.27913  0.73928  0.03352  1.0000
  N   N17       1.0  0.24549  0.7068  0.9978500000000002  1.0000
  N   N18       1.0  0.20711  0.7405000000000002  0.9644400000000001  1.0000
  N   N19       1.0  0.20897  0.9904  0.47118  1.0000
  N   N20       1.0  0.24654  0.95554  0.50322  1.0000
  N   N21       1.0  0.28202  0.9868500000000001  0.53965  1.0000
  N   N22       1.0  0.22032000000000002  0.23921999999999996  0.96663  1.0000
  N   N23       1.0  0.25348  0.20661999999999997  0.00255  1.0000
  N   N24       1.0  0.2917  0.24015  0.036  1.0000
  O   O1        1.0  0.62983  0.55987  0.31516000000000005  1.0000
  O   O2        1.0  0.67234  0.47594  0.35106  1.0000
  O   O3        1.0  0.7319100000000001  0.45802  0.07237  1.0000
  O   O4        1.0  0.7494600000000001  0.36774  0.10684  1.0000
  O   O5        1.0  0.7492800000000001  0.61904  0.3981700000000001  1.0000
  O   O6        1.0  0.7603800000000001  0.71135  0.42818  1.0000
  O   O7        1.0  0.83162  0.72882  0.15088  1.0000
  O   O8        1.0  0.83969  0.81929  0.1854  1.0000
  O   O9        1.0  0.62503  0.62229  0.48448  1.0000
  O   O10       1.0  0.55227  0.62487  0.41453  1.0000
  O   O11       1.0  0.4339  0.8583799999999999  0.59314  1.0000
  O   O12       1.0  0.36948  0.86912  0.52007  1.0000
  O   O13       1.0  0.7448800000000001  0.63075  0.60952  1.0000
  O   O14       1.0  0.73444  0.71363  0.56083  1.0000
  O   O15       1.0  0.6400100000000001  0.7740999999999999  0.82632  1.0000
  O   O16       1.0  0.5818100000000002  0.84819  0.7865000000000002  1.0000
  O   O17       1.0  0.87335  0.37815  0.02083  1.0000
  O   O18       1.0  0.94525  0.38365000000000005  0.09107  1.0000
  O   O19       1.0  0.84336  0.52319  0.66984  1.0000
  O   O20       1.0  0.90188  0.59549  0.71081  1.0000
  O   O21       1.0  0.7568800000000001  0.37781  0.89626  1.0000
  O   O22       1.0  0.76114  0.46462  0.93882  1.0000
  O   O23       1.0  0.62881  0.37505  0.9866  1.0000
  O   O24       1.0  0.56132  0.38065  0.91416  1.0000
  O   O25       1.0  0.86905  0.06023  0.68487  1.0000
  O   O26       1.0  0.8298600000000002  0.97577  0.6486100000000001  1.0000
  O   O27       1.0  0.7670700000000001  0.9573400000000001  0.92705  1.0000
  O   O28       1.0  0.75279  0.8664599999999999  0.89305  1.0000
  O   O29       1.0  0.7522700000000002  0.11911  0.60378  1.0000
  O   O30       1.0  0.73806  0.21093  0.57242  1.0000
  O   O31       1.0  0.66629  0.22873  0.84913  1.0000
  O   O32       1.0  0.65873  0.31961  0.81502  1.0000
  O   O33       1.0  0.8761300000000001  0.12232  0.51559  1.0000
  O   O34       1.0  0.94923  0.12431  0.58546  1.0000
  O   O35       1.0  0.06877  0.35767  0.40751  1.0000
  O   O36       1.0  0.1307  0.3691400000000001  0.48162  1.0000
  O   O37       1.0  0.75279  0.13169  0.39002  1.0000
  O   O38       1.0  0.76736  0.2136  0.43942  1.0000
  O   O39       1.0  0.85846  0.27682  0.1738  1.0000
  O   O40       1.0  0.91585  0.35104  0.21373000000000003  1.0000
  O   O41       1.0  0.62935  0.8804600000000001  0.97921  1.0000
  O   O42       1.0  0.5592400000000001  0.88601  0.9081600000000002  1.0000
  O   O43       1.0  0.65465  0.02065  0.33019  1.0000
  O   O44       1.0  0.60343  0.09711999999999998  0.28923  1.0000
  O   O45       1.0  0.7414600000000001  0.8786099999999999  0.10123  1.0000
  O   O46       1.0  0.74102  0.96677  0.06063  1.0000
  O   O47       1.0  0.8728400000000002  0.8747900000000001  0.013070000000000002  1.0000
  O   O48       1.0  0.9347100000000002  0.88357  0.08762  1.0000
  O   O49       1.0  0.36706  0.43964999999999993  0.68482  1.0000
  O   O50       1.0  0.3283400000000001  0.52461  0.6488  1.0000
  O   O51       1.0  0.26821  0.54228  0.92765  1.0000
  O   O52       1.0  0.25036  0.63264  0.89323  1.0000
  O   O53       1.0  0.25063  0.38094999999999996  0.60179  1.0000
  O   O54       1.0  0.23956000000000002  0.28872  0.57157  1.0000
  O   O55       1.0  0.16697  0.27115  0.84899  1.0000
  O   O56       1.0  0.16168  0.18046999999999996  0.81468  1.0000
  O   O57       1.0  0.37503  0.37785  0.51552  1.0000
  O   O58       1.0  0.44764  0.37519  0.58558  1.0000
  O   O59       1.0  0.5658300000000002  0.14156  0.40687  1.0000
  O   O60       1.0  0.63044  0.13091  0.4798200000000001  1.0000
  O   O61       1.0  0.25466000000000005  0.36922  0.39044  1.0000
  O   O62       1.0  0.26542  0.28632  0.43912  1.0000
  O   O63       1.0  0.35979  0.22585  0.17383  1.0000
  O   O64       1.0  0.41802  0.15174  0.21351  1.0000
  O   O65       1.0  0.12663  0.62191  0.97921  1.0000
  O   O66       1.0  0.05481  0.61631  0.90894  1.0000
  O   O67       1.0  0.15656  0.47928  0.33042  1.0000
  O   O68       1.0  0.10170000000000003  0.40463  0.2897  1.0000
  O   O69       1.0  0.24328  0.62233  0.1036  1.0000
  O   O70       1.0  0.23921  0.53553  0.06092  1.0000
  O   O71       1.0  0.37131  0.62501  0.01334  1.0000
  O   O72       1.0  0.43851  0.61932  0.08588  1.0000
  O   O73       1.0  0.13103  0.9399400000000001  0.31505  1.0000
  O   O74       1.0  0.16972  0.02444  0.35146  1.0000
  O   O75       1.0  0.23301  0.04278  0.07289  1.0000
  O   O76       1.0  0.24724  0.13363  0.10691  1.0000
  O   O77       1.0  0.24770000000000003  0.8808  0.39623  1.0000
  O   O78       1.0  0.26187  0.78898  0.4276600000000001  1.0000
  O   O79       1.0  0.3336  0.77127  0.15083  1.0000
  O   O80       1.0  0.34158  0.68048  0.18503  1.0000
  O   O81       1.0  0.12414000000000001  0.8772100000000002  0.48441  1.0000
  O   O82       1.0  0.050820000000000004  0.8759100000000001  0.41462000000000004  1.0000
  O   O83       1.0  0.9311600000000001  0.64246  0.59222  1.0000
  O   O84       1.0  0.86903  0.63098  0.51825  1.0000
  O   O85       1.0  0.24751000000000004  0.8677400000000001  0.61009  1.0000
  O   O86       1.0  0.23271  0.7859299999999999  0.56077  1.0000
  O   O87       1.0  0.14182  0.7262  0.82767  1.0000
  O   O88       1.0  0.08348  0.65182  0.7892400000000002  1.0000
  O   O89       1.0  0.37147  0.12172  0.02081  1.0000
  O   O90       1.0  0.44042000000000003  0.11386  0.0923  1.0000
  O   O91       1.0  0.3453300000000001  0.97922  0.66983  1.0000
  O   O92       1.0  0.39621  0.9025900000000001  0.71085  1.0000
  O   O93       1.0  0.25868  0.12123999999999999  0.89883  1.0000
  O   O94       1.0  0.25905  0.0332  0.9396  1.0000
  O   O95       1.0  0.12722  0.12518  0.98691  1.0000
  O   O96       1.0  0.06541000000000001  0.11643  0.91229  1.0000
