data_image0
_chemical_formula_structural       Zn8H128C256O64
_chemical_formula_sum              "Zn8 H128 C256 O64"
_cell_length_a       16.48426
_cell_length_b       17.85695
_cell_length_c       27.595559999999995
_cell_angle_alpha    90.00046
_cell_angle_beta     90.0
_cell_angle_gamma    90.00045

_space_group_name_H-M_alt    "P 1"
_space_group_IT_number       1

loop_
  _space_group_symop_operation_xyz
  'x, y, z'

loop_
  _atom_site_type_symbol
  _atom_site_label
  _atom_site_symmetry_multiplicity
  _atom_site_fract_x
  _atom_site_fract_y
  _atom_site_fract_z
  _atom_site_occupancy
  Zn  Zn1       1.0  0.51395  0.24894999999999998  0.38444  1.0000
  Zn  Zn2       1.0  0.9860399999999999  0.7510599999999998  0.88444  1.0000
  Zn  Zn3       1.0  0.48605  0.7510599999999998  0.6155500000000002  1.0000
  Zn  Zn4       1.0  0.01395  0.24893999999999997  0.11554999999999999  1.0000
  Zn  Zn5       1.0  0.4860300000000001  0.74895  0.11554999999999999  1.0000
  Zn  Zn6       1.0  0.01396  0.25106  0.6155500000000002  1.0000
  Zn  Zn7       1.0  0.5139599999999998  0.25105  0.8844499999999998  1.0000
  Zn  Zn8       1.0  0.98603  0.74894  0.38445  1.0000
  H   H1        1.0  0.74075  0.1601  0.36941  1.0000
  H   H2        1.0  0.87822  0.12036  0.39466000000000007  1.0000
  H   H3        1.0  0.99492  0.13269  0.33791  1.0000
  H   H4        1.0  0.97568  0.18678999999999996  0.25633  1.0000
  H   H5        1.0  0.7957  0.31268  0.1356  1.0000
  H   H6        1.0  0.66044  0.36121  0.11335000000000002  1.0000
  H   H7        1.0  0.54448  0.3505199999999999  0.17104  1.0000
  H   H8        1.0  0.56195  0.2880799999999999  0.25002  1.0000
  H   H9        1.0  0.5336  0.30539  0.50359  1.0000
  H   H10       1.0  0.61308  0.28486999999999996  0.5786  1.0000
  H   H11       1.0  0.65088  0.39267999999999986  0.63115  1.0000
  H   H12       1.0  0.6086  0.52147  0.60903  1.0000
  H   H13       1.0  0.50009  0.18981  0.53403  1.0000
  H   H14       1.0  0.42509  0.19328999999999993  0.61167  1.0000
  H   H15       1.0  0.3726199999999999  0.07497  0.6482800000000001  1.0000
  H   H16       1.0  0.39285  0.95399  0.60659  1.0000
  H   H17       1.0  0.75924  0.8399  0.8694100000000001  1.0000
  H   H18       1.0  0.62177  0.8796399999999998  0.89466  1.0000
  H   H19       1.0  0.50508  0.86732  0.83791  1.0000
  H   H20       1.0  0.52432  0.81322  0.75633  1.0000
  H   H21       1.0  0.70429  0.68732  0.63559  1.0000
  H   H22       1.0  0.83955  0.63879  0.61334  1.0000
  H   H23       1.0  0.95551  0.64949  0.67103  1.0000
  H   H24       1.0  0.93804  0.7119199999999999  0.7500199999999999  1.0000
  H   H25       1.0  0.96641  0.6946199999999999  0.0036  1.0000
  H   H26       1.0  0.88691  0.7151399999999999  0.0786  1.0000
  H   H27       1.0  0.8491  0.60734  0.13114  1.0000
  H   H28       1.0  0.89136  0.47855  0.10904  1.0000
  H   H29       1.0  0.9999  0.81019  0.03405  1.0000
  H   H30       1.0  0.07491  0.80671  0.11167  1.0000
  H   H31       1.0  0.12738  0.92502  0.14828  1.0000
  H   H32       1.0  0.10717  0.046  0.10659000000000002  1.0000
  H   H33       1.0  0.25923  0.83989  0.63059  1.0000
  H   H34       1.0  0.12177000000000002  0.8796499999999998  0.60534  1.0000
  H   H35       1.0  0.00507  0.86733  0.66208  1.0000
  H   H36       1.0  0.02431  0.8132399999999997  0.74367  1.0000
  H   H37       1.0  0.20431  0.68733  0.86441  1.0000
  H   H38       1.0  0.33957  0.63879  0.88665  1.0000
  H   H39       1.0  0.45552  0.6495  0.82896  1.0000
  H   H40       1.0  0.43803  0.7119099999999999  0.74997  1.0000
  H   H41       1.0  0.46643  0.6945799999999998  0.4964  1.0000
  H   H42       1.0  0.3869  0.7151299999999998  0.4214  1.0000
  H   H43       1.0  0.3491  0.60733  0.36885  1.0000
  H   H44       1.0  0.39138  0.47852999999999996  0.39093  1.0000
  H   H45       1.0  0.49992  0.8102  0.46597  1.0000
  H   H46       1.0  0.57491  0.80672  0.38833  1.0000
  H   H47       1.0  0.62737  0.9250299999999999  0.35171  1.0000
  H   H48       1.0  0.60716  0.04601  0.39341  1.0000
  H   H49       1.0  0.24076  0.16011  0.13059  1.0000
  H   H50       1.0  0.37823  0.12034999999999998  0.10534  1.0000
  H   H51       1.0  0.49491999999999997  0.13267  0.16209000000000004  1.0000
  H   H52       1.0  0.47569  0.18677  0.24367  1.0000
  H   H53       1.0  0.29569  0.31268  0.36441  1.0000
  H   H54       1.0  0.16043  0.36121  0.38665  1.0000
  H   H55       1.0  0.044479999999999985  0.3505  0.32896  1.0000
  H   H56       1.0  0.06196999999999999  0.28808999999999996  0.24997  1.0000
  H   H57       1.0  0.03356  0.30542  0.99638  1.0000
  H   H58       1.0  0.11309  0.28486999999999996  0.9214  1.0000
  H   H59       1.0  0.15091  0.39266  0.86885  1.0000
  H   H60       1.0  0.10864  0.52145  0.89093  1.0000
  H   H61       1.0  7.999999999999999e-05  0.18981  0.96595  1.0000
  H   H62       1.0  0.92509  0.19328999999999993  0.88832  1.0000
  H   H63       1.0  0.87261  0.07498  0.85171  1.0000
  H   H64       1.0  0.89281  0.954  0.8934  1.0000
  H   H65       1.0  0.25922  0.66012  0.1306  1.0000
  H   H66       1.0  0.12176  0.62035  0.10534  1.0000
  H   H67       1.0  0.00507  0.63267  0.16208000000000003  1.0000
  H   H68       1.0  0.02429  0.68676  0.24366  1.0000
  H   H69       1.0  0.20431  0.81268  0.36442  1.0000
  H   H70       1.0  0.33957  0.8612099999999998  0.38665  1.0000
  H   H71       1.0  0.45552  0.8505  0.32896  1.0000
  H   H72       1.0  0.43801  0.78809  0.24996  1.0000
  H   H73       1.0  0.46641  0.8054099999999997  0.9964  1.0000
  H   H74       1.0  0.38689  0.78487  0.9214  1.0000
  H   H75       1.0  0.3491  0.89266  0.86885  1.0000
  H   H76       1.0  0.39137  0.02145  0.89094  1.0000
  H   H77       1.0  0.49989  0.68981  0.96595  1.0000
  H   H78       1.0  0.5749  0.69329  0.88832  1.0000
  H   H79       1.0  0.62738  0.57499  0.85171  1.0000
  H   H80       1.0  0.60718  0.45401  0.8934  1.0000
  H   H81       1.0  0.24077  0.33989  0.63059  1.0000
  H   H82       1.0  0.37823  0.37965  0.60534  1.0000
  H   H83       1.0  0.49493  0.36733  0.66208  1.0000
  H   H84       1.0  0.4757  0.31325  0.74367  1.0000
  H   H85       1.0  0.29568  0.18733  0.86442  1.0000
  H   H86       1.0  0.16042  0.13879  0.88665  1.0000
  H   H87       1.0  0.04446999999999999  0.1495  0.82895  1.0000
  H   H88       1.0  0.06197999999999999  0.21191  0.74996  1.0000
  H   H89       1.0  0.03358  0.19459  0.4964  1.0000
  H   H90       1.0  0.1131  0.21512999999999996  0.4214  1.0000
  H   H91       1.0  0.15089  0.10732999999999997  0.36885  1.0000
  H   H92       1.0  0.10862  0.97853  0.39095  1.0000
  H   H93       1.0  9e-05  0.31019  0.46596  1.0000
  H   H94       1.0  0.92509  0.30672  0.38833  1.0000
  H   H95       1.0  0.87262  0.42503  0.35171  1.0000
  H   H96       1.0  0.89283  0.54601  0.39341  1.0000
  H   H97       1.0  0.74076  0.33989  0.8694100000000001  1.0000
  H   H98       1.0  0.87823  0.37964  0.89466  1.0000
  H   H99       1.0  0.99492  0.36732  0.83791  1.0000
  H   H100      1.0  0.97568  0.31323  0.75633  1.0000
  H   H101      1.0  0.7956899999999999  0.18732  0.63559  1.0000
  H   H102      1.0  0.6604299999999997  0.13879  0.61335  1.0000
  H   H103      1.0  0.54448  0.14949  0.6710400000000001  1.0000
  H   H104      1.0  0.56196  0.21192  0.75003  1.0000
  H   H105      1.0  0.53359  0.19459  0.0036  1.0000
  H   H106      1.0  0.6131  0.21512999999999996  0.0786  1.0000
  H   H107      1.0  0.6509  0.10733999999999999  0.13115  1.0000
  H   H108      1.0  0.6086299999999999  0.97855  0.10906  1.0000
  H   H109      1.0  0.5001  0.31019  0.03405  1.0000
  H   H110      1.0  0.42509  0.30671  0.11168  1.0000
  H   H111      1.0  0.3726199999999999  0.42502  0.14829  1.0000
  H   H112      1.0  0.39282  0.5459999999999999  0.1066  1.0000
  H   H113      1.0  0.75922  0.66012  0.3694  1.0000
  H   H114      1.0  0.62176  0.62035  0.39466000000000007  1.0000
  H   H115      1.0  0.50506  0.63267  0.33792  1.0000
  H   H116      1.0  0.52429  0.68676  0.25633  1.0000
  H   H117      1.0  0.70432  0.81268  0.13558  1.0000
  H   H118      1.0  0.83958  0.8612199999999999  0.11335000000000002  1.0000
  H   H119      1.0  0.95552  0.8505  0.17105  1.0000
  H   H120      1.0  0.93801  0.78809  0.25004  1.0000
  H   H121      1.0  0.96641  0.8054099999999997  0.50359  1.0000
  H   H122      1.0  0.88691  0.78488  0.5786  1.0000
  H   H123      1.0  0.8491  0.89268  0.63115  1.0000
  H   H124      1.0  0.89138  0.02147  0.60904  1.0000
  H   H125      1.0  0.9999100000000001  0.68981  0.53404  1.0000
  H   H126      1.0  0.07491  0.69329  0.61167  1.0000
  H   H127      1.0  0.12738  0.57498  0.6482800000000001  1.0000
  H   H128      1.0  0.10716  0.45399999999999996  0.60659  1.0000
  C   C1        1.0  0.62803  0.20627  0.31367  1.0000
  C   C2        1.0  0.70059  0.2227  0.28293  1.0000
  C   C3        1.0  0.77876  0.19877999999999998  0.29823  1.0000
  C   C4        1.0  0.79171  0.16632  0.34458  1.0000
  C   C5        1.0  0.86891  0.14432999999999996  0.35881  1.0000
  C   C6        1.0  0.9351  0.15186  0.32678  1.0000
  C   C7        1.0  0.9244699999999998  0.1832  0.28118  1.0000
  C   C8        1.0  0.84686  0.20907  0.26639  1.0000
  C   C9        1.0  0.83488  0.24474  0.22087  1.0000
  C   C10       1.0  0.75712  0.2703  0.20603  1.0000
  C   C11       1.0  0.74503  0.30645  0.16071  1.0000
  C   C12       1.0  0.66889  0.33346  0.14812999999999998  1.0000
  C   C13       1.0  0.60313  0.32671  0.18053  1.0000
  C   C14       1.0  0.6127399999999997  0.29072  0.22478000000000004  1.0000
  C   C15       1.0  0.68919  0.26045  0.23806  1.0000
  C   C16       1.0  0.90666  0.26133  0.18973000000000004  1.0000
  C   C17       1.0  0.45871  0.37328  0.43804  1.0000
  C   C18       1.0  0.4788199999999999  0.4386699999999999  0.46989  1.0000
  C   C19       1.0  0.52379  0.4256499999999999  0.51314  1.0000
  C   C20       1.0  0.54877  0.3524899999999999  0.52692  1.0000
  C   C21       1.0  0.59348  0.3410799999999999  0.56878  1.0000
  C   C22       1.0  0.61488  0.40223  0.5986300000000001  1.0000
  C   C23       1.0  0.59121  0.47424  0.5863700000000001  1.0000
  C   C24       1.0  0.4543699999999999  0.51208  0.45643  1.0000
  C   C25       1.0  0.56172  0.13826  0.45764  1.0000
  C   C26       1.0  0.53127  0.06703  0.47981  1.0000
  C   C27       1.0  0.48947999999999997  0.06962999999999998  0.52487  1.0000
  C   C28       1.0  0.47717  0.13819  0.54986  1.0000
  C   C29       1.0  0.43521  0.14004  0.59338  1.0000
  C   C30       1.0  0.40509  0.07322  0.61394  1.0000
  C   C31       1.0  0.41631  0.00526  0.5905  1.0000
  C   C32       1.0  0.5422899999999998  0.9982699999999999  0.45457  1.0000
  C   C33       1.0  0.87196  0.7936999999999999  0.81366  1.0000
  C   C34       1.0  0.7994  0.7773  0.78292  1.0000
  C   C35       1.0  0.72124  0.80122  0.79823  1.0000
  C   C36       1.0  0.70829  0.83369  0.8445799999999999  1.0000
  C   C37       1.0  0.63109  0.8556699999999998  0.85881  1.0000
  C   C38       1.0  0.5649  0.84814  0.82678  1.0000
  C   C39       1.0  0.57552  0.8168  0.78118  1.0000
  C   C40       1.0  0.65313  0.7909299999999998  0.76639  1.0000
  C   C41       1.0  0.6651099999999998  0.75526  0.72087  1.0000
  C   C42       1.0  0.74287  0.7297  0.70603  1.0000
  C   C43       1.0  0.75496  0.69355  0.66071  1.0000
  C   C44       1.0  0.8310999999999997  0.66654  0.64813  1.0000
  C   C45       1.0  0.8968699999999997  0.67329  0.68053  1.0000
  C   C46       1.0  0.88725  0.70928  0.72478  1.0000
  C   C47       1.0  0.8108  0.7395499999999998  0.73806  1.0000
  C   C48       1.0  0.59334  0.73867  0.68973  1.0000
  C   C49       1.0  0.04126  0.62673  0.93805  1.0000
  C   C50       1.0  0.02116  0.56133  0.9698900000000001  1.0000
  C   C51       1.0  0.9762  0.5743499999999999  0.01314  1.0000
  C   C52       1.0  0.95122  0.64751  0.02693  1.0000
  C   C53       1.0  0.90651  0.65893  0.06879  1.0000
  C   C54       1.0  0.88511  0.59778  0.09864  1.0000
  C   C55       1.0  0.90877  0.52577  0.08638  1.0000
  C   C56       1.0  0.04561999999999999  0.48791  0.95642  1.0000
  C   C57       1.0  0.93827  0.86175  0.95764  1.0000
  C   C58       1.0  0.9687099999999998  0.93298  0.97981  1.0000
  C   C59       1.0  0.01051  0.9303699999999999  0.02488  1.0000
  C   C60       1.0  0.022829999999999993  0.86182  0.04986000000000001  1.0000
  C   C61       1.0  0.06478999999999997  0.85996  0.09339000000000001  1.0000
  C   C62       1.0  0.09492  0.9267799999999999  0.11395  1.0000
  C   C63       1.0  0.0837  0.9947399999999998  0.0905  1.0000
  C   C64       1.0  0.95769  0.00174  0.95456  1.0000
  C   C65       1.0  0.37195  0.79376  0.68634  1.0000
  C   C66       1.0  0.29939  0.7773  0.71707  1.0000
  C   C67       1.0  0.22122  0.8012  0.70176  1.0000
  C   C68       1.0  0.20827  0.83368  0.65541  1.0000
  C   C69       1.0  0.13107  0.8556699999999998  0.64119  1.0000
  C   C70       1.0  0.06488  0.84814  0.67321  1.0000
  C   C71       1.0  0.07551  0.81681  0.7188200000000001  1.0000
  C   C72       1.0  0.15311  0.7909199999999997  0.73361  1.0000
  C   C73       1.0  0.16511  0.75526  0.77913  1.0000
  C   C74       1.0  0.24287  0.72969  0.79397  1.0000
  C   C75       1.0  0.25497  0.69355  0.83929  1.0000
  C   C76       1.0  0.33111  0.66655  0.85187  1.0000
  C   C77       1.0  0.39687  0.67329  0.81946  1.0000
  C   C78       1.0  0.38724  0.70926  0.77521  1.0000
  C   C79       1.0  0.31079  0.7395399999999998  0.76193  1.0000
  C   C80       1.0  0.09334  0.73868  0.81027  1.0000
  C   C81       1.0  0.54128  0.62674  0.56188  1.0000
  C   C82       1.0  0.52113  0.5613  0.53008  1.0000
  C   C83       1.0  0.47617  0.57432  0.48683  1.0000
  C   C84       1.0  0.4512199999999999  0.64748  0.47306  1.0000
  C   C85       1.0  0.40651  0.6589099999999999  0.43121  1.0000
  C   C86       1.0  0.38511  0.59777  0.40135  1.0000
  C   C87       1.0  0.40877  0.52575  0.4136  1.0000
  C   C88       1.0  0.54559  0.48789  0.54355  1.0000
  C   C89       1.0  0.43829  0.86175  0.54235  1.0000
  C   C90       1.0  0.46873999999999993  0.93298  0.52019  1.0000
  C   C91       1.0  0.51053  0.9303699999999999  0.47512  1.0000
  C   C92       1.0  0.5228399999999997  0.86182  0.45014  1.0000
  C   C93       1.0  0.5647999999999997  0.85997  0.40661  1.0000
  C   C94       1.0  0.5949099999999998  0.9267899999999999  0.38605  1.0000
  C   C95       1.0  0.5837  0.99475  0.4095  1.0000
  C   C96       1.0  0.45772  0.00174  0.54543  1.0000
  C   C97       1.0  0.12804  0.2063  0.18635000000000002  1.0000
  C   C98       1.0  0.20061  0.22272  0.21707  1.0000
  C   C99       1.0  0.27878  0.1988  0.20176000000000002  1.0000
  C   C100      1.0  0.29172  0.16633  0.15541  1.0000
  C   C101      1.0  0.36892  0.14432999999999996  0.14119  1.0000
  C   C102      1.0  0.43511  0.15186  0.17321  1.0000
  C   C103      1.0  0.42448  0.1832  0.21881  1.0000
  C   C104      1.0  0.3468799999999999  0.20909  0.23361  1.0000
  C   C105      1.0  0.33489  0.24474  0.27913  1.0000
  C   C106      1.0  0.25713  0.27032  0.29397000000000006  1.0000
  C   C107      1.0  0.24504  0.30646  0.33929  1.0000
  C   C108      1.0  0.16889  0.33346  0.35187  1.0000
  C   C109      1.0  0.10313  0.32671  0.31947  1.0000
  C   C110      1.0  0.11276  0.29075  0.27521  1.0000
  C   C111      1.0  0.18921  0.26047  0.26194  1.0000
  C   C112      1.0  0.40665  0.26133  0.31027  1.0000
  C   C113      1.0  0.95874  0.37327  0.06189  1.0000
  C   C114      1.0  0.97887  0.4387  0.03008  1.0000
  C   C115      1.0  0.02383  0.42568  0.98683  1.0000
  C   C116      1.0  0.04878  0.35251  0.97305  1.0000
  C   C117      1.0  0.09349  0.3410799999999999  0.9312000000000001  1.0000
  C   C118      1.0  0.11489  0.40223  0.90135  1.0000
  C   C119      1.0  0.09123  0.47424999999999995  0.9136  1.0000
  C   C120      1.0  0.95441  0.5121199999999999  0.04355  1.0000
  C   C121      1.0  0.06171  0.13825  0.04236  1.0000
  C   C122      1.0  0.03126  0.06702  0.02019  1.0000
  C   C123      1.0  0.98946  0.06962999999999998  0.9751200000000001  1.0000
  C   C124      1.0  0.9771500000000001  0.13818  0.95013  1.0000
  C   C125      1.0  0.93519  0.14004  0.9066  1.0000
  C   C126      1.0  0.90507  0.07322  0.88605  1.0000
  C   C127      1.0  0.91629  0.00526  0.90949  1.0000
  C   C128      1.0  0.04229  0.9982599999999999  0.04543  1.0000
  C   C129      1.0  0.37194  0.70619  0.18633999999999998  1.0000
  C   C130      1.0  0.29938  0.7227099999999997  0.21707  1.0000
  C   C131      1.0  0.2212  0.69881  0.20176000000000002  1.0000
  C   C132      1.0  0.20825999999999995  0.66634  0.15541  1.0000
  C   C133      1.0  0.13107  0.64434  0.14119  1.0000
  C   C134      1.0  0.06488  0.65186  0.17321  1.0000
  C   C135      1.0  0.0755  0.6832  0.21881  1.0000
  C   C136      1.0  0.1531  0.7090999999999997  0.23361  1.0000
  C   C137      1.0  0.1651  0.74475  0.27913  1.0000
  C   C138      1.0  0.24286  0.77032  0.29397000000000006  1.0000
  C   C139      1.0  0.25496  0.80645  0.33929999999999993  1.0000
  C   C140      1.0  0.33111  0.83346  0.35187  1.0000
  C   C141      1.0  0.39686  0.82671  0.31946  1.0000
  C   C142      1.0  0.3872299999999999  0.79074  0.27521  1.0000
  C   C143      1.0  0.31078  0.76047  0.26193  1.0000
  C   C144      1.0  0.09334  0.76133  0.31027  1.0000
  C   C145      1.0  0.54127  0.87328  0.06193  1.0000
  C   C146      1.0  0.52116  0.93868  0.030099999999999995  1.0000
  C   C147      1.0  0.47619  0.92567  0.98684  1.0000
  C   C148      1.0  0.4512199999999999  0.85251  0.9730600000000001  1.0000
  C   C149      1.0  0.4065  0.84108  0.93121  1.0000
  C   C150      1.0  0.38511  0.9022299999999999  0.90135  1.0000
  C   C151      1.0  0.40877  0.97424  0.91361  1.0000
  C   C152      1.0  0.54561  0.0121  0.04356  1.0000
  C   C153      1.0  0.43828  0.63825  0.04236  1.0000
  C   C154      1.0  0.46872  0.56702  0.02019  1.0000
  C   C155      1.0  0.51051  0.56963  0.9751200000000001  1.0000
  C   C156      1.0  0.52282  0.63818  0.95013  1.0000
  C   C157      1.0  0.56479  0.64004  0.90661  1.0000
  C   C158      1.0  0.5949099999999998  0.57322  0.88605  1.0000
  C   C159      1.0  0.5837  0.50527  0.9095  1.0000
  C   C160      1.0  0.4577  0.49826  0.04543  1.0000
  C   C161      1.0  0.12805  0.29381  0.68634  1.0000
  C   C162      1.0  0.20061  0.2773  0.71707  1.0000
  C   C163      1.0  0.27879  0.30119  0.70176  1.0000
  C   C164      1.0  0.29173  0.33367  0.65541  1.0000
  C   C165      1.0  0.36893  0.35567  0.64119  1.0000
  C   C166      1.0  0.43512  0.34814  0.67321  1.0000
  C   C167      1.0  0.42449  0.31681  0.7188200000000001  1.0000
  C   C168      1.0  0.34689  0.29091  0.73361  1.0000
  C   C169      1.0  0.3349  0.25526  0.77913  1.0000
  C   C170      1.0  0.25713  0.22968999999999998  0.79397  1.0000
  C   C171      1.0  0.24503  0.19355  0.83929  1.0000
  C   C172      1.0  0.16887999999999995  0.16655  0.85187  1.0000
  C   C173      1.0  0.10313  0.17329  0.81946  1.0000
  C   C174      1.0  0.11276  0.20925999999999997  0.77521  1.0000
  C   C175      1.0  0.18921  0.23953999999999998  0.76193  1.0000
  C   C176      1.0  0.40665  0.23866999999999997  0.81027  1.0000
  C   C177      1.0  0.95872  0.12674  0.5619  1.0000
  C   C178      1.0  0.9788599999999998  0.06132  0.53009  1.0000
  C   C179      1.0  0.02382  0.07433  0.48684  1.0000
  C   C180      1.0  0.04878  0.14749  0.47307  1.0000
  C   C181      1.0  0.09349  0.15890999999999997  0.43121  1.0000
  C   C182      1.0  0.11489  0.09776999999999997  0.40136  1.0000
  C   C183      1.0  0.09121999999999998  0.02575  0.41361  1.0000
  C   C184      1.0  0.9544  0.9878999999999999  0.54356  1.0000
  C   C185      1.0  0.061720000000000004  0.36175  0.54235  1.0000
  C   C186      1.0  0.03127  0.43298  0.52019  1.0000
  C   C187      1.0  0.98948  0.43036999999999986  0.47512  1.0000
  C   C188      1.0  0.97716  0.3618199999999999  0.45014  1.0000
  C   C189      1.0  0.9352  0.35996  0.40661  1.0000
  C   C190      1.0  0.90508  0.4267899999999999  0.38605  1.0000
  C   C191      1.0  0.9163  0.49473999999999996  0.4095  1.0000
  C   C192      1.0  0.04229  0.5017399999999999  0.54543  1.0000
  C   C193      1.0  0.62804  0.29375  0.81366  1.0000
  C   C194      1.0  0.7006  0.2773  0.78293  1.0000
  C   C195      1.0  0.77877  0.30120999999999987  0.79824  1.0000
  C   C196      1.0  0.7917199999999998  0.33367  0.8445799999999999  1.0000
  C   C197      1.0  0.86892  0.35567  0.85881  1.0000
  C   C198      1.0  0.93511  0.34814  0.82678  1.0000
  C   C199      1.0  0.92448  0.3168  0.78118  1.0000
  C   C200      1.0  0.84687  0.29092  0.76639  1.0000
  C   C201      1.0  0.83489  0.25526  0.72087  1.0000
  C   C202      1.0  0.75712  0.2297  0.70603  1.0000
  C   C203      1.0  0.74503  0.19356  0.66071  1.0000
  C   C204      1.0  0.66889  0.16654  0.64813  1.0000
  C   C205      1.0  0.60313  0.17329  0.68053  1.0000
  C   C206      1.0  0.61275  0.20927  0.72478  1.0000
  C   C207      1.0  0.6892  0.23954999999999999  0.73806  1.0000
  C   C208      1.0  0.90665  0.23866999999999997  0.68973  1.0000
  C   C209      1.0  0.45872  0.12673  0.93808  1.0000
  C   C210      1.0  0.47884  0.06132  0.9699  1.0000
  C   C211      1.0  0.52382  0.07433  0.01315  1.0000
  C   C212      1.0  0.54878  0.14749999999999996  0.02693  1.0000
  C   C213      1.0  0.59349  0.15892  0.06879  1.0000
  C   C214      1.0  0.61489  0.09778  0.09864  1.0000
  C   C215      1.0  0.59123  0.02576  0.08639  1.0000
  C   C216      1.0  0.45439  0.9878999999999999  0.95643  1.0000
  C   C217      1.0  0.56172  0.36176  0.95764  1.0000
  C   C218      1.0  0.53127  0.43298  0.97981  1.0000
  C   C219      1.0  0.48947999999999997  0.43036999999999986  0.02488  1.0000
  C   C220      1.0  0.47717  0.3618199999999999  0.04987  1.0000
  C   C221      1.0  0.4352  0.35996  0.09339000000000001  1.0000
  C   C222      1.0  0.40508  0.42678  0.11395  1.0000
  C   C223      1.0  0.41629  0.49473  0.0905  1.0000
  C   C224      1.0  0.5422899999999998  0.5017499999999999  0.95456  1.0000
  C   C225      1.0  0.8719399999999998  0.70617  0.31366  1.0000
  C   C226      1.0  0.79938  0.7226999999999998  0.28293  1.0000
  C   C227      1.0  0.7211999999999997  0.69881  0.29824  1.0000
  C   C228      1.0  0.70826  0.66634  0.34458  1.0000
  C   C229      1.0  0.63106  0.64434  0.35881  1.0000
  C   C230      1.0  0.56487  0.65186  0.32679  1.0000
  C   C231      1.0  0.5755  0.6832  0.28118  1.0000
  C   C232      1.0  0.6531  0.70909  0.26639  1.0000
  C   C233      1.0  0.6651  0.74474  0.22087  1.0000
  C   C234      1.0  0.74286  0.77032  0.20603  1.0000
  C   C235      1.0  0.75497  0.80645  0.1607  1.0000
  C   C236      1.0  0.8311199999999999  0.83346  0.14812999999999998  1.0000
  C   C237      1.0  0.8968699999999997  0.82671  0.18054  1.0000
  C   C238      1.0  0.88723  0.79074  0.22479  1.0000
  C   C239      1.0  0.8107799999999998  0.76047  0.23807  1.0000
  C   C240      1.0  0.59334  0.76133  0.18973000000000004  1.0000
  C   C241      1.0  0.04128  0.87327  0.43808  1.0000
  C   C242      1.0  0.02115  0.93868  0.4699  1.0000
  C   C243      1.0  0.97619  0.92567  0.51315  1.0000
  C   C244      1.0  0.95122  0.85251  0.52693  1.0000
  C   C245      1.0  0.90651  0.84109  0.56879  1.0000
  C   C246      1.0  0.88511  0.90224  0.59864  1.0000
  C   C247      1.0  0.90878  0.97425  0.58638  1.0000
  C   C248      1.0  0.04560999999999999  0.01209  0.45643  1.0000
  C   C249      1.0  0.9382799999999998  0.63825  0.45765  1.0000
  C   C250      1.0  0.96873  0.56702  0.47981  1.0000
  C   C251      1.0  0.01052  0.56963  0.52488  1.0000
  C   C252      1.0  0.022839999999999992  0.63818  0.54986  1.0000
  C   C253      1.0  0.06478999999999997  0.64004  0.59339  1.0000
  C   C254      1.0  0.09490999999999997  0.57322  0.61394  1.0000
  C   C255      1.0  0.08369  0.50526  0.5905  1.0000
  C   C256      1.0  0.95771  0.49826  0.45456  1.0000
  O   O1        1.0  0.61597  0.25351  0.34789  1.0000
  O   O2        1.0  0.58731  0.14981  0.3029  1.0000
  O   O3        1.0  0.9164  0.21937  0.15256000000000003  1.0000
  O   O4        1.0  0.94992  0.31521  0.20260999999999998  1.0000
  O   O5        1.0  0.52065  0.34864  0.4145400000000001  1.0000
  O   O6        1.0  0.3881999999999999  0.34861  0.43771  1.0000
  O   O7        1.0  0.50401  0.17379  0.43603  1.0000
  O   O8        1.0  0.63433  0.15547  0.4616100000000001  1.0000
  O   O9        1.0  0.88401  0.7464999999999999  0.8479  1.0000
  O   O10       1.0  0.91271  0.8501299999999998  0.80286  1.0000
  O   O11       1.0  0.5836  0.78064  0.6525600000000001  1.0000
  O   O12       1.0  0.55009  0.68479  0.7026  1.0000
  O   O13       1.0  0.9793299999999999  0.65136  0.91454  1.0000
  O   O14       1.0  0.11177  0.6514  0.9377300000000001  1.0000
  O   O15       1.0  0.9959799999999999  0.8262099999999999  0.93604  1.0000
  O   O16       1.0  0.8656599999999999  0.84454  0.96161  1.0000
  O   O17       1.0  0.38403  0.74654  0.65211  1.0000
  O   O18       1.0  0.41266  0.85023  0.69713  1.0000
  O   O19       1.0  0.0836  0.78064  0.84744  1.0000
  O   O20       1.0  0.05009  0.6848  0.79739  1.0000
  O   O21       1.0  0.47941  0.65135  0.58547  1.0000
  O   O22       1.0  0.61177  0.65145  0.56217  1.0000
  O   O23       1.0  0.49599  0.82622  0.56396  1.0000
  O   O24       1.0  0.36567  0.84454  0.53838  1.0000
  O   O25       1.0  0.11599  0.25348  0.15209  1.0000
  O   O26       1.0  0.08728  0.1499  0.19719  1.0000
  O   O27       1.0  0.4164  0.21936  0.34744  1.0000
  O   O28       1.0  0.44988  0.31522  0.2974  1.0000
  O   O29       1.0  0.02061  0.34865  0.08547000000000002  1.0000
  O   O30       1.0  0.88826  0.34855999999999987  0.06217  1.0000
  O   O31       1.0  0.00401  0.17379  0.06396  1.0000
  O   O32       1.0  0.13433  0.15546  0.03838  1.0000
  O   O33       1.0  0.38404  0.75343  0.15212  1.0000
  O   O34       1.0  0.41261  0.6496899999999999  0.19712000000000002  1.0000
  O   O35       1.0  0.08358  0.71936  0.34744  1.0000
  O   O36       1.0  0.05012  0.81524  0.2974  1.0000
  O   O37       1.0  0.47937  0.84865  0.08547000000000002  1.0000
  O   O38       1.0  0.61177  0.84859  0.06223  1.0000
  O   O39       1.0  0.49599  0.67379  0.06396  1.0000
  O   O40       1.0  0.36566  0.6554599999999999  0.03838  1.0000
  O   O41       1.0  0.11595  0.24656  0.65212  1.0000
  O   O42       1.0  0.08738  0.35030999999999995  0.69711  1.0000
  O   O43       1.0  0.4164  0.28064  0.84744  1.0000
  O   O44       1.0  0.44989  0.18478  0.7974  1.0000
  O   O45       1.0  0.02059  0.15135999999999997  0.58547  1.0000
  O   O46       1.0  0.88822  0.15144  0.56219  1.0000
  O   O47       1.0  0.00401  0.3262099999999999  0.56396  1.0000
  O   O48       1.0  0.13433  0.3445399999999999  0.53838  1.0000
  O   O49       1.0  0.6159599999999997  0.24652  0.84789  1.0000
  O   O50       1.0  0.58732  0.35022  0.8028800000000001  1.0000
  O   O51       1.0  0.9164  0.28064  0.6525600000000001  1.0000
  O   O52       1.0  0.9498999999999997  0.18478  0.7026  1.0000
  O   O53       1.0  0.52062  0.15135  0.91453  1.0000
  O   O54       1.0  0.38822  0.15141999999999997  0.93778  1.0000
  O   O55       1.0  0.504  0.3262099999999999  0.93604  1.0000
  O   O56       1.0  0.63433  0.3445399999999999  0.96162  1.0000
  O   O57       1.0  0.88405  0.75343  0.34787  1.0000
  O   O58       1.0  0.91259  0.64964  0.3029  1.0000
  O   O59       1.0  0.58359  0.71936  0.15256000000000003  1.0000
  O   O60       1.0  0.55011  0.81522  0.20260000000000003  1.0000
  O   O61       1.0  0.9793900000000001  0.84864  0.41453  1.0000
  O   O62       1.0  0.11178  0.84858  0.43778  1.0000
  O   O63       1.0  0.99599  0.67379  0.43604000000000004  1.0000
  O   O64       1.0  0.8656599999999999  0.6554599999999999  0.46162  1.0000
