data_image0
_chemical_formula_structural       Cu12H156C324O48
_chemical_formula_sum              "Cu12 H156 C324 O48"
_cell_length_a       18.42389
_cell_length_b       18.57256
_cell_length_c       37.93145
_cell_angle_alpha    78.07828
_cell_angle_beta     75.81725
_cell_angle_gamma    60.18634999999999

_symmetry_space_group_name_H-M    'P 1'
_symmetry_Int_Tables_number       1

loop_
  _symmetry_equiv_pos_as_xyz
  'x,y,z'

loop_
  _atom_site_type_symbol
  _atom_site_label
  _atom_site_symmetry_multiplicity
  _atom_site_fract_x
  _atom_site_fract_y
  _atom_site_fract_z
  _atom_site_occupancy
  Cu  Cu1       1.0  0.18504  0.21572  0.77522  1.0000
  Cu  Cu2       1.0  0.2536999999999999  0.2724099999999999  0.7215600000000001  1.0000
  Cu  Cu3       1.0  0.24726000000000015  0.7119999999999997  0.72287  1.0000
  Cu  Cu4       1.0  0.6760400000000003  0.28396  0.72492  1.0000
  Cu  Cu5       1.0  0.7472499999999999  0.22712999999999992  0.77849  1.0000
  Cu  Cu6       1.0  0.18124999999999997  0.7889899999999997  0.77706  1.0000
  Cu  Cu7       1.0  0.81496  0.78428  0.22478  1.0000
  Cu  Cu8       1.0  0.7463  0.7275999999999999  0.27844  1.0000
  Cu  Cu9       1.0  0.7527500000000004  0.288  0.2771300000000001  1.0000
  Cu  Cu10      1.0  0.32397  0.71605  0.27507  1.0000
  Cu  Cu11      1.0  0.25275000000000003  0.77287  0.22150000000000003  1.0000
  Cu  Cu12      1.0  0.81876  0.21101999999999999  0.22294000000000003  1.0000
  H   H1        1.0  0.24983  0.9821999999999999  0.74407  1.0000
  H   H2        1.0  0.9511700000000002  0.2806799999999999  0.7447900000000002  1.0000
  H   H3        1.0  0.06265999999999992  0.85837  0.65323  1.0000
  H   H4        1.0  0.8305400000000001  0.38491000000000003  0.64953  1.0000
  H   H5        1.0  0.07030999999999996  0.37565999999999994  0.6486800000000001  1.0000
  H   H6        1.0  0.3668599999999999  0.84741  0.64896  1.0000
  H   H7        1.0  0.9453699999999998  0.98764  0.75  1.0000
  H   H8        1.0  0.37128999999999995  0.07801  0.64903  1.0000
  H   H9        1.0  0.83083  0.09263999999999997  0.6530800000000001  1.0000
  H   H10       1.0  0.81499  0.52427  0.41184000000000004  1.0000
  H   H11       1.0  0.7693100000000003  0.7694799999999998  0.44299000000000005  1.0000
  H   H12       1.0  0.52646  0.04241000000000001  0.58119  1.0000
  H   H13       1.0  0.48457  0.28716  0.46474  1.0000
  H   H14       1.0  0.2206199999999999  0.75101  0.5707300000000001  1.0000
  H   H15       1.0  0.058740000000000105  0.7738099999999998  0.42403  1.0000
  H   H16       1.0  0.06119000000000006  0.8197699999999998  0.56352  1.0000
  H   H17       1.0  0.8102900000000001  0.5225199999999998  0.55871  1.0000
  H   H18       1.0  0.5914900000000001  0.13005999999999998  0.45507  1.0000
  H   H19       1.0  0.75291  0.06346  0.45792  1.0000
  H   H20       1.0  0.75436  0.42963  0.54364  1.0000
  H   H21       1.0  0.6857700000000001  0.96984  0.58926  1.0000
  H   H22       1.0  0.70776  0.67554  0.5748  1.0000
  H   H23       1.0  0.42544000000000015  0.19532  0.59705  1.0000
  H   H24       1.0  0.8699700000000004  0.6121399999999998  0.43237  1.0000
  H   H25       1.0  0.29016  0.7943799999999998  0.4349200000000001  1.0000
  H   H26       1.0  0.8686599999999999  0.97959  0.49501000000000006  1.0000
  H   H27       1.0  0.12863000000000002  0.85976  0.43327000000000004  1.0000
  H   H28       1.0  0.7544500000000001  0.42521000000000003  0.4305300000000001  1.0000
  H   H29       1.0  0.72474  0.37802999999999987  0.49587  1.0000
  H   H30       1.0  0.3707900000000003  0.70738  0.5399700000000001  1.0000
  H   H31       1.0  0.6415400000000001  0.82731  0.55277  1.0000
  H   H32       1.0  0.3544300000000002  0.34666999999999987  0.57404  1.0000
  H   H33       1.0  0.3822300000000001  0.39181999999999995  0.50853  1.0000
  H   H34       1.0  0.99259  0.7276899999999998  0.5599300000000003  1.0000
  H   H35       1.0  0.9487900000000002  0.6690099999999999  0.52024  1.0000
  H   H36       1.0  0.9807400000000001  0.69319  0.45293  1.0000
  H   H37       1.0  0.8354  0.93375  0.5602400000000001  1.0000
  H   H38       1.0  0.67205  0.87384  0.48748000000000014  1.0000
  H   H39       1.0  0.40523000000000003  0.7295599999999998  0.47276000000000007  1.0000
  H   H40       1.0  0.47568000000000016  0.5179199999999996  0.7561000000000002  1.0000
  H   H41       1.0  0.47769000000000017  0.21834  0.7553  1.0000
  H   H42       1.0  0.07466000000000002  0.64117  0.84671  1.0000
  H   H43       1.0  0.3650599999999999  0.11429999999999996  0.8505200000000003  1.0000
  H   H44       1.0  0.5939700000000001  0.12465000000000002  0.85166  1.0000
  H   H45       1.0  0.36251999999999995  0.6534499999999999  0.85106  1.0000
  H   H46       1.0  0.18366000000000002  0.5123  0.74986  1.0000
  H   H47       1.0  0.5975299999999999  0.4218199999999997  0.8510200000000002  1.0000
  H   H48       1.0  0.07612999999999996  0.4077099999999999  0.8468000000000002  1.0000
  H   H49       1.0  0.2504500000000001  0.9756900000000001  0.08831  1.0000
  H   H50       1.0  0.48178  0.7305  0.05711  1.0000
  H   H51       1.0  0.6506499999999998  0.45737999999999984  0.91871  1.0000
  H   H52       1.0  0.7365000000000002  0.21274999999999994  0.03521  1.0000
  H   H53       1.0  0.04305000000000004  0.74858  0.92912  1.0000
  H   H54       1.0  0.7560900000000002  0.7261499999999997  0.076  1.0000
  H   H55       1.0  0.94481  0.6802100000000001  0.93644  1.0000
  H   H56       1.0  0.39188000000000023  0.9774999999999997  0.9414400000000002  1.0000
  H   H57       1.0  0.6766000000000002  0.36982  0.0448  1.0000
  H   H58       1.0  0.77412  0.43646  0.041890000000000004  1.0000
  H   H59       1.0  0.22776999999999994  0.07056999999999998  0.95655  1.0000
  H   H60       1.0  0.7454400000000002  0.5299599999999998  0.9105600000000001  1.0000
  H   H61       1.0  0.45880000000000026  0.8245099999999995  0.92533  1.0000
  H   H62       1.0  0.7186700000000001  0.30446  0.9029000000000001  1.0000
  H   H63       1.0  0.41422  0.88783  0.06774000000000001  1.0000
  H   H64       1.0  0.019120000000000012  0.70554  0.06494  1.0000
  H   H65       1.0  0.8429400000000002  0.52057  0.00476  1.0000
  H   H66       1.0  0.9213900000000003  0.6402099999999997  0.06668  1.0000
  H   H67       1.0  0.10942  0.07483  0.06969  1.0000
  H   H68       1.0  0.09826  0.12219  0.00435  1.0000
  H   H69       1.0  0.11837000000000002  0.79244  0.9598200000000001  1.0000
  H   H70       1.0  0.52193  0.67277  0.9473900000000001  1.0000
  H   H71       1.0  0.7755100000000001  0.1532  0.92599  1.0000
  H   H72       1.0  0.7825599999999999  0.10810999999999998  0.99148  1.0000
  H   H73       1.0  0.7803200000000003  0.7726899999999995  0.94014  1.0000
  H   H74       1.0  0.6377500000000002  0.8311999999999999  0.9799  1.0000
  H   H75       1.0  0.6262700000000001  0.8067399999999998  0.04722000000000001  1.0000
  H   H76       1.0  0.8294400000000003  0.56633  0.93955  1.0000
  H   H77       1.0  0.53333  0.62622  0.012660000000000003  1.0000
  H   H78       1.0  0.10722000000000001  0.77047  0.02702  1.0000
  H   H79       1.0  0.7501700000000002  0.01781  0.25593  1.0000
  H   H80       1.0  0.048839999999999946  0.71933  0.2552  1.0000
  H   H81       1.0  0.9373500000000002  0.14162999999999995  0.3467600000000001  1.0000
  H   H82       1.0  0.1694600000000002  0.6150899999999998  0.35047  1.0000
  H   H83       1.0  0.92969  0.6243399999999999  0.35132000000000013  1.0000
  H   H84       1.0  0.63314  0.1526  0.35104  1.0000
  H   H85       1.0  0.05462999999999999  0.012359999999999987  0.24999000000000002  1.0000
  H   H86       1.0  0.62871  0.92199  0.35097  1.0000
  H   H87       1.0  0.16918000000000014  0.90737  0.3469200000000001  1.0000
  H   H88       1.0  0.18502000000000002  0.47573  0.58815  1.0000
  H   H89       1.0  0.23069999999999982  0.23053  0.55701  1.0000
  H   H90       1.0  0.47354  0.95759  0.41881  1.0000
  H   H91       1.0  0.51543  0.71284  0.53526  1.0000
  H   H92       1.0  0.7793900000000004  0.24898999999999993  0.42926  1.0000
  H   H93       1.0  0.94126  0.22619  0.57597  1.0000
  H   H94       1.0  0.9388100000000003  0.18022999999999997  0.43648  1.0000
  H   H95       1.0  0.18970999999999996  0.47749  0.44129000000000007  1.0000
  H   H96       1.0  0.40851  0.8699399999999997  0.5449300000000002  1.0000
  H   H97       1.0  0.24710000000000004  0.9365499999999999  0.5420800000000001  1.0000
  H   H98       1.0  0.24564999999999998  0.5703699999999999  0.45636000000000004  1.0000
  H   H99       1.0  0.31423  0.030160000000000003  0.41074  1.0000
  H   H100      1.0  0.29224  0.32447  0.4252  1.0000
  H   H101      1.0  0.5745600000000002  0.80468  0.40295  1.0000
  H   H102      1.0  0.13003000000000015  0.38786  0.56762  1.0000
  H   H103      1.0  0.70985  0.20562000000000002  0.56507  1.0000
  H   H104      1.0  0.13134000000000004  0.02040999999999999  0.50498  1.0000
  H   H105      1.0  0.8713799999999999  0.14025000000000004  0.56673  1.0000
  H   H106      1.0  0.24556000000000014  0.5747899999999996  0.5694700000000003  1.0000
  H   H107      1.0  0.2752600000000001  0.62198  0.50413  1.0000
  H   H108      1.0  0.6292099999999999  0.29263  0.46003000000000005  1.0000
  H   H109      1.0  0.35846999999999996  0.17268999999999998  0.44723000000000007  1.0000
  H   H110      1.0  0.6455700000000001  0.65334  0.4259600000000001  1.0000
  H   H111      1.0  0.61778  0.6081899999999998  0.4914600000000001  1.0000
  H   H112      1.0  0.007410000000000022  0.2723099999999999  0.44007  1.0000
  H   H113      1.0  0.051220000000000064  0.3309899999999999  0.47976  1.0000
  H   H114      1.0  0.019269999999999975  0.30681  0.54707  1.0000
  H   H115      1.0  0.1646  0.06625999999999993  0.43976000000000004  1.0000
  H   H116      1.0  0.3279599999999999  0.12617  0.51252  1.0000
  H   H117      1.0  0.59477  0.27044000000000007  0.52723  1.0000
  H   H118      1.0  0.5243200000000001  0.4820900000000001  0.24390000000000003  1.0000
  H   H119      1.0  0.52232  0.78166  0.24469  1.0000
  H   H120      1.0  0.92534  0.35884000000000005  0.15329  1.0000
  H   H121      1.0  0.6349500000000001  0.8857  0.14948  1.0000
  H   H122      1.0  0.40604  0.87536  0.14833000000000002  1.0000
  H   H123      1.0  0.63748  0.34655  0.14894  1.0000
  H   H124      1.0  0.8163400000000002  0.48771000000000003  0.25014  1.0000
  H   H125      1.0  0.40247  0.57818  0.14898  1.0000
  H   H126      1.0  0.92387  0.5923  0.1532  1.0000
  H   H127      1.0  0.7495600000000001  0.02430999999999997  0.9116900000000001  1.0000
  H   H128      1.0  0.5182299999999999  0.26949999999999996  0.9428800000000003  1.0000
  H   H129      1.0  0.34936000000000006  0.54262  0.08128000000000003  1.0000
  H   H130      1.0  0.2635  0.78725  0.9647900000000001  1.0000
  H   H131      1.0  0.9569500000000001  0.2514299999999999  0.07088000000000001  1.0000
  H   H132      1.0  0.24392000000000005  0.27384999999999987  0.92399  1.0000
  H   H133      1.0  0.0552  0.31979  0.06355  1.0000
  H   H134      1.0  0.60812  0.022509999999999995  0.05856000000000001  1.0000
  H   H135      1.0  0.32341000000000003  0.63019  0.9552000000000002  1.0000
  H   H136      1.0  0.2258899999999998  0.56354  0.9581000000000001  1.0000
  H   H137      1.0  0.7722400000000001  0.9294299999999998  0.04344  1.0000
  H   H138      1.0  0.25457000000000013  0.4700399999999999  0.08944  1.0000
  H   H139      1.0  0.5411999999999999  0.1755  0.07467000000000003  1.0000
  H   H140      1.0  0.28134000000000003  0.69554  0.09709  1.0000
  H   H141      1.0  0.5857799999999999  0.11218  0.93226  1.0000
  H   H142      1.0  0.98089  0.29445999999999994  0.9350600000000001  1.0000
  H   H143      1.0  0.15706999999999988  0.4794399999999998  0.9952300000000002  1.0000
  H   H144      1.0  0.07862000000000001  0.35979999999999995  0.93332  1.0000
  H   H145      1.0  0.8905800000000003  0.9251800000000001  0.9303100000000001  1.0000
  H   H146      1.0  0.90174  0.8778199999999997  0.99564  1.0000
  H   H147      1.0  0.8816400000000001  0.20756999999999995  0.04018000000000001  1.0000
  H   H148      1.0  0.4780800000000001  0.32723999999999986  0.052610000000000004  1.0000
  H   H149      1.0  0.2244900000000001  0.8467999999999998  0.07401  1.0000
  H   H150      1.0  0.21745000000000017  0.8918899999999997  0.008510000000000004  1.0000
  H   H151      1.0  0.2196800000000001  0.22730999999999996  0.05986  1.0000
  H   H152      1.0  0.36225  0.1688  0.020090000000000004  1.0000
  H   H153      1.0  0.37373999999999996  0.19325999999999996  0.9527800000000001  1.0000
  H   H154      1.0  0.1705600000000001  0.4336799999999999  0.060450000000000004  1.0000
  H   H155      1.0  0.46667  0.37378999999999973  0.9873400000000001  1.0000
  H   H156      1.0  0.89278  0.22952999999999998  0.97297  1.0000
  C   C1        1.0  0.27828000000000025  0.8455499999999996  0.7176  1.0000
  C   C2        1.0  0.8143800000000001  0.12147999999999999  0.72215  1.0000
  C   C3        1.0  0.98089  0.9883399999999999  0.53879  1.0000
  C   C4        1.0  0.4474600000000003  0.9622399999999995  0.57515  1.0000
  C   C5        1.0  0.81521  0.31029  0.71889  1.0000
  C   C6        1.0  0.88338  0.33229  0.69923  1.0000
  C   C7        1.0  0.30946  0.03688000000000002  0.69867  1.0000
  C   C8        1.0  0.09071999999999997  0.29983999999999994  0.7175100000000002  1.0000
  C   C9        1.0  0.9817899999999998  0.47423000000000004  0.5379  1.0000
  C   C10       1.0  0.47717000000000004  0.9770600000000002  0.53772  1.0000
  C   C11       1.0  0.2858900000000001  0.9759799999999998  0.71655  1.0000
  C   C12       1.0  0.9505500000000002  0.31082  0.71704  1.0000
  C   C13       1.0  0.3072499999999999  0.9078200000000001  0.69857  1.0000
  C   C14       1.0  0.010619999999999984  0.91047  0.6673200000000002  1.0000
  C   C15       1.0  0.08233999999999989  0.8514499999999998  0.7220700000000002  1.0000
  C   C16       1.0  0.4165700000000001  0.9580599999999999  0.60746  1.0000
  C   C17       1.0  0.9168100000000001  0.51861  0.51639  1.0000
  C   C18       1.0  0.2816300000000001  0.11167999999999999  0.7175  1.0000
  C   C19       1.0  0.8827300000000001  0.36964  0.66314  1.0000
  C   C20       1.0  0.017599999999999998  0.36405  0.66274  1.0000
  C   C21       1.0  0.3517399999999999  0.90023  0.66272  1.0000
  C   C22       1.0  0.009760000000000164  0.9152899999999997  0.70371  1.0000
  C   C23       1.0  0.6361  0.03607999999999999  0.53965  1.0000
  C   C24       1.0  0.9447300000000002  0.98313  0.72201  1.0000
  C   C25       1.0  0.9650800000000004  0.44698  0.57525  1.0000
  C   C26       1.0  0.35434  0.02973  0.66292  1.0000
  C   C27       1.0  0.8801999999999998  0.04629999999999997  0.7036100000000001  1.0000
  C   C28       1.0  0.03488000000000006  0.9195599999999999  0.51829  1.0000
  C   C29       1.0  0.017620000000000045  0.3266899999999999  0.69873  1.0000
  C   C30       1.0  0.9503499999999999  0.38565999999999995  0.6443600000000003  1.0000
  C   C31       1.0  0.9647  0.9785599999999998  0.57731  1.0000
  C   C32       1.0  0.51714  0.028229999999999977  0.5267900000000001  1.0000
  C   C33       1.0  0.80013  0.50631  0.50448  1.0000
  C   C34       1.0  0.8805099999999999  0.04221  0.66718  1.0000
  C   C35       1.0  0.95449  0.42010999999999993  0.60733  1.0000
  C   C36       1.0  0.8173999999999998  0.53281  0.4673900000000001  1.0000
  C   C37       1.0  0.8011799999999999  0.50402  0.4406  1.0000
  C   C38       1.0  0.6551  0.06225000000000001  0.50268  1.0000
  C   C39       1.0  0.46216  0.94786  0.51006  1.0000
  C   C40       1.0  0.5128  0.18313999999999997  0.5065200000000001  1.0000
  C   C41       1.0  0.06558999999999988  0.45579000000000003  0.52055  1.0000
  C   C42       1.0  0.9458799999999999  0.06883000000000002  0.51967  1.0000
  C   C43       1.0  0.7560500000000001  0.74898  0.47172  1.0000
  C   C44       1.0  0.37553000000000014  0.9614599999999995  0.6443800000000001  1.0000
  C   C45       1.0  0.5415900000000001  0.06297  0.55243  1.0000
  C   C46       1.0  0.17201  0.7964899999999998  0.5199100000000001  1.0000
  C   C47       1.0  0.47226000000000007  0.26725  0.49363000000000007  1.0000
  C   C48       1.0  0.19167000000000003  0.80836  0.48167000000000004  1.0000
  C   C49       1.0  0.23594999999999985  0.76022  0.54111  1.0000
  C   C50       1.0  0.044470000000000044  0.76364  0.45365  1.0000
  C   C51       1.0  0.9465700000000004  0.9746  0.6485  1.0000
  C   C52       1.0  0.9528899999999999  0.9747200000000001  0.61061  1.0000
  C   C53       1.0  0.06852999999999997  0.7964199999999998  0.47584  1.0000
  C   C54       1.0  0.7758800000000001  0.63803  0.52121  1.0000
  C   C55       1.0  0.07716999999999999  0.8280499999999997  0.5337  1.0000
  C   C56       1.0  0.8231500000000002  0.5433299999999999  0.5297700000000002  1.0000
  C   C57       1.0  0.04919000000000011  0.7841399999999997  0.51407  1.0000
  C   C58       1.0  0.57684  0.11036999999999998  0.48401  1.0000
  C   C59       1.0  0.7383900000000001  0.04258999999999999  0.48647000000000007  1.0000
  C   C60       1.0  0.76676  0.45083999999999985  0.51494  1.0000
  C   C61       1.0  0.7004499999999999  0.99015  0.5606100000000002  1.0000
  C   C62       1.0  0.7212500000000003  0.69607  0.54607  1.0000
  C   C63       1.0  0.49504  0.15743999999999997  0.54368  1.0000
  C   C64       1.0  0.43874000000000013  0.21557999999999997  0.56825  1.0000
  C   C65       1.0  0.8555099999999999  0.59194  0.46125000000000005  1.0000
  C   C66       1.0  0.79339  0.6644099999999997  0.48413000000000006  1.0000
  C   C67       1.0  0.27523000000000003  0.7842699999999998  0.4645000000000001  1.0000
  C   C68       1.0  0.8033000000000001  0.9959099999999999  0.50745  1.0000
  C   C69       1.0  0.11360000000000005  0.84986  0.46304  1.0000
  C   C70       1.0  0.7671499999999999  0.44842  0.4511700000000001  1.0000
  C   C71       1.0  0.75015  0.42190000000000005  0.48805  1.0000
  C   C72       1.0  0.32018  0.73564  0.52378  1.0000
  C   C73       1.0  0.6840000000000003  0.78128  0.5336200000000002  1.0000
  C   C74       1.0  0.39897000000000005  0.30035  0.55533  1.0000
  C   C75       1.0  0.41501999999999994  0.32601  0.5182500000000001  1.0000
  C   C76       1.0  0.006939999999999878  0.7377500000000001  0.53032  1.0000
  C   C77       1.0  0.98254  0.70474  0.50801  1.0000
  C   C78       1.0  0.0006800000000000216  0.71815  0.47001  1.0000
  C   C79       1.0  0.7844699999999999  0.96994  0.54425  1.0000
  C   C80       1.0  0.7012400000000001  0.80756  0.49674  1.0000
  C   C81       1.0  0.3397800000000005  0.7477099999999997  0.4857600000000001  1.0000
  C   C82       1.0  0.3405599999999999  0.65495  0.7825  1.0000
  C   C83       1.0  0.15804000000000004  0.37836  0.77786  1.0000
  C   C84       1.0  0.008140000000000047  0.51164  0.96121  1.0000
  C   C85       1.0  0.48489000000000004  0.5378399999999997  0.9248000000000001  1.0000
  C   C86       1.0  0.34501999999999994  0.18894999999999995  0.7810900000000002  1.0000
  C   C87       1.0  0.41532  0.16691999999999999  0.8008300000000003  1.0000
  C   C88       1.0  0.5442500000000002  0.4631899999999999  0.8014600000000002  1.0000
  C   C89       1.0  0.6081900000000001  0.19967999999999989  0.78273  1.0000
  C   C90       1.0  0.49401  0.025760000000000012  0.96215  1.0000
  C   C91       1.0  0.49205000000000004  0.52294  0.9622300000000003  1.0000
  C   C92       1.0  0.4777100000000001  0.5242999999999998  0.7835900000000002  1.0000
  C   C93       1.0  0.47894000000000003  0.1884  0.78308  1.0000
  C   C94       1.0  0.4128200000000002  0.5926699999999998  0.8015400000000001  1.0000
  C   C95       1.0  0.08868000000000002  0.58928  0.8325900000000002  1.0000
  C   C96       1.0  0.1554900000000001  0.64911  0.77778  1.0000
  C   C97       1.0  0.48162999999999995  0.54235  0.8925400000000001  1.0000
  C   C98       1.0  0.45192000000000015  0.98135  0.9837  1.0000
  C   C99       1.0  0.61004  0.3882300000000001  0.7826  1.0000
  C   C100      1.0  0.41555999999999993  0.12973  0.83695  1.0000
  C   C101      1.0  0.54407  0.1358899999999999  0.83751  1.0000
  C   C102      1.0  0.4139399999999999  0.6003699999999997  0.83733  1.0000
  C   C103      1.0  0.12892000000000003  0.58474  0.79613  1.0000
  C   C104      1.0  0.7122499999999999  0.46369999999999995  0.9601900000000001  1.0000
  C   C105      1.0  0.15023  0.51685  0.7778500000000003  1.0000
  C   C106      1.0  0.4873  0.05295999999999998  0.92485  1.0000
  C   C107      1.0  0.5461999999999999  0.47035  0.8371600000000002  1.0000
  C   C108      1.0  0.1303100000000001  0.45370999999999995  0.79626  1.0000
  C   C109      1.0  0.9728900000000003  0.5804199999999999  0.9816800000000002  1.0000
  C   C110      1.0  0.5431400000000002  0.17287999999999992  0.8014900000000003  1.0000
  C   C111      1.0  0.48006000000000015  0.11404  0.8558  1.0000
  C   C112      1.0  0.020870000000000024  0.5213  0.92269  1.0000
  C   C113      1.0  0.57232  0.4717199999999998  0.9731400000000002  1.0000
  C   C114      1.0  0.3109300000000001  0.9937100000000002  0.99567  1.0000
  C   C115      1.0  0.08991999999999999  0.45787  0.83271  1.0000
  C   C116      1.0  0.4814499999999999  0.07974999999999996  0.8928200000000002  1.0000
  C   C117      1.0  0.31742000000000015  0.9671699999999998  0.03276  1.0000
  C   C118      1.0  0.24534000000000006  0.99596  0.05956  1.0000
  C   C119      1.0  0.7202499999999998  0.43754999999999994  0.99715  1.0000
  C   C120      1.0  0.4200499999999999  0.5522000000000001  0.98999  1.0000
  C   C121      1.0  0.70279  0.31672  0.99339  1.0000
  C   C122      1.0  0.5419600000000001  0.04425999999999999  0.9793700000000001  1.0000
  C   C123      1.0  0.03439000000000009  0.4311899999999998  0.9803500000000002  1.0000
  C   C124      1.0  0.47681000000000023  0.7509999999999998  0.028390000000000002  1.0000
  C   C125      1.0  0.48066000000000036  0.5389599999999998  0.85565  1.0000
  C   C126      1.0  0.65747  0.43685  0.9474600000000001  1.0000
  C   C127      1.0  0.9887199999999999  0.70329  0.97999  1.0000
  C   C128      1.0  0.73328  0.23263  0.00632  1.0000
  C   C129      1.0  0.9817600000000003  0.69147  0.018230000000000007  1.0000
  C   C130      1.0  0.037679999999999936  0.73953  0.95874  1.0000
  C   C131      1.0  0.7613900000000002  0.73637  0.04639  1.0000
  C   C132      1.0  0.06993999999999996  0.52517  0.85146  1.0000
  C   C133      1.0  0.03862999999999994  0.52494  0.8893900000000001  1.0000
  C   C134      1.0  0.8406400000000005  0.7036599999999997  0.02416  1.0000
  C   C135      1.0  0.4355  0.86196  0.9789000000000001  1.0000
  C   C136      1.0  0.93919  0.67192  0.96625  1.0000
  C   C137      1.0  0.39652  0.95664  0.9703600000000001  1.0000
  C   C138      1.0  0.8474400000000001  0.7160099999999998  0.9859300000000001  1.0000
  C   C139      1.0  0.6713699999999999  0.38948  0.015870000000000006  1.0000
  C   C140      1.0  0.7674000000000001  0.45734  0.013350000000000004  1.0000
  C   C141      1.0  0.23251000000000008  0.04926  0.98524  1.0000
  C   C142      1.0  0.7515999999999999  0.5097099999999998  0.9392  1.0000
  C   C143      1.0  0.4638400000000004  0.80396  0.95405  1.0000
  C   C144      1.0  0.6967000000000001  0.34239  0.95624  1.0000
  C   C145      1.0  0.7231400000000003  0.2842399999999998  0.93171  1.0000
  C   C146      1.0  0.40864000000000006  0.90802  0.03886  1.0000
  C   C147      1.0  0.4421  0.83557  0.01598  1.0000
  C   C148      1.0  0.023830000000000018  0.71565  0.03536  1.0000
  C   C149      1.0  0.8065400000000006  0.50414  0.99234  1.0000
  C   C150      1.0  0.92641  0.65011  0.03691  1.0000
  C   C151      1.0  0.16620000000000004  0.05162999999999998  0.049030000000000004  1.0000
  C   C152      1.0  0.15978  0.07825  0.01215  1.0000
  C   C153      1.0  0.07977999999999996  0.76418  0.97604  1.0000
  C   C154      1.0  0.4992  0.71877  0.96651  1.0000
  C   C155      1.0  0.75499  0.19951999999999992  0.9446700000000002  1.0000
  C   C156      1.0  0.7594100000000001  0.17388999999999996  0.9817400000000001  1.0000
  C   C157      1.0  0.77499  0.76248  0.96975  1.0000
  C   C158      1.0  0.69504  0.7954399999999997  0.9920900000000001  1.0000
  C   C159      1.0  0.6884100000000003  0.78187  0.03009  1.0000
  C   C160      1.0  0.7987499999999998  0.53007  0.9555500000000001  1.0000
  C   C161      1.0  0.50564  0.69247  0.0033900000000000007  1.0000
  C   C162      1.0  0.07311000000000008  0.7522399999999998  0.014060000000000001  1.0000
  C   C163      1.0  0.72172  0.15444999999999992  0.28240000000000004  1.0000
  C   C164      1.0  0.18562999999999996  0.87852  0.27785  1.0000
  C   C165      1.0  0.01910999999999996  0.01166  0.46121000000000006  1.0000
  C   C166      1.0  0.55254  0.03775999999999998  0.4248500000000001  1.0000
  C   C167      1.0  0.18480000000000008  0.6897199999999998  0.2811  1.0000
  C   C168      1.0  0.11662  0.66771  0.30076  1.0000
  C   C169      1.0  0.69055  0.96312  0.30132  1.0000
  C   C170      1.0  0.9092900000000004  0.7001699999999997  0.28249  1.0000
  C   C171      1.0  0.01821999999999996  0.52577  0.4621  1.0000
  C   C172      1.0  0.52283  0.022949999999999963  0.46228000000000014  1.0000
  C   C173      1.0  0.71411  0.024019999999999996  0.28344  1.0000
  C   C174      1.0  0.049450000000000036  0.68918  0.28295  1.0000
  C   C175      1.0  0.69275  0.09218999999999992  0.3014200000000001  1.0000
  C   C176      1.0  0.98938  0.08953999999999998  0.3326700000000001  1.0000
  C   C177      1.0  0.9176700000000001  0.14856  0.27792000000000006  1.0000
  C   C178      1.0  0.58343  0.04193999999999999  0.39254  1.0000
  C   C179      1.0  0.08318999999999994  0.4814  0.48361000000000004  1.0000
  C   C180      1.0  0.7183800000000002  0.8883299999999997  0.2825  1.0000
  C   C181      1.0  0.11727999999999995  0.63036  0.33686000000000005  1.0000
  C   C182      1.0  0.9824000000000002  0.63595  0.33725  1.0000
  C   C183      1.0  0.64827  0.09976999999999997  0.3372700000000001  1.0000
  C   C184      1.0  0.9902499999999997  0.08470999999999992  0.2962800000000001  1.0000
  C   C185      1.0  0.3639  0.96392  0.46035000000000004  1.0000
  C   C186      1.0  0.05527  0.016870000000000007  0.27799  1.0000
  C   C187      1.0  0.03493000000000001  0.55302  0.42474  1.0000
  C   C188      1.0  0.6456600000000001  0.9702799999999999  0.33707000000000004  1.0000
  C   C189      1.0  0.11980000000000017  0.9536999999999997  0.29638  1.0000
  C   C190      1.0  0.96513  0.08044  0.48171  1.0000
  C   C191      1.0  0.98238  0.67331  0.30127  1.0000
  C   C192      1.0  0.04966000000000001  0.61434  0.35564  1.0000
  C   C193      1.0  0.035299999999999984  0.02143999999999997  0.4226900000000001  1.0000
  C   C194      1.0  0.4828700000000002  0.9717799999999999  0.47321  1.0000
  C   C195      1.0  0.19987999999999986  0.4937  0.49552  1.0000
  C   C196      1.0  0.11949  0.9578  0.33281  1.0000
  C   C197      1.0  0.04550999999999995  0.57989  0.39267  1.0000
  C   C198      1.0  0.18260000000000004  0.46719  0.53261  1.0000
  C   C199      1.0  0.19882000000000002  0.4959799999999997  0.5594000000000002  1.0000
  C   C200      1.0  0.34489999999999993  0.9377499999999999  0.49732000000000004  1.0000
  C   C201      1.0  0.53784  0.052140000000000006  0.48994  1.0000
  C   C202      1.0  0.48720000000000013  0.8168699999999997  0.49348000000000003  1.0000
  C   C203      1.0  0.9344100000000002  0.54421  0.4794400000000001  1.0000
  C   C204      1.0  0.05412  0.93117  0.48032  1.0000
  C   C205      1.0  0.24394999999999983  0.25102  0.5282700000000002  1.0000
  C   C206      1.0  0.62447  0.03854  0.35561  1.0000
  C   C207      1.0  0.45841999999999994  0.9370400000000001  0.44756000000000007  1.0000
  C   C208      1.0  0.82799  0.20352000000000003  0.48009  1.0000
  C   C209      1.0  0.52775  0.73275  0.50636  1.0000
  C   C210      1.0  0.8083400000000001  0.19163999999999995  0.5183300000000002  1.0000
  C   C211      1.0  0.7640599999999997  0.23979  0.45888  1.0000
  C   C212      1.0  0.9555300000000004  0.23635999999999993  0.5463500000000001  1.0000
  C   C213      1.0  0.053439999999999974  0.02541  0.3515  1.0000
  C   C214      1.0  0.04711000000000002  0.025289999999999997  0.38939  1.0000
  C   C215      1.0  0.93147  0.20358  0.52416  1.0000
  C   C216      1.0  0.22412  0.36198  0.47879  1.0000
  C   C217      1.0  0.92283  0.17194999999999996  0.46629000000000004  1.0000
  C   C218      1.0  0.17686000000000002  0.45667  0.47023000000000004  1.0000
  C   C219      1.0  0.95081  0.21586000000000002  0.48592  1.0000
  C   C220      1.0  0.42316999999999994  0.88964  0.51599  1.0000
  C   C221      1.0  0.2616100000000002  0.9574200000000002  0.51353  1.0000
  C   C222      1.0  0.23324000000000011  0.5491599999999999  0.48505  1.0000
  C   C223      1.0  0.29955000000000004  0.00985999999999999  0.43938000000000005  1.0000
  C   C224      1.0  0.27876  0.30393  0.45392  1.0000
  C   C225      1.0  0.50497  0.84257  0.45632000000000006  1.0000
  C   C226      1.0  0.56127  0.78443  0.43175  1.0000
  C   C227      1.0  0.14449  0.40807  0.53875  1.0000
  C   C228      1.0  0.20662000000000005  0.3356  0.51587  1.0000
  C   C229      1.0  0.7247700000000002  0.21572999999999998  0.5354900000000001  1.0000
  C   C230      1.0  0.19671  0.004089999999999978  0.4925400000000001  1.0000
  C   C231      1.0  0.8864  0.15015000000000003  0.53695  1.0000
  C   C232      1.0  0.23285000000000014  0.5515799999999996  0.5488300000000002  1.0000
  C   C233      1.0  0.24985000000000002  0.5781  0.5119500000000001  1.0000
  C   C234      1.0  0.6798300000000004  0.26436  0.47622  1.0000
  C   C235      1.0  0.316  0.21872  0.46638  1.0000
  C   C236      1.0  0.6010399999999998  0.69966  0.44467  1.0000
  C   C237      1.0  0.5849800000000002  0.6739999999999998  0.48175  1.0000
  C   C238      1.0  0.9930600000000002  0.26225999999999994  0.46968  1.0000
  C   C239      1.0  0.017469999999999986  0.29526  0.49198  1.0000
  C   C240      1.0  0.9993300000000002  0.28184999999999993  0.5299800000000001  1.0000
  C   C241      1.0  0.21553  0.030059999999999996  0.45575000000000004  1.0000
  C   C242      1.0  0.29876  0.19244  0.50326  1.0000
  C   C243      1.0  0.6602200000000001  0.2522899999999999  0.51424  1.0000
  C   C244      1.0  0.6594399999999999  0.34505  0.21750000000000005  1.0000
  C   C245      1.0  0.84196  0.62164  0.22214000000000003  1.0000
  C   C246      1.0  0.9918700000000001  0.48835999999999996  0.038780000000000016  1.0000
  C   C247      1.0  0.5151100000000002  0.46216  0.07520000000000002  1.0000
  C   C248      1.0  0.6549899999999999  0.81105  0.21891000000000002  1.0000
  C   C249      1.0  0.58469  0.83309  0.19917  1.0000
  C   C250      1.0  0.45576  0.53681  0.19854000000000005  1.0000
  C   C251      1.0  0.39182000000000017  0.80032  0.21727000000000005  1.0000
  C   C252      1.0  0.506  0.97424  0.03784  1.0000
  C   C253      1.0  0.50795  0.47706  0.03777  1.0000
  C   C254      1.0  0.5222900000000001  0.47570999999999997  0.21640000000000006  1.0000
  C   C255      1.0  0.5210700000000001  0.8116  0.21691  1.0000
  C   C256      1.0  0.5871899999999999  0.40733  0.19846000000000003  1.0000
  C   C257      1.0  0.9113300000000001  0.41072  0.16741000000000006  1.0000
  C   C258      1.0  0.84452  0.3509  0.22222  1.0000
  C   C259      1.0  0.51837  0.45766  0.10746  1.0000
  C   C260      1.0  0.54809  0.018649999999999996  0.016290000000000002  1.0000
  C   C261      1.0  0.38997000000000004  0.61177  0.21740000000000004  1.0000
  C   C262      1.0  0.58444  0.87028  0.16305  1.0000
  C   C263      1.0  0.45593000000000006  0.86412  0.16248000000000004  1.0000
  C   C264      1.0  0.58607  0.3996299999999999  0.16266  1.0000
  C   C265      1.0  0.8710800000000003  0.41526999999999986  0.20387000000000002  1.0000
  C   C266      1.0  0.28775  0.53631  0.03981  1.0000
  C   C267      1.0  0.8497800000000003  0.48315999999999976  0.22215  1.0000
  C   C268      1.0  0.5127000000000005  0.9470499999999997  0.07515  1.0000
  C   C269      1.0  0.45380000000000004  0.52966  0.16283000000000006  1.0000
  C   C270      1.0  0.8696900000000001  0.54629  0.20374000000000006  1.0000
  C   C271      1.0  0.027120000000000036  0.4195799999999999  0.01832  1.0000
  C   C272      1.0  0.45687000000000016  0.8271299999999998  0.19851  1.0000
  C   C273      1.0  0.5199400000000002  0.8859699999999998  0.1442  1.0000
  C   C274      1.0  0.97913  0.47870000000000007  0.0773  1.0000
  C   C275      1.0  0.4276800000000001  0.52829  0.02685  1.0000
  C   C276      1.0  0.68907  0.0063  0.00432  1.0000
  C   C277      1.0  0.91009  0.54213  0.16728  1.0000
  C   C278      1.0  0.51855  0.92026  0.10717  1.0000
  C   C279      1.0  0.68259  0.03282999999999995  0.9672400000000001  1.0000
  C   C280      1.0  0.7546700000000003  0.004050000000000009  0.94043  1.0000
  C   C281      1.0  0.27975  0.56246  0.00284  1.0000
  C   C282      1.0  0.57995  0.4478  0.010010000000000003  1.0000
  C   C283      1.0  0.29721999999999993  0.68329  0.006600000000000002  1.0000
  C   C284      1.0  0.45804000000000045  0.9557399999999998  0.02062  1.0000
  C   C285      1.0  0.9656100000000002  0.5688099999999998  0.01964  1.0000
  C   C286      1.0  0.5231900000000002  0.24899999999999992  0.9716100000000002  1.0000
  C   C287      1.0  0.51934  0.4610399999999999  0.14434  1.0000
  C   C288      1.0  0.3425300000000001  0.5631499999999998  0.052530000000000014  1.0000
  C   C289      1.0  0.011280000000000009  0.29671  0.020010000000000003  1.0000
  C   C290      1.0  0.2667200000000001  0.7673699999999999  0.99368  1.0000
  C   C291      1.0  0.018239999999999954  0.30853  0.9817700000000001  1.0000
  C   C292      1.0  0.9623300000000002  0.26046999999999987  0.04126  1.0000
  C   C293      1.0  0.2386100000000002  0.26362999999999975  0.95361  1.0000
  C   C294      1.0  0.93006  0.4748299999999999  0.14854  1.0000
  C   C295      1.0  0.9613700000000001  0.47506999999999994  0.1106  1.0000
  C   C296      1.0  0.15936000000000006  0.29635000000000006  0.97584  1.0000
  C   C297      1.0  0.5645  0.13804  0.021090000000000005  1.0000
  C   C298      1.0  0.06081000000000001  0.32808  0.03374000000000001  1.0000
  C   C299      1.0  0.60348  0.04336  0.02964  1.0000
  C   C300      1.0  0.15256000000000003  0.28399  0.014060000000000001  1.0000
  C   C301      1.0  0.3286299999999999  0.6105299999999999  0.9841300000000002  1.0000
  C   C302      1.0  0.2325999999999999  0.54266  0.98665  1.0000
  C   C303      1.0  0.7674900000000002  0.9507399999999998  0.014760000000000002  1.0000
  C   C304      1.0  0.24840000000000015  0.49028999999999984  0.06079000000000001  1.0000
  C   C305      1.0  0.5361700000000001  0.19604  0.045940000000000016  1.0000
  C   C306      1.0  0.30330000000000007  0.65762  0.04376000000000001  1.0000
  C   C307      1.0  0.2768700000000001  0.7157599999999997  0.06829  1.0000
  C   C308      1.0  0.5913699999999998  0.09197999999999998  0.96113  1.0000
  C   C309      1.0  0.5579  0.16443999999999998  0.98401  1.0000
  C   C310      1.0  0.97617  0.28435  0.96464  1.0000
  C   C311      1.0  0.19346000000000005  0.4958699999999999  0.00766  1.0000
  C   C312      1.0  0.07359999999999997  0.3499  0.96309  1.0000
  C   C313      1.0  0.8338000000000001  0.94837  0.95097  1.0000
  C   C314      1.0  0.84023  0.92176  0.9878400000000002  1.0000
  C   C315      1.0  0.92022  0.23583  0.023960000000000006  1.0000
  C   C316      1.0  0.5008100000000001  0.28123  0.03348000000000002  1.0000
  C   C317      1.0  0.24500999999999998  0.80049  0.05533  1.0000
  C   C318      1.0  0.24060000000000004  0.82611  0.01825  1.0000
  C   C319      1.0  0.22501999999999997  0.23753  0.030250000000000006  1.0000
  C   C320      1.0  0.30497  0.20457  0.007900000000000003  1.0000
  C   C321      1.0  0.3115900000000001  0.21813999999999986  0.9699000000000001  1.0000
  C   C322      1.0  0.20125  0.46993  0.04444  1.0000
  C   C323      1.0  0.4943699999999998  0.30754  0.9966000000000003  1.0000
  C   C324      1.0  0.92689  0.24775999999999995  0.9859400000000001  1.0000
  O   O1        1.0  0.82286  0.27365  0.75136  1.0000
  O   O2        1.0  0.7558100000000001  0.32787  0.70167  1.0000
  O   O3        1.0  0.3022  0.16734000000000002  0.69984  1.0000
  O   O4        1.0  0.15122000000000013  0.31479  0.69967  1.0000
  O   O5        1.0  0.14181999999999997  0.7929799999999999  0.7033800000000002  1.0000
  O   O6        1.0  0.23757000000000006  0.11494000000000001  0.74957  1.0000
  O   O7        1.0  0.08745000000000004  0.26262  0.74986  1.0000
  O   O8        1.0  0.23568000000000014  0.8581999999999999  0.74992  1.0000
  O   O9        1.0  0.29717000000000016  0.7851099999999998  0.69988  1.0000
  O   O10       1.0  0.0802900000000001  0.8617799999999999  0.7547500000000001  1.0000
  O   O11       1.0  0.75787  0.17817000000000002  0.70378  1.0000
  O   O12       1.0  0.82113  0.12403999999999997  0.75463  1.0000
  O   O13       1.0  0.3490600000000001  0.22525999999999988  0.74857  1.0000
  O   O14       1.0  0.28558999999999996  0.17177  0.7983500000000001  1.0000
  O   O15       1.0  0.66863  0.33234  0.80019  1.0000
  O   O16       1.0  0.6650999999999999  0.18544999999999995  0.8007500000000002  1.0000
  O   O17       1.0  0.1368100000000001  0.7078699999999999  0.7964500000000001  1.0000
  O   O18       1.0  0.6013300000000001  0.3851299999999999  0.75054  1.0000
  O   O19       1.0  0.60076  0.23613  0.75023  1.0000
  O   O20       1.0  0.34319000000000016  0.64217  0.75021  1.0000
  O   O21       1.0  0.28091999999999995  0.71547  0.8001700000000002  1.0000
  O   O22       1.0  0.19698999999999986  0.63895  0.7451300000000002  1.0000
  O   O23       1.0  0.13877999999999996  0.32228999999999997  0.7961700000000003  1.0000
  O   O24       1.0  0.20085000000000003  0.37501  0.74551  1.0000
  O   O25       1.0  0.17714  0.72636  0.24864000000000003  1.0000
  O   O26       1.0  0.24419000000000005  0.67214  0.29833  1.0000
  O   O27       1.0  0.69781  0.83267  0.30016  1.0000
  O   O28       1.0  0.8487899999999999  0.68522  0.30032  1.0000
  O   O29       1.0  0.8581799999999999  0.20702  0.29662  1.0000
  O   O30       1.0  0.76243  0.8850599999999997  0.25042  1.0000
  O   O31       1.0  0.9125600000000001  0.7373899999999998  0.25014  1.0000
  O   O32       1.0  0.76432  0.1418  0.25008  1.0000
  O   O33       1.0  0.70283  0.21489000000000003  0.30011  1.0000
  O   O34       1.0  0.9197100000000002  0.13823000000000002  0.24524  1.0000
  O   O35       1.0  0.24213  0.82184  0.29622  1.0000
  O   O36       1.0  0.1788700000000002  0.8759699999999998  0.24536000000000002  1.0000
  O   O37       1.0  0.6509399999999999  0.77475  0.25142  1.0000
  O   O38       1.0  0.7144100000000002  0.8282399999999998  0.20164  1.0000
  O   O39       1.0  0.33138000000000006  0.66767  0.19981  1.0000
  O   O40       1.0  0.33490000000000003  0.81456  0.19924000000000006  1.0000
  O   O41       1.0  0.8631900000000001  0.29214  0.20354  1.0000
  O   O42       1.0  0.3986799999999999  0.61487  0.24945000000000003  1.0000
  O   O43       1.0  0.3992500000000001  0.7638799999999998  0.24976000000000004  1.0000
  O   O44       1.0  0.6568200000000003  0.35783  0.24979000000000007  1.0000
  O   O45       1.0  0.71909  0.28453  0.19982000000000005  1.0000
  O   O46       1.0  0.8030099999999998  0.36105  0.25487  1.0000
  O   O47       1.0  0.86122  0.67771  0.20383  1.0000
  O   O48       1.0  0.7991600000000003  0.62499  0.25449  1.0000
