data_image0
_chemical_formula_structural       Zn12H180C260S20N24O40
_chemical_formula_sum              "Zn12 H180 C260 S20 N24 O40"
_cell_length_a       16.69362
_cell_length_b       22.287
_cell_length_c       21.86573
_cell_angle_alpha    93.92071
_cell_angle_beta     86.84792000000002
_cell_angle_gamma    102.98045

_space_group_name_H-M_alt    "P 1"
_space_group_IT_number       1

loop_
  _space_group_symop_operation_xyz
  'x, y, z'

loop_
  _atom_site_type_symbol
  _atom_site_label
  _atom_site_symmetry_multiplicity
  _atom_site_fract_x
  _atom_site_fract_y
  _atom_site_fract_z
  _atom_site_occupancy
  Zn  Zn1       1.0  0.03396  0.3044  0.01371  1.0000
  Zn  Zn2       1.0  0.30379  0.04407  0.9857100000000001  1.0000
  Zn  Zn3       1.0  0.88596  0.60913  0.51411  1.0000
  Zn  Zn4       1.0  0.47136000000000006  0.70144  0.5255  1.0000
  Zn  Zn5       1.0  0.23666999999999994  0.9950699999999999  0.51379  1.0000
  Zn  Zn6       1.0  0.60611  0.35651999999999995  0.97042  1.0000
  Zn  Zn7       1.0  0.9660399999999999  0.6956  0.98629  1.0000
  Zn  Zn8       1.0  0.69622  0.95593  0.01429  1.0000
  Zn  Zn9       1.0  0.11403999999999999  0.39086999999999994  0.48589  1.0000
  Zn  Zn10      1.0  0.5286399999999998  0.29855  0.47450000000000003  1.0000
  Zn  Zn11      1.0  0.76333  0.004930000000000001  0.48621  1.0000
  Zn  Zn12      1.0  0.3938999999999998  0.6434799999999999  0.02957  1.0000
  H   H1        1.0  0.45858999999999994  0.07225  0.9333600000000001  1.0000
  H   H2        1.0  0.27371  0.54423  0.8450800000000002  1.0000
  H   H3        1.0  0.73439  0.22535999999999998  0.96765  1.0000
  H   H4        1.0  0.7826199999999998  0.25869  0.16052  1.0000
  H   H5        1.0  0.61982  0.21144999999999997  0.04529  1.0000
  H   H6        1.0  0.63604  0.22076  0.12469  1.0000
  H   H7        1.0  0.9292999999999998  0.3041  0.13018  1.0000
  H   H8        1.0  0.35911  0.24861999999999998  0.89319  1.0000
  H   H9        1.0  0.51706  0.0685  0.15129  1.0000
  H   H10       1.0  0.20253  0.12795  0.05837  1.0000
  H   H11       1.0  0.20139  0.2393  0.05767  1.0000
  H   H12       1.0  0.042529999999999984  0.20809  0.09819  1.0000
  H   H13       1.0  0.43240999999999996  0.4315  0.0852  1.0000
  H   H14       1.0  0.03966999999999996  0.77405  0.80942  1.0000
  H   H15       1.0  0.41303  0.34731  0.94128  1.0000
  H   H16       1.0  0.4025699999999999  0.33845  0.02151  1.0000
  H   H17       1.0  0.13069  0.86208  0.89419  1.0000
  H   H18       1.0  0.44863  0.54619  0.09755  1.0000
  H   H19       1.0  0.34617  0.43842  0.9039299999999999  1.0000
  H   H20       1.0  0.8835199999999997  0.27172  0.94492  1.0000
  H   H21       1.0  0.59973  0.11536  0.96613  1.0000
  H   H22       1.0  0.3631299999999999  0.63093  0.77085  1.0000
  H   H23       1.0  0.026670000000000006  0.21102  0.91001  1.0000
  H   H24       1.0  0.24626  0.33643  0.01311  1.0000
  H   H25       1.0  0.2637  0.33370000000000005  0.9327700000000001  1.0000
  H   H26       1.0  0.61914  0.5661  0.39732  1.0000
  H   H27       1.0  0.98977  0.09559  0.89787  1.0000
  H   H28       1.0  0.9453299999999998  0.99891  0.94525  1.0000
  H   H29       1.0  0.91141  0.0018799999999999995  0.023139999999999997  1.0000
  H   H30       1.0  0.60003  0.57497  0.59557  1.0000
  H   H31       1.0  0.0028800000000000006  0.09247  0.09429  1.0000
  H   H32       1.0  0.48174999999999996  0.54105  0.45061  1.0000
  H   H33       1.0  0.47113  0.55657  0.53029  1.0000
  H   H34       1.0  0.66571  0.12061000000000001  0.12837  1.0000
  H   H35       1.0  0.9686299999999999  0.70013  0.7126  1.0000
  H   H36       1.0  0.17235999999999999  0.44506  0.90443  1.0000
  H   H37       1.0  0.36442  0.55266  0.92429  1.0000
  H   H38       1.0  0.70094  0.11936999999999999  0.05084  1.0000
  H   H39       1.0  0.13742  0.44226  0.65265  1.0000
  H   H40       1.0  0.18987  0.91622  0.64879  1.0000
  H   H41       1.0  0.35559  0.13756000000000002  0.9003500000000001  1.0000
  H   H42       1.0  0.7516100000000001  0.6147000000000001  0.59526  1.0000
  H   H43       1.0  0.37751  0.026779999999999998  0.11214  1.0000
  H   H44       1.0  0.76979  0.6029  0.40435  1.0000
  H   H45       1.0  0.5328  0.04244  0.79726  1.0000
  H   H46       1.0  0.38411999999999996  0.20596  0.73577  1.0000
  H   H47       1.0  0.08884999999999998  0.93936  0.43952  1.0000
  H   H48       1.0  0.23182999999999998  0.45049999999999996  0.34075  1.0000
  H   H49       1.0  0.7655399999999999  0.7907499999999998  0.4614  1.0000
  H   H50       1.0  0.7299299999999999  0.7527  0.65357  1.0000
  H   H51       1.0  0.88813  0.7933  0.52876  1.0000
  H   H52       1.0  0.8727899999999998  0.79072  0.60899  1.0000
  H   H53       1.0  0.58218  0.70712  0.63347  1.0000
  H   H54       1.0  0.21353  0.77978  0.39946  1.0000
  H   H55       1.0  0.97539  0.94946  0.65121  1.0000
  H   H56       1.0  0.3014799999999999  0.9068699999999998  0.58629  1.0000
  H   H57       1.0  0.2968  0.79363  0.58417  1.0000
  H   H58       1.0  0.4578  0.80673  0.60982  1.0000
  H   H59       1.0  0.09932999999999995  0.60058  0.59313  1.0000
  H   H60       1.0  0.46886  0.21413999999999997  0.30643  1.0000
  H   H61       1.0  0.11709999999999997  0.6926399999999999  0.46168  1.0000
  H   H62       1.0  0.12719000000000003  0.69541  0.54116  1.0000
  H   H63       1.0  0.37475999999999987  0.12615  0.38323  1.0000
  H   H64       1.0  0.07374000000000003  0.48669  0.58813  1.0000
  H   H65       1.0  0.15284999999999999  0.59366  0.39737  1.0000
  H   H66       1.0  0.61832  0.7396  0.4483  1.0000
  H   H67       1.0  0.94198  0.88558  0.46178  1.0000
  H   H68       1.0  0.14198  0.3675399999999999  0.25593  1.0000
  H   H69       1.0  0.48189  0.78291  0.4204  1.0000
  H   H70       1.0  0.27775  0.69338  0.52529  1.0000
  H   H71       1.0  0.26821999999999996  0.6905999999999999  0.44518  1.0000
  H   H72       1.0  0.9050199999999998  0.4232600000000001  0.88625  1.0000
  H   H73       1.0  0.5219299999999999  0.8966999999999998  0.40881  1.0000
  H   H74       1.0  0.5795899999999998  0.9975399999999998  0.46137  1.0000
  H   H75       1.0  0.57269  0.00846  0.5426  1.0000
  H   H76       1.0  0.87667  0.433  0.0839  1.0000
  H   H77       1.0  0.49685  0.9222499999999999  0.60593  1.0000
  H   H78       1.0  0.02739000000000001  0.45853  0.9470800000000001  1.0000
  H   H79       1.0  0.021649999999999975  0.443  0.02515  1.0000
  H   H80       1.0  0.8397  0.89143  0.61951  1.0000
  H   H81       1.0  0.5440799999999999  0.29091  0.21968  1.0000
  H   H82       1.0  0.33527000000000007  0.54578  0.41057  1.0000
  H   H83       1.0  0.12336  0.47981  0.39909  1.0000
  H   H84       1.0  0.81953  0.8900099999999999  0.54118  1.0000
  H   H85       1.0  0.35177  0.57442  0.15919  1.0000
  H   H86       1.0  0.28432  0.10395  0.13958  1.0000
  H   H87       1.0  0.2150899999999999  0.8923999999999999  0.41102000000000005  1.0000
  H   H88       1.0  0.7281599999999999  0.38237999999999994  0.07242  1.0000
  H   H89       1.0  0.12097999999999999  0.0006000000000000008  0.62115  1.0000
  H   H90       1.0  0.7546999999999998  0.37486  0.88313  1.0000
  H   H91       1.0  0.5414199999999998  0.9277499999999999  0.06663  1.0000
  H   H92       1.0  0.7263  0.45576999999999995  0.15492  1.0000
  H   H93       1.0  0.26561  0.77464  0.03235  1.0000
  H   H94       1.0  0.21738999999999997  0.7413099999999999  0.83947  1.0000
  H   H95       1.0  0.38017999999999996  0.7885499999999999  0.95471  1.0000
  H   H96       1.0  0.36396  0.77924  0.87531  1.0000
  H   H97       1.0  0.07070999999999994  0.6959  0.86982  1.0000
  H   H98       1.0  0.64089  0.7513799999999999  0.10681  1.0000
  H   H99       1.0  0.4829399999999999  0.9315  0.84871  1.0000
  H   H100      1.0  0.79748  0.87205  0.94162  1.0000
  H   H101      1.0  0.79861  0.7607  0.94233  1.0000
  H   H102      1.0  0.9574699999999998  0.7919099999999999  0.90181  1.0000
  H   H103      1.0  0.5676  0.5685  0.9148000000000001  1.0000
  H   H104      1.0  0.96033  0.22595  0.19058  1.0000
  H   H105      1.0  0.58697  0.65269  0.05872  1.0000
  H   H106      1.0  0.59744  0.66155  0.97849  1.0000
  H   H107      1.0  0.86932  0.13792  0.10581000000000002  1.0000
  H   H108      1.0  0.55138  0.45381  0.9024500000000001  1.0000
  H   H109      1.0  0.65384  0.56158  0.09607  1.0000
  H   H110      1.0  0.11649  0.72828  0.05508  1.0000
  H   H111      1.0  0.4002800000000001  0.88464  0.03387  1.0000
  H   H112      1.0  0.6368699999999998  0.36907  0.22915  1.0000
  H   H113      1.0  0.97333  0.78898  0.08998  1.0000
  H   H114      1.0  0.7537399999999999  0.6635699999999999  0.98689  1.0000
  H   H115      1.0  0.7363  0.66629  0.06723  1.0000
  H   H116      1.0  0.38086  0.4339  0.60268  1.0000
  H   H117      1.0  0.010230000000000006  0.90441  0.10213  1.0000
  H   H118      1.0  0.05468  0.0010800000000000004  0.05475  1.0000
  H   H119      1.0  0.08859000000000003  0.9981200000000001  0.97686  1.0000
  H   H120      1.0  0.39996999999999977  0.42503  0.40443  1.0000
  H   H121      1.0  0.9971199999999997  0.9075299999999998  0.9057100000000001  1.0000
  H   H122      1.0  0.51826  0.45895  0.54938  1.0000
  H   H123      1.0  0.52888  0.44342999999999994  0.46971  1.0000
  H   H124      1.0  0.3342999999999999  0.87939  0.87163  1.0000
  H   H125      1.0  0.03138  0.29987  0.2874  1.0000
  H   H126      1.0  0.8276399999999998  0.55494  0.09557  1.0000
  H   H127      1.0  0.6355899999999998  0.44733999999999996  0.07571  1.0000
  H   H128      1.0  0.29906999999999995  0.8806299999999999  0.94916  1.0000
  H   H129      1.0  0.86258  0.55774  0.34735  1.0000
  H   H130      1.0  0.81014  0.08378  0.35121  1.0000
  H   H131      1.0  0.64441  0.8624399999999999  0.09965000000000002  1.0000
  H   H132      1.0  0.24838999999999997  0.3853  0.40474  1.0000
  H   H133      1.0  0.62249  0.9732199999999999  0.88786  1.0000
  H   H134      1.0  0.23020999999999997  0.3971  0.59565  1.0000
  H   H135      1.0  0.4672  0.95756  0.20274  1.0000
  H   H136      1.0  0.6158799999999998  0.79404  0.26423  1.0000
  H   H137      1.0  0.91115  0.06063999999999999  0.56048  1.0000
  H   H138      1.0  0.76817  0.5495  0.65925  1.0000
  H   H139      1.0  0.2344699999999999  0.20925  0.5386  1.0000
  H   H140      1.0  0.27006999999999987  0.2473  0.34642  1.0000
  H   H141      1.0  0.11187  0.2067  0.47124  1.0000
  H   H142      1.0  0.12721  0.20928  0.39101  1.0000
  H   H143      1.0  0.41782  0.29287  0.36653  1.0000
  H   H144      1.0  0.78647  0.22021999999999997  0.60053  1.0000
  H   H145      1.0  0.02461  0.05054  0.34878  1.0000
  H   H146      1.0  0.69852  0.09312999999999999  0.41369999999999996  1.0000
  H   H147      1.0  0.7032  0.20636  0.41582  1.0000
  H   H148      1.0  0.5422000000000001  0.19327000000000003  0.39018  1.0000
  H   H149      1.0  0.90068  0.39942  0.40687  1.0000
  H   H150      1.0  0.53114  0.7858599999999999  0.69357  1.0000
  H   H151      1.0  0.8829099999999999  0.30736  0.53832  1.0000
  H   H152      1.0  0.8728199999999999  0.30458999999999997  0.45884  1.0000
  H   H153      1.0  0.6252399999999998  0.87385  0.61677  1.0000
  H   H154      1.0  0.9262699999999999  0.5133  0.41186999999999996  1.0000
  H   H155      1.0  0.8471500000000001  0.4063400000000001  0.60263  1.0000
  H   H156      1.0  0.38168  0.2604000000000001  0.5517  1.0000
  H   H157      1.0  0.058019999999999995  0.11441999999999998  0.53822  1.0000
  H   H158      1.0  0.85802  0.63246  0.7440700000000001  1.0000
  H   H159      1.0  0.5181199999999999  0.21708999999999998  0.5796  1.0000
  H   H160      1.0  0.72225  0.30662  0.47471  1.0000
  H   H161      1.0  0.73179  0.3094  0.55482  1.0000
  H   H162      1.0  0.09498  0.57674  0.11375000000000002  1.0000
  H   H163      1.0  0.47808  0.10329999999999999  0.59119  1.0000
  H   H164      1.0  0.42041  0.0024599999999999956  0.53862  1.0000
  H   H165      1.0  0.42730999999999997  0.9915399999999999  0.45740000000000003  1.0000
  H   H166      1.0  0.12334000000000002  0.567  0.9161000000000001  1.0000
  H   H167      1.0  0.50315  0.07774999999999999  0.39407  1.0000
  H   H168      1.0  0.97261  0.54147  0.05292  1.0000
  H   H169      1.0  0.9783599999999999  0.557  0.97485  1.0000
  H   H170      1.0  0.1603  0.10856999999999999  0.38049  1.0000
  H   H171      1.0  0.45591999999999977  0.7090899999999999  0.78032  1.0000
  H   H172      1.0  0.66473  0.45421  0.58943  1.0000
  H   H173      1.0  0.87664  0.52019  0.60091  1.0000
  H   H174      1.0  0.18047  0.10998999999999999  0.45882  1.0000
  H   H175      1.0  0.6482299999999998  0.42557999999999996  0.84081  1.0000
  H   H176      1.0  0.71568  0.89604  0.86042  1.0000
  H   H177      1.0  0.7849099999999998  0.1076  0.58898  1.0000
  H   H178      1.0  0.27184  0.61762  0.92758  1.0000
  H   H179      1.0  0.87902  0.9994  0.37884000000000007  1.0000
  H   H180      1.0  0.2453  0.62514  0.11687  1.0000
  C   C1        1.0  0.15783  0.88503  0.68283  1.0000
  C   C2        1.0  0.26695  0.54794  0.74731  1.0000
  C   C3        1.0  0.37631  0.52326  0.95895  1.0000
  C   C4        1.0  0.57052  0.09737  0.06232  1.0000
  C   C5        1.0  0.09081  0.38211999999999996  0.8441099999999999  1.0000
  C   C6        1.0  0.47371  0.07229  0.9812400000000001  1.0000
  C   C7        1.0  0.18236999999999998  0.4680599999999999  0.80628  1.0000
  C   C8        1.0  0.1292499999999999  0.8593299999999999  0.7921000000000001  1.0000
  C   C9        1.0  0.24361999999999995  0.5223  0.8038900000000001  1.0000
  C   C10       1.0  0.2287  0.51809  0.6925  1.0000
  C   C11       1.0  0.04750000000000001  0.33688  0.88811  1.0000
  C   C12       1.0  0.3220799999999999  0.16159  0.9344400000000002  1.0000
  C   C13       1.0  0.16641999999999993  0.46441999999999994  0.69415  1.0000
  C   C14       1.0  0.24718000000000007  0.97716  0.90217  1.0000
  C   C15       1.0  0.14324  0.43989  0.7512299999999998  1.0000
  C   C16       1.0  0.27999  0.25367  0.9753300000000001  1.0000
  C   C17       1.0  0.05930999999999999  0.78956  0.71291  1.0000
  C   C18       1.0  0.74617  0.23675  0.06643  1.0000
  C   C19       1.0  0.65324  0.13217  0.08242  1.0000
  C   C20       1.0  0.77565  0.24179  0.00513  1.0000
  C   C21       1.0  0.95919  0.68806  0.58322  1.0000
  C   C22       1.0  0.80203  0.26086999999999994  0.11222000000000001  1.0000
  C   C23       1.0  0.17163999999999993  0.8988699999999998  0.74535  1.0000
  C   C24       1.0  0.3859999999999999  0.42486  0.9938500000000001  1.0000
  C   C25       1.0  0.65956  0.20330999999999996  0.08081  1.0000
  C   C26       1.0  0.20877999999999997  0.9398499999999999  0.8505799999999999  1.0000
  C   C27       1.0  0.88349  0.28665  0.09596  1.0000
  C   C28       1.0  0.32291  0.22361  0.93041  1.0000
  C   C29       1.0  0.50658  0.07014  0.10279  1.0000
  C   C30       1.0  0.006150000000000004  0.73617  0.623  1.0000
  C   C31       1.0  0.23645  0.15626  0.02275  1.0000
  C   C32       1.0  0.15109999999999998  0.43336  0.85818  1.0000
  C   C33       1.0  0.39396  0.66258  0.64124  1.0000
  C   C34       1.0  0.33675  0.61312  0.67363  1.0000
  C   C35       1.0  0.2355  0.21824  0.0217  1.0000
  C   C36       1.0  0.031039999999999998  0.18058  0.05503  1.0000
  C   C37       1.0  0.4284199999999999  0.046669999999999996  0.08133  1.0000
  C   C38       1.0  0.4155299999999999  0.4564099999999999  0.04858  1.0000
  C   C39       1.0  0.07322  0.80453  0.77533  1.0000
  C   C40       1.0  0.10164  0.83019  0.66717  1.0000
  C   C41       1.0  0.37696  0.3566  0.98344  1.0000
  C   C42       1.0  0.15221  0.8843099999999999  0.85189  1.0000
  C   C43       1.0  0.005700000000000019  0.7367  0.6862  1.0000
  C   C44       1.0  0.42435  0.51999  0.05612  1.0000
  C   C45       1.0  0.36696  0.46011  0.9481499999999999  1.0000
  C   C46       1.0  0.85779  0.26782999999999996  0.99184  1.0000
  C   C47       1.0  0.55263  0.09585  4e-05  1.0000
  C   C48       1.0  0.32794  0.60243  0.73483  1.0000
  C   C49       1.0  0.02303999999999999  0.18251  0.9490800000000001  1.0000
  C   C50       1.0  0.28598  0.32199  0.97589  1.0000
  C   C51       1.0  0.6459799999999998  0.57516  0.44221  1.0000
  C   C52       1.0  0.0013600000000000075  0.11848000000000002  0.9431300000000001  1.0000
  C   C53       1.0  0.96521  0.015290000000000003  0.9916599999999999  1.0000
  C   C54       1.0  0.7196899999999999  0.60174  0.55266  1.0000
  C   C55       1.0  0.6354  0.58021  0.55215  1.0000
  C   C56       1.0  0.5960299999999997  0.56513  0.4961  1.0000
  C   C57       1.0  0.73037  0.59588  0.44570000000000004  1.0000
  C   C58       1.0  0.009440000000000002  0.11671  0.052110000000000004  1.0000
  C   C59       1.0  0.50651  0.53513  0.4946900000000001  1.0000
  C   C60       1.0  0.9922299999999998  0.08417999999999998  0.9953199999999999  1.0000
  C   C61       1.0  0.52182  0.29489  0.8607100000000001  1.0000
  C   C62       1.0  0.35829  0.07299  0.66999  1.0000
  C   C63       1.0  0.3030699999999999  0.07099  0.62118  1.0000
  C   C64       1.0  0.51341  0.23162999999999997  0.83985  1.0000
  C   C65       1.0  0.46864  0.18193  0.799  1.0000
  C   C66       1.0  0.50891  0.13485  0.815  1.0000
  C   C67       1.0  0.40063  0.11078  0.72072  1.0000
  C   C68       1.0  0.4432199999999999  0.06623  0.7393700000000001  1.0000
  C   C69       1.0  0.49896  0.07627  0.78582  1.0000
  C   C70       1.0  0.41298  0.17055  0.75068  1.0000
  C   C71       1.0  0.32405  0.12752000000000002  0.17565  1.0000
  C   C72       1.0  0.23329999999999992  0.45587999999999995  0.24259  1.0000
  C   C73       1.0  0.12015999999999998  0.5083999999999999  0.44116999999999995  1.0000
  C   C74       1.0  0.94704  0.91145  0.55909  1.0000
  C   C75       1.0  0.41209  0.61407  0.35455  1.0000
  C   C76       1.0  0.06073000000000004  0.93925  0.48568  1.0000
  C   C77       1.0  0.31891  0.53135  0.30949  1.0000
  C   C78       1.0  0.36633  0.13834  0.28338  1.0000
  C   C79       1.0  0.2588599999999999  0.4766999999999999  0.30167  1.0000
  C   C80       1.0  0.26708  0.49162  0.19099000000000002  1.0000
  C   C81       1.0  0.45874  0.65622  0.40193  1.0000
  C   C82       1.0  0.2336199999999999  0.86848  0.44783  1.0000
  C   C83       1.0  0.3268999999999999  0.54643  0.19764  1.0000
  C   C84       1.0  0.24494  0.020419999999999997  0.38783999999999996  1.0000
  C   C85       1.0  0.35374  0.56518  0.25685  1.0000
  C   C86       1.0  0.25398  0.7763099999999998  0.49157  1.0000
  C   C87       1.0  0.43945  0.21059  0.21159  1.0000
  C   C88       1.0  0.76161  0.77457  0.5588  1.0000
  C   C89       1.0  0.8604299999999999  0.87736  0.57342  1.0000
  C   C90       1.0  0.72844  0.7709799999999999  0.50072  1.0000
  C   C91       1.0  0.5524199999999998  0.31377  0.09059  1.0000
  C   C92       1.0  0.70822  0.7504399999999999  0.60725  1.0000
  C   C93       1.0  0.31419999999999987  0.10722  0.23541  1.0000
  C   C94       1.0  0.1305799999999999  0.60804  0.49587000000000003  1.0000
  C   C95       1.0  0.85012  0.8061299999999999  0.56795  1.0000
  C   C96       1.0  0.2820199999999998  0.059039999999999995  0.33665  1.0000
  C   C97       1.0  0.62594  0.72456  0.5966  1.0000
  C   C98       1.0  0.23249  0.80577  0.44221  1.0000
  C   C99       1.0  0.9981499999999999  0.94558  0.60384  1.0000
  C   C100      1.0  0.49616999999999994  0.2682  0.12838  1.0000
  C   C101      1.0  0.28110999999999997  0.8764599999999999  0.54633  1.0000
  C   C102      1.0  0.3531299999999999  0.5615  0.36486  1.0000
  C   C103      1.0  0.10749999999999997  0.34663  0.12712  1.0000
  C   C104      1.0  0.16303  0.39579  0.16262  1.0000
  C   C105      1.0  0.27917000000000003  0.8135899999999999  0.54432  1.0000
  C   C106      1.0  0.47177  0.82913  0.56651  1.0000
  C   C107      1.0  0.07884999999999999  0.9741899999999999  0.58771  1.0000
  C   C108      1.0  0.10637000000000003  0.57571  0.54925  1.0000
  C   C109      1.0  0.4285499999999998  0.18991  0.27105  1.0000
  C   C110      1.0  0.38744  0.17894  0.16388  1.0000
  C   C111      1.0  0.15024  0.6772  0.4975  1.0000
  C   C112      1.0  0.34532  0.10991  0.34033  1.0000
  C   C113      1.0  0.49988  0.26149  0.18982  1.0000
  C   C114      1.0  0.09210999999999997  0.51191  0.54697  1.0000
  C   C115      1.0  0.13584  0.572  0.44079  1.0000
  C   C116      1.0  0.64608  0.74371  0.4928600000000001  1.0000
  C   C117      1.0  0.9798  0.90982  0.49873  1.0000
  C   C118      1.0  0.17446000000000006  0.40133  0.22446  1.0000
  C   C119      1.0  0.48401  0.8154599999999999  0.46006  1.0000
  C   C120      1.0  0.24359  0.70725  0.48918000000000006  1.0000
  C   C121      1.0  0.86826  0.41598999999999997  0.9288900000000001  1.0000
  C   C122      1.0  0.50673  0.8787299999999999  0.4541799999999999  1.0000
  C   C123      1.0  0.5388099999999999  0.9868599999999998  0.50222  1.0000
  C   C124      1.0  0.7698799999999999  0.39359999999999995  0.03268  1.0000
  C   C125      1.0  0.8525799999999999  0.42141999999999996  0.03827  1.0000
  C   C126      1.0  0.90427  0.4338000000000001  0.98567  1.0000
  C   C127      1.0  0.7845299999999997  0.38881999999999994  0.9265599999999999  1.0000
  C   C128      1.0  0.49395999999999995  0.89269  0.56395  1.0000
  C   C129      1.0  0.99395  0.46503  0.99076  1.0000
  C   C130      1.0  0.5139899999999998  0.91855  0.5069  1.0000
  C   C131      1.0  0.8421799999999998  0.11496999999999999  0.31717  1.0000
  C   C132      1.0  0.73305  0.45206  0.25269  1.0000
  C   C133      1.0  0.6236899999999999  0.47673999999999994  0.04105  1.0000
  C   C134      1.0  0.42948  0.9026299999999999  0.9376799999999998  1.0000
  C   C135      1.0  0.9091999999999998  0.61788  0.15589  1.0000
  C   C136      1.0  0.52629  0.9277099999999999  0.01875  1.0000
  C   C137      1.0  0.81763  0.53194  0.19372  1.0000
  C   C138      1.0  0.8707499999999998  0.14067  0.20789  1.0000
  C   C139      1.0  0.7563799999999999  0.4776999999999999  0.19610999999999998  1.0000
  C   C140      1.0  0.77131  0.48190999999999995  0.30749  1.0000
  C   C141      1.0  0.9525  0.66312  0.11189  1.0000
  C   C142      1.0  0.67792  0.83841  0.06556  1.0000
  C   C143      1.0  0.8335799999999998  0.53558  0.30585  1.0000
  C   C144      1.0  0.75282  0.02283  0.09783  1.0000
  C   C145      1.0  0.85677  0.56011  0.24877  1.0000
  C   C146      1.0  0.72001  0.7463199999999999  0.024670000000000004  1.0000
  C   C147      1.0  0.9406899999999999  0.21044  0.28709  1.0000
  C   C148      1.0  0.2538299999999999  0.7632499999999999  0.93356  1.0000
  C   C149      1.0  0.34677  0.8678199999999999  0.9175699999999999  1.0000
  C   C150      1.0  0.22435  0.75821  0.99487  1.0000
  C   C151      1.0  0.04082000000000002  0.31194000000000005  0.41678  1.0000
  C   C152      1.0  0.19796999999999995  0.7391299999999998  0.8877700000000001  1.0000
  C   C153      1.0  0.82837  0.10112999999999998  0.25465  1.0000
  C   C154      1.0  0.614  0.57514  0.00615  1.0000
  C   C155      1.0  0.34043999999999996  0.79669  0.91919  1.0000
  C   C156      1.0  0.7912199999999998  0.06015  0.14942  1.0000
  C   C157      1.0  0.11650999999999996  0.7133499999999999  0.9040400000000001  1.0000
  C   C158      1.0  0.6771  0.7763899999999999  0.06959  1.0000
  C   C159      1.0  0.4934299999999998  0.9298499999999998  0.89721  1.0000
  C   C160      1.0  0.9938599999999996  0.26383  0.37699000000000005  1.0000
  C   C161      1.0  0.7635499999999998  0.84374  0.97724  1.0000
  C   C162      1.0  0.8488999999999999  0.56664  0.14182  1.0000
  C   C163      1.0  0.60604  0.33742  0.35875  1.0000
  C   C164      1.0  0.66325  0.38688  0.32637  1.0000
  C   C165      1.0  0.7644999999999998  0.78176  0.9783  1.0000
  C   C166      1.0  0.96896  0.81942  0.9449700000000001  1.0000
  C   C167      1.0  0.57159  0.9533299999999999  0.91867  1.0000
  C   C168      1.0  0.58447  0.54359  0.95142  1.0000
  C   C169      1.0  0.9267799999999999  0.19547  0.22466999999999998  1.0000
  C   C170      1.0  0.89836  0.16981  0.33283  1.0000
  C   C171      1.0  0.62304  0.6433999999999999  0.01656  1.0000
  C   C172      1.0  0.84779  0.11569  0.1481  1.0000
  C   C173      1.0  0.9943000000000001  0.2633  0.3138  1.0000
  C   C174      1.0  0.57565  0.4800099999999999  0.94388  1.0000
  C   C175      1.0  0.63304  0.53989  0.05185  1.0000
  C   C176      1.0  0.14221999999999996  0.7321699999999999  0.00816  1.0000
  C   C177      1.0  0.44737000000000005  0.9041500000000001  0.9999500000000001  1.0000
  C   C178      1.0  0.67206  0.3975699999999999  0.26517  1.0000
  C   C179      1.0  0.9769599999999999  0.8174899999999999  0.05091  1.0000
  C   C180      1.0  0.71403  0.67801  0.02411  1.0000
  C   C181      1.0  0.35402999999999996  0.42484  0.55779  1.0000
  C   C182      1.0  0.9986399999999999  0.8815199999999999  0.056870000000000004  1.0000
  C   C183      1.0  0.03479000000000001  0.98471  0.00833  1.0000
  C   C184      1.0  0.2803099999999999  0.39826  0.44734  1.0000
  C   C185      1.0  0.3646  0.41978999999999994  0.44785  1.0000
  C   C186      1.0  0.40398  0.4348699999999999  0.5039  1.0000
  C   C187      1.0  0.26962999999999987  0.40412  0.5543  1.0000
  C   C188      1.0  0.99057  0.8832899999999998  0.9478899999999999  1.0000
  C   C189      1.0  0.49348999999999993  0.46486  0.50531  1.0000
  C   C190      1.0  0.007769999999999995  0.91582  0.00468  1.0000
  C   C191      1.0  0.47819  0.70511  0.13929  1.0000
  C   C192      1.0  0.64172  0.927  0.33001  1.0000
  C   C193      1.0  0.6969299999999998  0.9290099999999999  0.37882000000000005  1.0000
  C   C194      1.0  0.48659  0.76837  0.16015  1.0000
  C   C195      1.0  0.53136  0.81807  0.20099999999999998  1.0000
  C   C196      1.0  0.49108999999999986  0.8651499999999999  0.18500000000000003  1.0000
  C   C197      1.0  0.59937  0.8892199999999999  0.27928  1.0000
  C   C198      1.0  0.55678  0.93377  0.26063  1.0000
  C   C199      1.0  0.50105  0.9237299999999998  0.21417999999999998  1.0000
  C   C200      1.0  0.58703  0.82945  0.24932  1.0000
  C   C201      1.0  0.6759499999999999  0.87248  0.82435  1.0000
  C   C202      1.0  0.7666999999999999  0.54412  0.75741  1.0000
  C   C203      1.0  0.8798399999999996  0.4916  0.55883  1.0000
  C   C204      1.0  0.052959999999999965  0.08854999999999999  0.44091  1.0000
  C   C205      1.0  0.58791  0.38593  0.64545  1.0000
  C   C206      1.0  0.9392799999999998  0.06075  0.51432  1.0000
  C   C207      1.0  0.6811  0.46865  0.6905  1.0000
  C   C208      1.0  0.63367  0.86166  0.71662  1.0000
  C   C209      1.0  0.74114  0.5233  0.69833  1.0000
  C   C210      1.0  0.73292  0.50838  0.80901  1.0000
  C   C211      1.0  0.54126  0.3437799999999999  0.59806  1.0000
  C   C212      1.0  0.76639  0.13152  0.55217  1.0000
  C   C213      1.0  0.6731  0.4535699999999999  0.80236  1.0000
  C   C214      1.0  0.7550599999999996  0.97958  0.61216  1.0000
  C   C215      1.0  0.6462699999999999  0.43481999999999993  0.74315  1.0000
  C   C216      1.0  0.74602  0.22367999999999996  0.50843  1.0000
  C   C217      1.0  0.56055  0.78941  0.78841  1.0000
  C   C218      1.0  0.23838999999999996  0.22543  0.4412  1.0000
  C   C219      1.0  0.13957  0.12263999999999999  0.42658  1.0000
  C   C220      1.0  0.27157  0.22901999999999997  0.49928  1.0000
  C   C221      1.0  0.44757999999999987  0.68623  0.9094100000000002  1.0000
  C   C222      1.0  0.29179  0.24954999999999994  0.39275  1.0000
  C   C223      1.0  0.6857999999999997  0.8927799999999999  0.7645900000000001  1.0000
  C   C224      1.0  0.86942  0.39196  0.50413  1.0000
  C   C225      1.0  0.1498899999999999  0.19387  0.43205  1.0000
  C   C226      1.0  0.7179799999999998  0.9409599999999999  0.66335  1.0000
  C   C227      1.0  0.3740599999999999  0.27543  0.4033999999999999  1.0000
  C   C228      1.0  0.76751  0.19423  0.55779  1.0000
  C   C229      1.0  0.0018599999999999932  0.05442  0.39616000000000007  1.0000
  C   C230      1.0  0.50384  0.73179  0.87162  1.0000
  C   C231      1.0  0.71889  0.12354  0.4536700000000001  1.0000
  C   C232      1.0  0.64688  0.43849999999999995  0.63514  1.0000
  C   C233      1.0  0.8924999999999997  0.65337  0.8728800000000001  1.0000
  C   C234      1.0  0.83697  0.60421  0.83737  1.0000
  C   C235      1.0  0.7208399999999999  0.18641  0.45568000000000003  1.0000
  C   C236      1.0  0.52823  0.17087  0.43348000000000003  1.0000
  C   C237      1.0  0.92115  0.0258  0.41229  1.0000
  C   C238      1.0  0.89363  0.42429  0.45074  1.0000
  C   C239      1.0  0.57145  0.81009  0.72895  1.0000
  C   C240      1.0  0.61256  0.82106  0.8361199999999999  1.0000
  C   C241      1.0  0.8497599999999997  0.32279999999999986  0.50249  1.0000
  C   C242      1.0  0.6546799999999998  0.8900899999999999  0.65967  1.0000
  C   C243      1.0  0.50013  0.73851  0.81018  1.0000
  C   C244      1.0  0.9079  0.48809  0.45303  1.0000
  C   C245      1.0  0.86416  0.428  0.55921  1.0000
  C   C246      1.0  0.35392  0.25629  0.50714  1.0000
  C   C247      1.0  0.0202  0.09018  0.50126  1.0000
  C   C248      1.0  0.8255399999999999  0.59867  0.77554  1.0000
  C   C249      1.0  0.5159899999999997  0.18454  0.53993  1.0000
  C   C250      1.0  0.75642  0.29274999999999995  0.51082  1.0000
  C   C251      1.0  0.13174999999999995  0.58401  0.0711  1.0000
  C   C252      1.0  0.4932699999999997  0.12127  0.54582  1.0000
  C   C253      1.0  0.46119000000000004  0.013139999999999997  0.49778  1.0000
  C   C254      1.0  0.23012000000000002  0.6064  0.96732  1.0000
  C   C255      1.0  0.14742  0.57858  0.96173  1.0000
  C   C256      1.0  0.09573  0.5662  0.01433  1.0000
  C   C257      1.0  0.21547  0.61118  0.07344  1.0000
  C   C258      1.0  0.50604  0.1073  0.43605000000000005  1.0000
  C   C259      1.0  0.006049999999999984  0.53497  0.00924  1.0000
  C   C260      1.0  0.48600999999999994  0.08144  0.4931  1.0000
  S   S1        1.0  0.27119  0.5571  0.62808  1.0000
  S   S2        1.0  0.23906999999999995  0.9635399999999997  0.77644  1.0000
  S   S3        1.0  0.07266999999999989  0.80148  0.59349  1.0000
  S   S4        1.0  0.06852999999999997  0.37357999999999997  0.7663199999999999  1.0000
  S   S5        1.0  0.5757999999999998  0.18412999999999996  0.86676  1.0000
  S   S6        1.0  0.40286  0.008870000000000003  0.68172  1.0000
  S   S7        1.0  0.22343  0.45706  0.12305  1.0000
  S   S8        1.0  0.24287000000000009  0.04362  0.26279  1.0000
  S   S9        1.0  0.41754999999999987  0.21218999999999996  0.09384  1.0000
  S   S10       1.0  0.42932  0.63008  0.27729  1.0000
  S   S11       1.0  0.72881  0.4429  0.37192000000000003  1.0000
  S   S12       1.0  0.76093  0.03646  0.22356  1.0000
  S   S13       1.0  0.92733  0.19852  0.40651000000000004  1.0000
  S   S14       1.0  0.93147  0.62642  0.23368  1.0000
  S   S15       1.0  0.4242  0.81587  0.13324  1.0000
  S   S16       1.0  0.59714  0.99113  0.31827  1.0000
  S   S17       1.0  0.7765699999999998  0.54294  0.87695  1.0000
  S   S18       1.0  0.75713  0.9563699999999999  0.73721  1.0000
  S   S19       1.0  0.58245  0.78781  0.9061500000000001  1.0000
  S   S20       1.0  0.5706799999999997  0.36992  0.72271  1.0000
  N   N1        1.0  0.41083  0.049179999999999995  0.02162  1.0000
  N   N2        1.0  0.9116099999999999  0.2895  0.03666  1.0000
  N   N3        1.0  0.28008  0.12809  0.98045  1.0000
  N   N4        1.0  0.4037099999999999  0.55308  0.01241  1.0000
  N   N5        1.0  0.03685  0.21318999999999996  0.00435  1.0000
  N   N6        1.0  0.76819  0.6081799999999999  0.50018  1.0000
  N   N7        1.0  0.11040999999999997  0.97037  0.5297  1.0000
  N   N8        1.0  0.59494  0.7208999999999999  0.54027  1.0000
  N   N9        1.0  0.25681999999999994  0.9037599999999999  0.49943  1.0000
  N   N10       1.0  0.10015  0.47761  0.49384  1.0000
  N   N11       1.0  0.46771999999999997  0.79081  0.51549  1.0000
  N   N12       1.0  0.7352899999999999  0.37813  0.9775800000000001  1.0000
  N   N13       1.0  0.58918  0.9508099999999999  0.97838  1.0000
  N   N14       1.0  0.08839000000000001  0.7105  0.9633399999999999  1.0000
  N   N15       1.0  0.7199199999999998  0.8719099999999999  0.01955  1.0000
  N   N16       1.0  0.5962999999999999  0.44692  0.98758  1.0000
  N   N17       1.0  0.9631499999999998  0.78681  0.99564  1.0000
  N   N18       1.0  0.23180999999999993  0.39181999999999995  0.49982  1.0000
  N   N19       1.0  0.8895899999999998  0.02963  0.47029  1.0000
  N   N20       1.0  0.40506  0.2791  0.45973  1.0000
  N   N21       1.0  0.7431899999999998  0.09623999999999999  0.50057  1.0000
  N   N22       1.0  0.89985  0.52239  0.50616  1.0000
  N   N23       1.0  0.53228  0.20918999999999996  0.48450000000000004  1.0000
  N   N24       1.0  0.26472  0.62187  0.02241  1.0000
  O   O1        1.0  0.07881999999999999  0.34825  0.94208  1.0000
  O   O2        1.0  0.38944  0.65458  0.58183  1.0000
  O   O3        1.0  0.9085499999999997  0.64152  0.60596  1.0000
  O   O4        1.0  0.96786  0.69083  0.52379  1.0000
  O   O5        1.0  0.9883399999999999  0.29416999999999993  0.87272  1.0000
  O   O6        1.0  0.4407  0.70587  0.66972  1.0000
  O   O7        1.0  0.21518000000000004  0.96988  0.9578400000000001  1.0000
  O   O8        1.0  0.31343  0.01846  0.89345  1.0000
  O   O9        1.0  0.2861  0.01431  0.59167  1.0000
  O   O10       1.0  0.4700699999999999  0.32682999999999995  0.85216  1.0000
  O   O11       1.0  0.27382  0.1149  0.60656  1.0000
  O   O12       1.0  0.59207  0.31810000000000005  0.8904400000000001  1.0000
  O   O13       1.0  0.42819  0.64569  0.45729000000000003  1.0000
  O   O14       1.0  0.10984999999999999  0.35735999999999996  0.06901  1.0000
  O   O15       1.0  0.6071899999999999  0.35453  0.11546  1.0000
  O   O16       1.0  0.5393  0.30542  0.03218  1.0000
  O   O17       1.0  0.52016  0.697  0.38763  1.0000
  O   O18       1.0  0.06375  0.30051  0.15162  1.0000
  O   O19       1.0  0.2784199999999999  0.03901999999999999  0.44018  1.0000
  O   O20       1.0  0.18598999999999996  0.9754499999999999  0.37825  1.0000
  O   O21       1.0  0.9211799999999998  0.6517499999999999  0.05792  1.0000
  O   O22       1.0  0.6105599999999998  0.34541  0.41816999999999993  1.0000
  O   O23       1.0  0.09145  0.35848  0.39404  1.0000
  O   O24       1.0  0.03214999999999999  0.30917  0.47621  1.0000
  O   O25       1.0  0.01166  0.70583  0.12728  1.0000
  O   O26       1.0  0.5592999999999999  0.29413  0.33028  1.0000
  O   O27       1.0  0.78482  0.03012  0.04216  1.0000
  O   O28       1.0  0.6865699999999999  0.9815399999999999  0.10655000000000002  1.0000
  O   O29       1.0  0.7138999999999999  0.9856899999999998  0.40833  1.0000
  O   O30       1.0  0.5299300000000001  0.67317  0.14783  1.0000
  O   O31       1.0  0.7261799999999999  0.8850999999999999  0.39343  1.0000
  O   O32       1.0  0.40794  0.6819  0.10956  1.0000
  O   O33       1.0  0.57181  0.35431  0.54271  1.0000
  O   O34       1.0  0.89015  0.64264  0.9309899999999999  1.0000
  O   O35       1.0  0.39281  0.64547  0.88454  1.0000
  O   O36       1.0  0.4607  0.69458  0.9678200000000001  1.0000
  O   O37       1.0  0.47984999999999994  0.303  0.61237  1.0000
  O   O38       1.0  0.9362499999999998  0.69949  0.84837  1.0000
  O   O39       1.0  0.7215799999999998  0.9609799999999998  0.55982  1.0000
  O   O40       1.0  0.81401  0.02455  0.62175  1.0000
