data_image0
_chemical_formula_structural       Cu24H128C304O128
_chemical_formula_sum              "Cu24 H128 C304 O128"
_cell_length_a       19.80853
_cell_length_b       27.13769
_cell_length_c       27.37575
_cell_angle_alpha    90.0
_cell_angle_beta     89.99720999999998
_cell_angle_gamma    90.0

_space_group_name_H-M_alt    "P 1"
_space_group_IT_number       1

loop_
  _space_group_symop_operation_xyz
  'x, y, z'

loop_
  _atom_site_type_symbol
  _atom_site_label
  _atom_site_symmetry_multiplicity
  _atom_site_fract_x
  _atom_site_fract_y
  _atom_site_fract_z
  _atom_site_occupancy
  Cu  Cu1       1.0  0.9581100000000001  0.46674  0.4998699999999999  1.0000
  Cu  Cu2       1.0  0.54176  0.53335  0.9997399999999999  1.0000
  Cu  Cu3       1.0  0.04189  0.9667299999999999  0.50013  1.0000
  Cu  Cu4       1.0  0.45824000000000004  0.03335  0.00026  1.0000
  Cu  Cu5       1.0  0.04189  0.53326  0.50013  1.0000
  Cu  Cu6       1.0  0.45824000000000004  0.4666499999999999  0.00026  1.0000
  Cu  Cu7       1.0  0.9581100000000001  0.03326  0.4998699999999999  1.0000
  Cu  Cu8       1.0  0.54176  0.9666499999999998  0.9997399999999999  1.0000
  Cu  Cu9       1.0  0.05251000000000001  0.24999999999999994  0.23656  1.0000
  Cu  Cu10      1.0  0.97223  0.24999999999999994  0.30457  1.0000
  Cu  Cu11      1.0  0.4481800000000001  0.75  0.7361999999999997  1.0000
  Cu  Cu12      1.0  0.5292900000000001  0.75  0.80371  1.0000
  Cu  Cu13      1.0  0.9474900000000002  0.75  0.76344  1.0000
  Cu  Cu14      1.0  0.02777  0.75  0.69543  1.0000
  Cu  Cu15      1.0  0.55182  0.24999999999999994  0.2638  1.0000
  Cu  Cu16      1.0  0.47071  0.24999999999999994  0.19628  1.0000
  Cu  Cu17      1.0  0.44891  0.75  0.26347  1.0000
  Cu  Cu18      1.0  0.52935  0.75  0.19537999999999997  1.0000
  Cu  Cu19      1.0  0.05124  0.24999999999999994  0.76356  1.0000
  Cu  Cu20      1.0  0.96977  0.24999999999999994  0.69613  1.0000
  Cu  Cu21      1.0  0.55109  0.24999999999999994  0.73653  1.0000
  Cu  Cu22      1.0  0.47065  0.24999999999999994  0.80462  1.0000
  Cu  Cu23      1.0  0.94876  0.75  0.23644  1.0000
  Cu  Cu24      1.0  0.03023  0.75  0.30387  1.0000
  H   H1        1.0  0.32399  0.41899  0.48958999999999997  1.0000
  H   H2        1.0  0.09213  0.63635  0.01023  1.0000
  H   H3        1.0  0.06333  0.6703299999999999  0.12891  1.0000
  H   H4        1.0  0.20987  0.55348  0.12754  1.0000
  H   H5        1.0  0.1453  0.61704  0.2645  1.0000
  H   H6        1.0  0.36882  0.4792599999999999  0.2306  1.0000
  H   H7        1.0  0.13207  0.52098  0.26874  1.0000
  H   H8        1.0  0.17211  0.3782199999999999  0.26944  1.0000
  H   H9        1.0  0.03933  0.36775999999999986  0.39332  1.0000
  H   H10       1.0  0.15764  0.49875  0.3719099999999999  1.0000
  H   H11       1.0  0.35620000000000007  0.38296999999999987  0.23533  1.0000
  H   H12       1.0  0.29133  0.44824999999999987  0.37119  1.0000
  H   H13       1.0  0.43633  0.33035  0.37199  1.0000
  H   H14       1.0  0.46195  0.6325799999999999  0.10656  1.0000
  H   H15       1.0  0.34306  0.50177  0.12766  1.0000
  H   H16       1.0  0.32944  0.62192  0.23058  1.0000
  H   H17       1.0  0.17417  0.58094  0.98949  1.0000
  H   H18       1.0  0.40668  0.36375999999999986  0.51009  1.0000
  H   H19       1.0  0.43622  0.32965  0.62866  1.0000
  H   H20       1.0  0.28955  0.4464  0.62791  1.0000
  H   H21       1.0  0.35562  0.3831699999999999  0.76466  1.0000
  H   H22       1.0  0.13152  0.52117  0.7303  1.0000
  H   H23       1.0  0.36811  0.4793699999999999  0.76869  1.0000
  H   H24       1.0  0.32849  0.6219699999999999  0.76901  1.0000
  H   H25       1.0  0.46188000000000007  0.63225  0.89256  1.0000
  H   H26       1.0  0.34256  0.5016299999999999  0.87172  1.0000
  H   H27       1.0  0.14366  0.6173899999999998  0.73507  1.0000
  H   H28       1.0  0.20867  0.5522799999999999  0.8709499999999999  1.0000
  H   H29       1.0  0.06314  0.66981  0.87176  1.0000
  H   H30       1.0  0.03824000000000001  0.36725999999999986  0.6069299999999999  1.0000
  H   H31       1.0  0.15654  0.49836  0.62785  1.0000
  H   H32       1.0  0.17147  0.37818  0.73059  1.0000
  H   H33       1.0  0.67601  0.9189899999999998  0.51041  1.0000
  H   H34       1.0  0.90787  0.13635  0.98977  1.0000
  H   H35       1.0  0.9366700000000001  0.17033  0.87109  1.0000
  H   H36       1.0  0.79013  0.05348  0.87246  1.0000
  H   H37       1.0  0.8547  0.11703999999999998  0.7355  1.0000
  H   H38       1.0  0.63118  0.9792599999999998  0.7694  1.0000
  H   H39       1.0  0.8679300000000001  0.02097999999999999  0.7312599999999998  1.0000
  H   H40       1.0  0.8279000000000001  0.87821  0.7305599999999998  1.0000
  H   H41       1.0  0.9606700000000001  0.8677599999999998  0.60668  1.0000
  H   H42       1.0  0.8423600000000001  0.9987499999999999  0.6280899999999998  1.0000
  H   H43       1.0  0.6438  0.8829699999999998  0.76467  1.0000
  H   H44       1.0  0.70867  0.94825  0.62881  1.0000
  H   H45       1.0  0.56368  0.83035  0.62801  1.0000
  H   H46       1.0  0.53805  0.13258  0.89343  1.0000
  H   H47       1.0  0.65694  0.00177  0.8723299999999998  1.0000
  H   H48       1.0  0.67056  0.12191999999999997  0.76942  1.0000
  H   H49       1.0  0.82583  0.08093999999999997  0.01051  1.0000
  H   H50       1.0  0.59332  0.8637599999999998  0.4899  1.0000
  H   H51       1.0  0.56378  0.82965  0.37134  1.0000
  H   H52       1.0  0.71045  0.9463999999999999  0.37209  1.0000
  H   H53       1.0  0.64438  0.8831699999999998  0.23533999999999994  1.0000
  H   H54       1.0  0.86849  0.021169999999999994  0.2697  1.0000
  H   H55       1.0  0.63189  0.9793699999999997  0.2313  1.0000
  H   H56       1.0  0.6715100000000002  0.12196999999999997  0.23098999999999995  1.0000
  H   H57       1.0  0.53812  0.13226  0.10744  1.0000
  H   H58       1.0  0.65744  0.00163  0.12828  1.0000
  H   H59       1.0  0.85634  0.11738999999999997  0.26492  1.0000
  H   H60       1.0  0.79133  0.05228  0.12904  1.0000
  H   H61       1.0  0.93686  0.16980999999999996  0.12824  1.0000
  H   H62       1.0  0.9617600000000001  0.8672599999999998  0.39306  1.0000
  H   H63       1.0  0.84346  0.9983599999999999  0.37215  1.0000
  H   H64       1.0  0.8285300000000001  0.8781799999999997  0.26941  1.0000
  H   H65       1.0  0.67601  0.5810099999999999  0.51041  1.0000
  H   H66       1.0  0.90787  0.36364999999999986  0.98977  1.0000
  H   H67       1.0  0.9366700000000001  0.3296699999999999  0.87109  1.0000
  H   H68       1.0  0.79013  0.44652  0.87246  1.0000
  H   H69       1.0  0.8547  0.38295999999999997  0.7355  1.0000
  H   H70       1.0  0.63118  0.52074  0.7694  1.0000
  H   H71       1.0  0.8679300000000001  0.4790199999999999  0.7312599999999998  1.0000
  H   H72       1.0  0.8279000000000001  0.6217799999999999  0.7305599999999998  1.0000
  H   H73       1.0  0.9606700000000001  0.63224  0.60668  1.0000
  H   H74       1.0  0.8423600000000001  0.50125  0.6280899999999998  1.0000
  H   H75       1.0  0.6438  0.61703  0.76467  1.0000
  H   H76       1.0  0.70867  0.55175  0.62881  1.0000
  H   H77       1.0  0.56367  0.6696499999999997  0.62801  1.0000
  H   H78       1.0  0.53805  0.36742  0.89343  1.0000
  H   H79       1.0  0.65694  0.4982299999999999  0.8723299999999998  1.0000
  H   H80       1.0  0.67056  0.37808  0.76942  1.0000
  H   H81       1.0  0.82583  0.4190599999999999  0.01051  1.0000
  H   H82       1.0  0.59332  0.6362299999999997  0.4899  1.0000
  H   H83       1.0  0.56378  0.6703499999999998  0.37134  1.0000
  H   H84       1.0  0.71045  0.5536  0.37209  1.0000
  H   H85       1.0  0.64438  0.61683  0.23533999999999994  1.0000
  H   H86       1.0  0.86849  0.47882999999999987  0.2697  1.0000
  H   H87       1.0  0.63189  0.52062  0.2313  1.0000
  H   H88       1.0  0.6715100000000002  0.37803  0.23098999999999995  1.0000
  H   H89       1.0  0.53812  0.36774  0.10744  1.0000
  H   H90       1.0  0.65744  0.49837  0.12828  1.0000
  H   H91       1.0  0.85634  0.38260999999999995  0.26492  1.0000
  H   H92       1.0  0.79133  0.44772  0.12905  1.0000
  H   H93       1.0  0.93686  0.33019  0.12824  1.0000
  H   H94       1.0  0.9617600000000001  0.63274  0.39306  1.0000
  H   H95       1.0  0.84346  0.50164  0.37215  1.0000
  H   H96       1.0  0.8285300000000001  0.62182  0.26941  1.0000
  H   H97       1.0  0.32399  0.08101  0.48958999999999997  1.0000
  H   H98       1.0  0.09213  0.8636499999999998  0.01023  1.0000
  H   H99       1.0  0.06333  0.82967  0.12891  1.0000
  H   H100      1.0  0.20987  0.9465199999999998  0.12754  1.0000
  H   H101      1.0  0.1453  0.8829599999999997  0.2645  1.0000
  H   H102      1.0  0.36882  0.02074  0.2306  1.0000
  H   H103      1.0  0.13207  0.97902  0.26874  1.0000
  H   H104      1.0  0.17211  0.12177999999999999  0.26944  1.0000
  H   H105      1.0  0.03933  0.13223999999999997  0.39332  1.0000
  H   H106      1.0  0.15764  0.0012499999999999998  0.3719099999999999  1.0000
  H   H107      1.0  0.35620000000000007  0.11702999999999997  0.23533  1.0000
  H   H108      1.0  0.29133  0.051749999999999984  0.37119  1.0000
  H   H109      1.0  0.43633  0.16965  0.37199  1.0000
  H   H110      1.0  0.46195  0.86742  0.10656  1.0000
  H   H111      1.0  0.34306  0.99822  0.12766  1.0000
  H   H112      1.0  0.32944  0.8780799999999997  0.23058  1.0000
  H   H113      1.0  0.17417  0.91906  0.98949  1.0000
  H   H114      1.0  0.40668  0.13624  0.51009  1.0000
  H   H115      1.0  0.43622  0.17035  0.62866  1.0000
  H   H116      1.0  0.28955  0.0536  0.62791  1.0000
  H   H117      1.0  0.35562  0.11683  0.76466  1.0000
  H   H118      1.0  0.13151  0.97883  0.7303  1.0000
  H   H119      1.0  0.36811  0.02063  0.76869  1.0000
  H   H120      1.0  0.32849  0.87803  0.76901  1.0000
  H   H121      1.0  0.46188000000000007  0.8677399999999997  0.89256  1.0000
  H   H122      1.0  0.34256  0.9983599999999999  0.87172  1.0000
  H   H123      1.0  0.14366  0.88261  0.73507  1.0000
  H   H124      1.0  0.20867  0.9477199999999998  0.8709499999999999  1.0000
  H   H125      1.0  0.06314  0.8301799999999999  0.87176  1.0000
  H   H126      1.0  0.03824000000000001  0.13273999999999997  0.6069299999999999  1.0000
  H   H127      1.0  0.15654  0.00164  0.62785  1.0000
  H   H128      1.0  0.17147  0.12181999999999997  0.73059  1.0000
  C   C1        1.0  0.4253  0.6798399999999999  0.18877  1.0000
  C   C2        1.0  0.07626  0.3202499999999999  0.31116  1.0000
  C   C3        1.0  0.10458  0.36754  0.33015  1.0000
  C   C4        1.0  0.06532  0.4573099999999999  0.43191999999999997  1.0000
  C   C5        1.0  0.43552  0.54301  0.06783  1.0000
  C   C6        1.0  0.05967  0.6844799999999998  0.22648  1.0000
  C   C7        1.0  0.10103000000000001  0.64754  0.1994  1.0000
  C   C8        1.0  0.09715  0.6456999999999999  0.14838999999999994  1.0000
  C   C9        1.0  0.13791000000000003  0.6123699999999999  0.12277999999999999  1.0000
  C   C10       1.0  0.17998  0.57978  0.14828  1.0000
  C   C11       1.0  0.18165000000000003  0.57978  0.19955999999999996  1.0000
  C   C12       1.0  0.14318  0.61494  0.22482999999999995  1.0000
  C   C13       1.0  0.2192  0.54081  0.22616  1.0000
  C   C14       1.0  0.28654  0.52824  0.21493  1.0000
  C   C15       1.0  0.31614  0.48766  0.23818  1.0000
  C   C16       1.0  0.28171  0.4594399999999999  0.27315  1.0000
  C   C17       1.0  0.21441000000000002  0.47209  0.28454  1.0000
  C   C18       1.0  0.18479  0.51263  0.2612  1.0000
  C   C19       1.0  0.17126  0.4417799999999999  0.31733  1.0000
  C   C20       1.0  0.15233  0.3940799999999999  0.30299  1.0000
  C   C21       1.0  0.07734  0.38784  0.37279  1.0000
  C   C22       1.0  0.14396  0.46177  0.36017  1.0000
  C   C23       1.0  0.44145  0.31567  0.27393  1.0000
  C   C24       1.0  0.31945  0.42068  0.29988  1.0000
  C   C25       1.0  0.35801  0.38531  0.27501  1.0000
  C   C26       1.0  0.39991  0.35278  0.30087  1.0000
  C   C27       1.0  0.32111  0.42139  0.3511399999999999  1.0000
  C   C28       1.0  0.40314  0.35497999999999996  0.35189  1.0000
  C   C29       1.0  0.36255  0.38879  0.37709  1.0000
  C   C30       1.0  0.36497  0.39012999999999987  0.43139  1.0000
  C   C31       1.0  0.13655000000000003  0.61042  0.06848  1.0000
  C   C32       1.0  0.09751  0.4347  0.38803999999999994  1.0000
  C   C33       1.0  0.39681000000000005  0.63266  0.16974  1.0000
  C   C34       1.0  0.42396  0.61243  0.12704  1.0000
  C   C35       1.0  0.40358  0.5656499999999999  0.11170999999999998  1.0000
  C   C36       1.0  0.32979  0.55863  0.18234  1.0000
  C   C37       1.0  0.357  0.5386699999999999  0.13949  1.0000
  C   C38       1.0  0.34904  0.6061799999999998  0.1969  1.0000
  C   C39       1.0  0.07506  0.32022  0.68955  1.0000
  C   C40       1.0  0.42468  0.67973  0.8103099999999999  1.0000
  C   C41       1.0  0.39633  0.6325799999999999  0.82957  1.0000
  C   C42       1.0  0.43593  0.54281  0.93125  1.0000
  C   C43       1.0  0.06488  0.45708  0.568  1.0000
  C   C44       1.0  0.44125000000000003  0.3156099999999999  0.7264  1.0000
  C   C45       1.0  0.3994  0.35249999999999987  0.69944  1.0000
  C   C46       1.0  0.4027  0.35431  0.64839  1.0000
  C   C47       1.0  0.36163  0.38754  0.62288  1.0000
  C   C48       1.0  0.31975  0.4201499999999999  0.64851  1.0000
  C   C49       1.0  0.3185  0.42020999999999986  0.69979  1.0000
  C   C50       1.0  0.35733  0.38514  0.72497  1.0000
  C   C51       1.0  0.28096  0.4592899999999999  0.7262999999999997  1.0000
  C   C52       1.0  0.21367000000000003  0.4719499999999999  0.71498  1.0000
  C   C53       1.0  0.18415  0.51272  0.7379899999999998  1.0000
  C   C54       1.0  0.2185  0.54102  0.77295  1.0000
  C   C55       1.0  0.28577  0.5283  0.7843899999999999  1.0000
  C   C56       1.0  0.31537  0.48766  0.76117  1.0000
  C   C57       1.0  0.32908  0.55858  0.81709  1.0000
  C   C58       1.0  0.34831000000000006  0.60614  0.8025799999999997  1.0000
  C   C59       1.0  0.42368  0.61224  0.87215  1.0000
  C   C60       1.0  0.35650000000000004  0.5385199999999999  0.85988  1.0000
  C   C61       1.0  0.05748000000000001  0.68439  0.77364  1.0000
  C   C62       1.0  0.18061  0.57982  0.7996199999999999  1.0000
  C   C63       1.0  0.14178  0.6150599999999999  0.77475  1.0000
  C   C64       1.0  0.0996  0.6475099999999998  0.80053  1.0000
  C   C65       1.0  0.17880000000000001  0.57909  0.8509  1.0000
  C   C66       1.0  0.09641000000000001  0.6453099999999998  0.8515699999999999  1.0000
  C   C67       1.0  0.13702  0.61154  0.87682  1.0000
  C   C68       1.0  0.13395000000000004  0.61002  0.93116  1.0000
  C   C69       1.0  0.36255  0.38941  0.56852  1.0000
  C   C70       1.0  0.40339  0.56542  0.8875  1.0000
  C   C71       1.0  0.10351  0.3673099999999999  0.67007  1.0000
  C   C72       1.0  0.07621000000000001  0.38749  0.62735  1.0000
  C   C73       1.0  0.09652  0.43431  0.61195  1.0000
  C   C74       1.0  0.17039  0.4415  0.6824899999999998  1.0000
  C   C75       1.0  0.14292  0.46142  0.63973  1.0000
  C   C76       1.0  0.15147000000000002  0.39386999999999994  0.69701  1.0000
  C   C77       1.0  0.5747  0.17984  0.81123  1.0000
  C   C78       1.0  0.92374  0.82025  0.6888399999999999  1.0000
  C   C79       1.0  0.8954200000000001  0.8675399999999998  0.66985  1.0000
  C   C80       1.0  0.93468  0.9573099999999999  0.56808  1.0000
  C   C81       1.0  0.5644800000000001  0.043009999999999986  0.9321599999999998  1.0000
  C   C82       1.0  0.9403300000000001  0.18447999999999995  0.7735099999999999  1.0000
  C   C83       1.0  0.89897  0.14753999999999995  0.8005999999999998  1.0000
  C   C84       1.0  0.9028500000000002  0.1457  0.8516  1.0000
  C   C85       1.0  0.86209  0.11238  0.87722  1.0000
  C   C86       1.0  0.8200200000000001  0.07978  0.85171  1.0000
  C   C87       1.0  0.8183500000000001  0.07978  0.80044  1.0000
  C   C88       1.0  0.8568200000000001  0.11493999999999997  0.77517  1.0000
  C   C89       1.0  0.7808000000000002  0.04081  0.77383  1.0000
  C   C90       1.0  0.71346  0.028239999999999994  0.7850699999999998  1.0000
  C   C91       1.0  0.68387  0.9876499999999998  0.76182  1.0000
  C   C92       1.0  0.71829  0.9594399999999997  0.72685  1.0000
  C   C93       1.0  0.78559  0.97209  0.71546  1.0000
  C   C94       1.0  0.81522  0.01263  0.7388  1.0000
  C   C95       1.0  0.8287400000000001  0.94177  0.68266  1.0000
  C   C96       1.0  0.8476700000000001  0.8940799999999998  0.697  1.0000
  C   C97       1.0  0.92266  0.88784  0.6271999999999999  1.0000
  C   C98       1.0  0.85604  0.96177  0.63983  1.0000
  C   C99       1.0  0.55855  0.8156699999999999  0.72607  1.0000
  C   C100      1.0  0.6805500000000001  0.9206799999999998  0.70012  1.0000
  C   C101      1.0  0.64199  0.88531  0.72499  1.0000
  C   C102      1.0  0.60009  0.85278  0.6991299999999999  1.0000
  C   C103      1.0  0.6789  0.9213899999999998  0.6488599999999998  1.0000
  C   C104      1.0  0.59686  0.85498  0.64811  1.0000
  C   C105      1.0  0.63745  0.8887899999999997  0.62291  1.0000
  C   C106      1.0  0.63504  0.89013  0.5686  1.0000
  C   C107      1.0  0.86346  0.11041999999999998  0.93152  1.0000
  C   C108      1.0  0.9024900000000001  0.9346999999999999  0.6119599999999998  1.0000
  C   C109      1.0  0.60319  0.13266  0.83025  1.0000
  C   C110      1.0  0.57604  0.11243  0.87296  1.0000
  C   C111      1.0  0.59643  0.06565  0.88829  1.0000
  C   C112      1.0  0.6702100000000001  0.05863  0.81766  1.0000
  C   C113      1.0  0.643  0.03867  0.86051  1.0000
  C   C114      1.0  0.65097  0.10617999999999997  0.8030999999999999  1.0000
  C   C115      1.0  0.9249400000000001  0.8202199999999997  0.31045  1.0000
  C   C116      1.0  0.5753200000000002  0.17974  0.18968999999999994  1.0000
  C   C117      1.0  0.6036700000000002  0.13258  0.17043  1.0000
  C   C118      1.0  0.56407  0.04280999999999999  0.06875  1.0000
  C   C119      1.0  0.93512  0.95708  0.4319999999999999  1.0000
  C   C120      1.0  0.5587500000000001  0.8156099999999997  0.27359  1.0000
  C   C121      1.0  0.6006  0.8524999999999999  0.30056  1.0000
  C   C122      1.0  0.5973  0.8543099999999999  0.35161  1.0000
  C   C123      1.0  0.63837  0.88753  0.37712  1.0000
  C   C124      1.0  0.6802500000000001  0.92015  0.35148999999999997  1.0000
  C   C125      1.0  0.6815  0.9202099999999998  0.30021  1.0000
  C   C126      1.0  0.6426700000000001  0.8851399999999999  0.27503  1.0000
  C   C127      1.0  0.71904  0.95929  0.2737  1.0000
  C   C128      1.0  0.78634  0.9719499999999998  0.28502  1.0000
  C   C129      1.0  0.8158500000000001  0.012719999999999997  0.262  1.0000
  C   C130      1.0  0.7815  0.04101999999999999  0.22705  1.0000
  C   C131      1.0  0.71424  0.028299999999999992  0.21560999999999997  1.0000
  C   C132      1.0  0.6846300000000001  0.9876599999999998  0.23882999999999996  1.0000
  C   C133      1.0  0.67092  0.05858  0.1829  1.0000
  C   C134      1.0  0.6517000000000001  0.10613999999999997  0.19742  1.0000
  C   C135      1.0  0.57632  0.11224  0.12785  1.0000
  C   C136      1.0  0.6435000000000001  0.03852999999999999  0.14012  1.0000
  C   C137      1.0  0.9425200000000001  0.18439  0.22636  1.0000
  C   C138      1.0  0.8194  0.07982  0.20036999999999994  1.0000
  C   C139      1.0  0.85823  0.11505999999999998  0.22524999999999995  1.0000
  C   C140      1.0  0.9004000000000001  0.14750999999999997  0.19945999999999997  1.0000
  C   C141      1.0  0.8212  0.07908999999999997  0.1491  1.0000
  C   C142      1.0  0.90359  0.14532  0.14842  1.0000
  C   C143      1.0  0.86298  0.11155  0.12318  1.0000
  C   C144      1.0  0.8660500000000001  0.11001999999999998  0.06884  1.0000
  C   C145      1.0  0.63745  0.88941  0.43148  1.0000
  C   C146      1.0  0.5966100000000001  0.06542  0.1125  1.0000
  C   C147      1.0  0.8965000000000001  0.86731  0.32993  1.0000
  C   C148      1.0  0.92379  0.8874899999999998  0.37264999999999987  1.0000
  C   C149      1.0  0.90349  0.9343099999999998  0.38805  1.0000
  C   C150      1.0  0.8296100000000001  0.9414999999999999  0.31750999999999996  1.0000
  C   C151      1.0  0.85708  0.9614199999999998  0.36027  1.0000
  C   C152      1.0  0.8485300000000001  0.8938699999999998  0.30298  1.0000
  C   C153      1.0  0.5747  0.3201599999999999  0.81123  1.0000
  C   C154      1.0  0.92374  0.6797499999999997  0.6888399999999999  1.0000
  C   C155      1.0  0.8954200000000001  0.63246  0.66985  1.0000
  C   C156      1.0  0.93468  0.54269  0.56808  1.0000
  C   C157      1.0  0.5644800000000001  0.4569899999999999  0.9321599999999998  1.0000
  C   C158      1.0  0.9403300000000001  0.31552  0.7735099999999999  1.0000
  C   C159      1.0  0.89897  0.35246  0.8005999999999998  1.0000
  C   C160      1.0  0.9028500000000002  0.3542999999999999  0.8516  1.0000
  C   C161      1.0  0.86209  0.3876199999999999  0.87722  1.0000
  C   C162      1.0  0.8200200000000001  0.42021999999999987  0.85171  1.0000
  C   C163      1.0  0.8183500000000001  0.42021999999999987  0.80044  1.0000
  C   C164      1.0  0.8568200000000001  0.38505999999999996  0.77517  1.0000
  C   C165      1.0  0.7808000000000002  0.45918999999999993  0.77383  1.0000
  C   C166      1.0  0.71346  0.4717599999999999  0.7850699999999998  1.0000
  C   C167      1.0  0.68387  0.5123399999999999  0.76182  1.0000
  C   C168      1.0  0.71829  0.54056  0.72685  1.0000
  C   C169      1.0  0.78559  0.5279099999999999  0.71546  1.0000
  C   C170      1.0  0.81522  0.4873699999999999  0.7388  1.0000
  C   C171      1.0  0.8287400000000001  0.55822  0.68266  1.0000
  C   C172      1.0  0.8476700000000001  0.60592  0.697  1.0000
  C   C173      1.0  0.92266  0.61215  0.6271999999999999  1.0000
  C   C174      1.0  0.85604  0.53822  0.63983  1.0000
  C   C175      1.0  0.55855  0.68433  0.72607  1.0000
  C   C176      1.0  0.6805500000000001  0.5793199999999998  0.70012  1.0000
  C   C177      1.0  0.64199  0.6146799999999998  0.72499  1.0000
  C   C178      1.0  0.60009  0.6472199999999998  0.6991299999999999  1.0000
  C   C179      1.0  0.6789  0.5786  0.6488599999999998  1.0000
  C   C180      1.0  0.59686  0.6450199999999998  0.64811  1.0000
  C   C181      1.0  0.63745  0.61121  0.62291  1.0000
  C   C182      1.0  0.63504  0.60986  0.5686  1.0000
  C   C183      1.0  0.86346  0.38957999999999987  0.93152  1.0000
  C   C184      1.0  0.9024900000000001  0.5653  0.6119599999999998  1.0000
  C   C185      1.0  0.60319  0.36734  0.83025  1.0000
  C   C186      1.0  0.57604  0.3875699999999999  0.87296  1.0000
  C   C187      1.0  0.59643  0.43435  0.88829  1.0000
  C   C188      1.0  0.6702100000000001  0.44136999999999993  0.81766  1.0000
  C   C189      1.0  0.643  0.46133  0.86051  1.0000
  C   C190      1.0  0.65096  0.39381999999999995  0.8030999999999999  1.0000
  C   C191      1.0  0.9249400000000001  0.67978  0.31045  1.0000
  C   C192      1.0  0.5753200000000002  0.3202599999999999  0.18968999999999994  1.0000
  C   C193      1.0  0.6036700000000002  0.36742  0.17043  1.0000
  C   C194      1.0  0.56407  0.45718999999999993  0.06875  1.0000
  C   C195      1.0  0.93512  0.54291  0.4319999999999999  1.0000
  C   C196      1.0  0.5587500000000001  0.68439  0.27359  1.0000
  C   C197      1.0  0.6006  0.6475  0.30056  1.0000
  C   C198      1.0  0.5973  0.64569  0.35161  1.0000
  C   C199      1.0  0.63837  0.61246  0.37712  1.0000
  C   C200      1.0  0.6802500000000001  0.57985  0.35148999999999997  1.0000
  C   C201      1.0  0.6815  0.57979  0.30021  1.0000
  C   C202      1.0  0.6426700000000001  0.61486  0.27503  1.0000
  C   C203      1.0  0.71904  0.54071  0.2737  1.0000
  C   C204      1.0  0.78634  0.52805  0.28502  1.0000
  C   C205      1.0  0.8158500000000001  0.4872799999999999  0.262  1.0000
  C   C206      1.0  0.7815  0.45898  0.22705  1.0000
  C   C207      1.0  0.71424  0.47169999999999995  0.21560999999999997  1.0000
  C   C208      1.0  0.6846300000000001  0.5123399999999999  0.23882999999999996  1.0000
  C   C209      1.0  0.67092  0.4414199999999999  0.1829  1.0000
  C   C210      1.0  0.6517000000000001  0.39386  0.19742  1.0000
  C   C211      1.0  0.57632  0.38776  0.12785  1.0000
  C   C212      1.0  0.6435000000000001  0.46147  0.14012  1.0000
  C   C213      1.0  0.9425200000000001  0.3156099999999999  0.22636  1.0000
  C   C214      1.0  0.8194  0.42018  0.20036999999999994  1.0000
  C   C215      1.0  0.85823  0.3849299999999999  0.22524999999999995  1.0000
  C   C216      1.0  0.9004000000000001  0.3524899999999999  0.19945999999999997  1.0000
  C   C217      1.0  0.8212  0.4209099999999999  0.1491  1.0000
  C   C218      1.0  0.90359  0.35468  0.14842  1.0000
  C   C219      1.0  0.86298  0.38845  0.12318  1.0000
  C   C220      1.0  0.8660500000000001  0.3899799999999999  0.06884  1.0000
  C   C221      1.0  0.63745  0.6105799999999998  0.43148  1.0000
  C   C222      1.0  0.5966100000000001  0.4345799999999999  0.1125  1.0000
  C   C223      1.0  0.8965000000000001  0.6326899999999999  0.32993  1.0000
  C   C224      1.0  0.92379  0.61251  0.37264999999999987  1.0000
  C   C225      1.0  0.90349  0.5656899999999999  0.38805  1.0000
  C   C226      1.0  0.8296100000000001  0.5585  0.31750999999999996  1.0000
  C   C227      1.0  0.85708  0.5385799999999998  0.36027  1.0000
  C   C228      1.0  0.8485300000000001  0.60613  0.30298  1.0000
  C   C229      1.0  0.4253  0.82015  0.18877  1.0000
  C   C230      1.0  0.07626  0.17974999999999994  0.31116  1.0000
  C   C231      1.0  0.10458  0.13246  0.33015  1.0000
  C   C232      1.0  0.06532  0.04268999999999999  0.43191999999999997  1.0000
  C   C233      1.0  0.43552  0.95699  0.06783  1.0000
  C   C234      1.0  0.05967  0.81552  0.22648  1.0000
  C   C235      1.0  0.10103000000000001  0.85245  0.1994  1.0000
  C   C236      1.0  0.09715  0.8543  0.1484  1.0000
  C   C237      1.0  0.13791000000000003  0.88762  0.12277999999999999  1.0000
  C   C238      1.0  0.17998  0.92022  0.14828  1.0000
  C   C239      1.0  0.18165000000000003  0.92022  0.19955999999999996  1.0000
  C   C240      1.0  0.14318  0.8850599999999997  0.22482999999999995  1.0000
  C   C241      1.0  0.2192  0.95919  0.22616  1.0000
  C   C242      1.0  0.28654  0.9717599999999997  0.21493  1.0000
  C   C243      1.0  0.31614  0.012339999999999997  0.23818  1.0000
  C   C244      1.0  0.28171  0.04056  0.27315  1.0000
  C   C245      1.0  0.21441000000000002  0.02791  0.28454  1.0000
  C   C246      1.0  0.18479  0.9873699999999997  0.2612  1.0000
  C   C247      1.0  0.17126  0.05821999999999999  0.31733  1.0000
  C   C248      1.0  0.15233  0.10592  0.303  1.0000
  C   C249      1.0  0.07734  0.11215999999999997  0.37279  1.0000
  C   C250      1.0  0.14396  0.038229999999999986  0.36017  1.0000
  C   C251      1.0  0.44145  0.18432999999999994  0.27393  1.0000
  C   C252      1.0  0.31945  0.07932  0.29988  1.0000
  C   C253      1.0  0.35801  0.11468999999999997  0.27501  1.0000
  C   C254      1.0  0.39991  0.14721999999999996  0.30087  1.0000
  C   C255      1.0  0.32111  0.07859999999999998  0.3511399999999999  1.0000
  C   C256      1.0  0.40314  0.14502  0.35189  1.0000
  C   C257      1.0  0.36255  0.11120999999999998  0.37709  1.0000
  C   C258      1.0  0.36497  0.10985999999999997  0.43139  1.0000
  C   C259      1.0  0.13654  0.8895799999999998  0.06848  1.0000
  C   C260      1.0  0.09751  0.0653  0.38803999999999994  1.0000
  C   C261      1.0  0.39681000000000005  0.8673399999999998  0.16974  1.0000
  C   C262      1.0  0.42396  0.8875699999999997  0.12704  1.0000
  C   C263      1.0  0.40357  0.9343399999999997  0.11170999999999998  1.0000
  C   C264      1.0  0.32979  0.94137  0.18234  1.0000
  C   C265      1.0  0.357  0.9613299999999998  0.13949  1.0000
  C   C266      1.0  0.34904  0.89382  0.1969  1.0000
  C   C267      1.0  0.07506  0.17978  0.68955  1.0000
  C   C268      1.0  0.42468  0.82026  0.8103099999999999  1.0000
  C   C269      1.0  0.39633  0.86742  0.82957  1.0000
  C   C270      1.0  0.43593  0.95719  0.93125  1.0000
  C   C271      1.0  0.06488  0.04292  0.568  1.0000
  C   C272      1.0  0.44125000000000003  0.18439  0.7264  1.0000
  C   C273      1.0  0.3994  0.1475  0.69944  1.0000
  C   C274      1.0  0.4027  0.14569  0.64839  1.0000
  C   C275      1.0  0.36163  0.11245999999999998  0.62288  1.0000
  C   C276      1.0  0.31975  0.07984999999999998  0.64851  1.0000
  C   C277      1.0  0.3185  0.07978999999999997  0.69979  1.0000
  C   C278      1.0  0.35733  0.11485999999999998  0.72497  1.0000
  C   C279      1.0  0.28096  0.04071  0.7262999999999997  1.0000
  C   C280      1.0  0.21367000000000003  0.02804999999999999  0.71498  1.0000
  C   C281      1.0  0.18415  0.9872799999999998  0.7379899999999998  1.0000
  C   C282      1.0  0.2185  0.95898  0.77295  1.0000
  C   C283      1.0  0.28577  0.9717  0.7843899999999999  1.0000
  C   C284      1.0  0.31537  0.012339999999999997  0.76117  1.0000
  C   C285      1.0  0.32908  0.9414199999999998  0.81709  1.0000
  C   C286      1.0  0.34831000000000006  0.8938599999999999  0.8025799999999997  1.0000
  C   C287      1.0  0.42368  0.8877599999999998  0.87215  1.0000
  C   C288      1.0  0.35650000000000004  0.96147  0.85988  1.0000
  C   C289      1.0  0.05748000000000001  0.8156099999999997  0.77364  1.0000
  C   C290      1.0  0.1806  0.9201699999999999  0.7996199999999999  1.0000
  C   C291      1.0  0.14177  0.88493  0.77475  1.0000
  C   C292      1.0  0.0996  0.85249  0.80053  1.0000
  C   C293      1.0  0.17880000000000001  0.9208999999999998  0.8509  1.0000
  C   C294      1.0  0.09641000000000001  0.85468  0.8515699999999999  1.0000
  C   C295      1.0  0.13702  0.8884499999999999  0.87682  1.0000
  C   C296      1.0  0.13395000000000004  0.8899799999999998  0.93116  1.0000
  C   C297      1.0  0.36255  0.11059  0.56852  1.0000
  C   C298      1.0  0.40339  0.93458  0.8875  1.0000
  C   C299      1.0  0.10351  0.13268999999999997  0.67007  1.0000
  C   C300      1.0  0.07621000000000001  0.11250999999999997  0.62735  1.0000
  C   C301      1.0  0.09652  0.06569  0.61195  1.0000
  C   C302      1.0  0.17039  0.05849999999999999  0.6824899999999998  1.0000
  C   C303      1.0  0.14292  0.03857999999999999  0.63973  1.0000
  C   C304      1.0  0.15147000000000002  0.10612999999999997  0.69701  1.0000
  O   O1        1.0  0.40046  0.6972599999999999  0.22835  1.0000
  O   O2        1.0  0.47483000000000003  0.698  0.1646  1.0000
  O   O3        1.0  0.00639  0.6998899999999998  0.20486  1.0000
  O   O4        1.0  0.0808  0.69779  0.26868  1.0000
  O   O5        1.0  0.02678  0.30203999999999986  0.33533  1.0000
  O   O6        1.0  0.10117000000000001  0.30277999999999994  0.27161  1.0000
  O   O7        1.0  0.42055  0.30231  0.23167999999999994  1.0000
  O   O8        1.0  0.4948  0.30027  0.29546  1.0000
  O   O9        1.0  0.01359  0.4350199999999999  0.44929  1.0000
  O   O10       1.0  0.48708  0.56528  0.05022  1.0000
  O   O11       1.0  0.41024  0.5026  0.05213  1.0000
  O   O12       1.0  0.32317  0.42224  0.4517899999999999  1.0000
  O   O13       1.0  0.40383  0.36257  0.4546599999999999  1.0000
  O   O14       1.0  0.17794  0.58476  0.04523999999999999  1.0000
  O   O15       1.0  0.08877  0.6375899999999999  0.04805999999999999  1.0000
  O   O16       1.0  0.09073  0.4975799999999999  0.44791  1.0000
  O   O17       1.0  0.10097  0.3026  0.7286799999999998  1.0000
  O   O18       1.0  0.02445  0.30235  0.6663699999999998  1.0000
  O   O19       1.0  0.49444000000000005  0.30022999999999994  0.70463  1.0000
  O   O20       1.0  0.42072  0.30232999999999993  0.76878  1.0000
  O   O21       1.0  0.47483000000000003  0.69775  0.83382  1.0000
  O   O22       1.0  0.39907  0.69733  0.77108  1.0000
  O   O23       1.0  0.07775  0.6976599999999998  0.73119  1.0000
  O   O24       1.0  0.004250000000000001  0.69972  0.79541  1.0000
  O   O25       1.0  0.488  0.56509  0.94804  1.0000
  O   O26       1.0  0.013260000000000001  0.4349199999999999  0.5504  1.0000
  O   O27       1.0  0.09061  0.49736  0.55219  1.0000
  O   O28       1.0  0.17535  0.57775  0.95169  1.0000
  O   O29       1.0  0.09482  0.63743  0.9544199999999998  1.0000
  O   O30       1.0  0.3211  0.41507  0.54538  1.0000
  O   O31       1.0  0.41018  0.36223999999999995  0.54797  1.0000
  O   O32       1.0  0.41062  0.50266  0.94766  1.0000
  O   O33       1.0  0.59954  0.19726  0.77164  1.0000
  O   O34       1.0  0.52517  0.198  0.8354  1.0000
  O   O35       1.0  0.99361  0.19988999999999996  0.79513  1.0000
  O   O36       1.0  0.9192000000000001  0.19778999999999994  0.73132  1.0000
  O   O37       1.0  0.9732200000000001  0.80204  0.66467  1.0000
  O   O38       1.0  0.8988300000000001  0.8027799999999998  0.7283899999999998  1.0000
  O   O39       1.0  0.57945  0.80231  0.76831  1.0000
  O   O40       1.0  0.5052  0.8002699999999998  0.70454  1.0000
  O   O41       1.0  0.9864100000000001  0.9350199999999997  0.55071  1.0000
  O   O42       1.0  0.5129200000000002  0.06528  0.9497799999999998  1.0000
  O   O43       1.0  0.58976  0.0026  0.94786  1.0000
  O   O44       1.0  0.67683  0.92224  0.5482  1.0000
  O   O45       1.0  0.59617  0.8625699999999997  0.54534  1.0000
  O   O46       1.0  0.8220599999999999  0.08476  0.95476  1.0000
  O   O47       1.0  0.9112300000000001  0.13759  0.95194  1.0000
  O   O48       1.0  0.90927  0.9975799999999998  0.55209  1.0000
  O   O49       1.0  0.89903  0.8025999999999998  0.27132  1.0000
  O   O50       1.0  0.97555  0.80235  0.3336299999999999  1.0000
  O   O51       1.0  0.50556  0.80023  0.29537  1.0000
  O   O52       1.0  0.57928  0.80233  0.23120999999999994  1.0000
  O   O53       1.0  0.52517  0.19775  0.16618  1.0000
  O   O54       1.0  0.60093  0.19733  0.22890999999999995  1.0000
  O   O55       1.0  0.9222500000000001  0.19765999999999997  0.2688  1.0000
  O   O56       1.0  0.99575  0.19971999999999995  0.20459  1.0000
  O   O57       1.0  0.512  0.06509  0.051959999999999985  1.0000
  O   O58       1.0  0.98675  0.9349199999999998  0.4496  1.0000
  O   O59       1.0  0.9093900000000001  0.9973599999999998  0.44781  1.0000
  O   O60       1.0  0.82465  0.07774999999999997  0.04831  1.0000
  O   O61       1.0  0.90518  0.13743  0.04557999999999999  1.0000
  O   O62       1.0  0.6789  0.9150699999999999  0.45461999999999997  1.0000
  O   O63       1.0  0.58982  0.8622399999999998  0.4520299999999999  1.0000
  O   O64       1.0  0.58938  0.002659999999999999  0.05234  1.0000
  O   O65       1.0  0.59954  0.3027399999999999  0.77164  1.0000
  O   O66       1.0  0.52517  0.302  0.8354  1.0000
  O   O67       1.0  0.99361  0.30011  0.79513  1.0000
  O   O68       1.0  0.9192000000000001  0.30221  0.73132  1.0000
  O   O69       1.0  0.9732200000000001  0.6979599999999998  0.66467  1.0000
  O   O70       1.0  0.8988300000000001  0.69722  0.7283899999999998  1.0000
  O   O71       1.0  0.57945  0.69769  0.76831  1.0000
  O   O72       1.0  0.5052  0.69973  0.70454  1.0000
  O   O73       1.0  0.9864100000000001  0.56498  0.55071  1.0000
  O   O74       1.0  0.5129200000000002  0.4347199999999999  0.9497799999999998  1.0000
  O   O75       1.0  0.58976  0.4973999999999999  0.94786  1.0000
  O   O76       1.0  0.67683  0.57776  0.54821  1.0000
  O   O77       1.0  0.59617  0.63743  0.54534  1.0000
  O   O78       1.0  0.8220599999999999  0.41524  0.95476  1.0000
  O   O79       1.0  0.9112300000000001  0.36241  0.95194  1.0000
  O   O80       1.0  0.90927  0.50242  0.55209  1.0000
  O   O81       1.0  0.89903  0.6974  0.27132  1.0000
  O   O82       1.0  0.97555  0.6976499999999999  0.3336299999999999  1.0000
  O   O83       1.0  0.50556  0.6997699999999998  0.29537  1.0000
  O   O84       1.0  0.57928  0.6976699999999998  0.23120999999999994  1.0000
  O   O85       1.0  0.52517  0.30225  0.16618  1.0000
  O   O86       1.0  0.60093  0.30267  0.22890999999999995  1.0000
  O   O87       1.0  0.9222500000000001  0.3023399999999999  0.2688  1.0000
  O   O88       1.0  0.99575  0.30027999999999994  0.20459  1.0000
  O   O89       1.0  0.512  0.43490999999999996  0.051959999999999985  1.0000
  O   O90       1.0  0.98675  0.56508  0.4496  1.0000
  O   O91       1.0  0.9093900000000001  0.50264  0.44781  1.0000
  O   O92       1.0  0.82465  0.42224  0.04831  1.0000
  O   O93       1.0  0.90518  0.36257  0.04557999999999999  1.0000
  O   O94       1.0  0.6789  0.58493  0.45461999999999997  1.0000
  O   O95       1.0  0.58982  0.63776  0.4520299999999999  1.0000
  O   O96       1.0  0.58938  0.4973399999999999  0.05234  1.0000
  O   O97       1.0  0.40046  0.80274  0.22835  1.0000
  O   O98       1.0  0.47483000000000003  0.802  0.1646  1.0000
  O   O99       1.0  0.00639  0.80011  0.20486  1.0000
  O   O100      1.0  0.0808  0.80221  0.26868  1.0000
  O   O101      1.0  0.02678  0.19796  0.33533  1.0000
  O   O102      1.0  0.10117000000000001  0.19721999999999995  0.27161  1.0000
  O   O103      1.0  0.42055  0.19768999999999995  0.23167999999999994  1.0000
  O   O104      1.0  0.4948  0.19973  0.29546  1.0000
  O   O105      1.0  0.013600000000000001  0.06498  0.44929  1.0000
  O   O106      1.0  0.48708  0.9347199999999998  0.05022  1.0000
  O   O107      1.0  0.41024  0.9973999999999997  0.05213  1.0000
  O   O108      1.0  0.32317  0.07775999999999998  0.4517899999999999  1.0000
  O   O109      1.0  0.40383  0.13743  0.4546599999999999  1.0000
  O   O110      1.0  0.17794  0.91524  0.04523999999999999  1.0000
  O   O111      1.0  0.08877  0.8624  0.04805999999999999  1.0000
  O   O112      1.0  0.09073  0.00242  0.44791  1.0000
  O   O113      1.0  0.10097  0.1974  0.7286799999999998  1.0000
  O   O114      1.0  0.02445  0.19765  0.6663699999999998  1.0000
  O   O115      1.0  0.49444000000000005  0.19976999999999995  0.70463  1.0000
  O   O116      1.0  0.42072  0.19766999999999996  0.76878  1.0000
  O   O117      1.0  0.47483000000000003  0.8022499999999999  0.83382  1.0000
  O   O118      1.0  0.39907  0.8026699999999998  0.77108  1.0000
  O   O119      1.0  0.07775  0.80234  0.73119  1.0000
  O   O120      1.0  0.004250000000000001  0.8002799999999998  0.79541  1.0000
  O   O121      1.0  0.488  0.9349099999999998  0.94804  1.0000
  O   O122      1.0  0.013260000000000001  0.06508  0.5504  1.0000
  O   O123      1.0  0.09061  0.0026399999999999996  0.55219  1.0000
  O   O124      1.0  0.17535  0.92224  0.95169  1.0000
  O   O125      1.0  0.09482  0.8625699999999997  0.9544199999999998  1.0000
  O   O126      1.0  0.3211  0.08492999999999998  0.54538  1.0000
  O   O127      1.0  0.41018  0.13775999999999997  0.54797  1.0000
  O   O128      1.0  0.41062  0.99734  0.94766  1.0000
