data_image0
_chemical_formula_structural       Cu24H72C204O112
_chemical_formula_sum              "Cu24 H72 C204 O112"
_cell_length_a       23.06297
_cell_length_b       24.77812
_cell_length_c       24.77563
_cell_angle_alpha    77.43648
_cell_angle_beta     62.214510000000004
_cell_angle_gamma    62.21649

_symmetry_space_group_name_H-M    'P 1'
_symmetry_Int_Tables_number       1

loop_
  _symmetry_equiv_pos_as_xyz
  'x,y,z'

loop_
  _atom_site_type_symbol
  _atom_site_label
  _atom_site_symmetry_multiplicity
  _atom_site_fract_x
  _atom_site_fract_y
  _atom_site_fract_z
  _atom_site_occupancy
  Cu  Cu1       1.0  0.3412  0.65886  0.65886  1.0000
  Cu  Cu2       1.0  0.2616299999999999  0.7382399999999999  0.7382400000000001  1.0000
  Cu  Cu3       1.0  0.65884  0.34109  0.34110000000000007  1.0000
  Cu  Cu4       1.0  0.7383  0.26184  0.26183  1.0000
  Cu  Cu5       1.0  0.0  0.65888  0.3411100000000001  1.0000
  Cu  Cu6       1.0  0.0  0.73826  0.2617300000000001  1.0000
  Cu  Cu7       1.0  0.0  0.34105  0.65893  1.0000
  Cu  Cu8       1.0  0.0  0.26181  0.7382  1.0000
  Cu  Cu9       1.0  0.8417400000000002  0.65871  6e-05  1.0000
  Cu  Cu10      1.0  0.87597  0.7385400000000001  0.9999400000000002  1.0000
  Cu  Cu11      1.0  0.50073  0.3413  7e-05  1.0000
  Cu  Cu12      1.0  0.61506  0.26106  0.9999900000000002  1.0000
  Cu  Cu13      1.0  0.50084  6.999999999999998e-05  0.34125000000000005  1.0000
  Cu  Cu14      1.0  0.6149200000000001  0.99999  0.26114  1.0000
  Cu  Cu15      1.0  0.8417500000000001  5e-05  0.65872  1.0000
  Cu  Cu16      1.0  0.8759499999999995  0.9999600000000001  0.7385700000000001  1.0000
  Cu  Cu17      1.0  0.15822999999999998  0.99991  0.34128000000000003  1.0000
  Cu  Cu18      1.0  0.12400000000000001  1.9999999999999998e-05  0.26141  1.0000
  Cu  Cu19      1.0  0.49923999999999996  0.9998900000000001  0.65874  1.0000
  Cu  Cu20      1.0  0.3852100000000003  0.99997  0.73883  1.0000
  Cu  Cu21      1.0  0.49923999999999996  0.65874  0.9999000000000001  1.0000
  Cu  Cu22      1.0  0.38522999999999985  0.73881  0.9999600000000001  1.0000
  Cu  Cu23      1.0  0.1582299999999999  0.34128  0.9999300000000001  1.0000
  Cu  Cu24      1.0  0.124  0.26141  2e-05  1.0000
  H   H1        1.0  0.22091  0.55392  0.7059500000000001  1.0000
  H   H2        1.0  0.020719999999999968  0.55261  0.8479  1.0000
  H   H3        1.0  0.0954099999999999  0.67838  0.85771  1.0000
  H   H4        1.0  0.7795100000000001  0.71156  0.85103  1.0000
  H   H5        1.0  0.48081999999999997  0.44592  0.29394  1.0000
  H   H6        1.0  0.4212900000000003  0.44731999999999994  0.15208  1.0000
  H   H7        1.0  0.6317500000000001  0.3214  0.14219  1.0000
  H   H8        1.0  0.34212999999999993  0.28857  0.14896000000000004  1.0000
  H   H9        1.0  0.77486  0.70598  0.44599  1.0000
  H   H10       1.0  0.5733300000000002  0.84791  0.44735000000000014  1.0000
  H   H11       1.0  0.7739500000000001  0.8577700000000001  0.32146  1.0000
  H   H12       1.0  0.4911  0.85104  0.28861  1.0000
  H   H13       1.0  0.9267700000000001  0.29399  0.55397  1.0000
  H   H14       1.0  0.86867  0.15212  0.55267  1.0000
  H   H15       1.0  0.9530900000000001  0.14228  0.67853  1.0000
  H   H16       1.0  0.6307199999999997  0.14902  0.7115800000000001  1.0000
  H   H17       1.0  0.7791600000000002  0.29407  0.4460600000000001  1.0000
  H   H18       1.0  0.9793000000000001  0.1521  0.44739000000000007  1.0000
  H   H19       1.0  0.90461  0.14232  0.3216  1.0000
  H   H20       1.0  0.22020999999999996  0.149  0.28856  1.0000
  H   H21       1.0  0.51913  0.70607  0.55407  1.0000
  H   H22       1.0  0.5787099999999997  0.84786  0.5526900000000001  1.0000
  H   H23       1.0  0.36821000000000004  0.8578  0.67861  1.0000
  H   H24       1.0  0.6581000000000001  0.8509200000000001  0.7114500000000001  1.0000
  H   H25       1.0  0.22513999999999995  0.55403  0.29396  1.0000
  H   H26       1.0  0.42671000000000003  0.55266  0.15206000000000003  1.0000
  H   H27       1.0  0.22607000000000002  0.67855  0.14218  1.0000
  H   H28       1.0  0.50892  0.71135  0.14893000000000003  1.0000
  H   H29       1.0  0.07325000000000002  0.44606  0.70594  1.0000
  H   H30       1.0  0.13131000000000004  0.44734  0.84787  1.0000
  H   H31       1.0  0.046900000000000004  0.32151  0.85768  1.0000
  H   H32       1.0  0.3693099999999999  0.28841  0.8509600000000003  1.0000
  H   H33       1.0  0.77915  0.44608  0.29408000000000006  1.0000
  H   H34       1.0  0.9792900000000001  0.4474  0.15209000000000003  1.0000
  H   H35       1.0  0.90461  0.3216  0.14233  1.0000
  H   H36       1.0  0.22021000000000004  0.28855  0.149  1.0000
  H   H37       1.0  0.5191000000000001  0.55406  0.7060700000000001  1.0000
  H   H38       1.0  0.57873  0.55269  0.84786  1.0000
  H   H39       1.0  0.36821999999999977  0.67858  0.8578200000000002  1.0000
  H   H40       1.0  0.65808  0.71151  0.8510100000000002  1.0000
  H   H41       1.0  0.2251799999999999  0.29399  0.5540400000000001  1.0000
  H   H42       1.0  0.42672999999999994  0.15207  0.55265  1.0000
  H   H43       1.0  0.22606999999999994  0.14222  0.6785700000000001  1.0000
  H   H44       1.0  0.5089300000000001  0.14893  0.71134  1.0000
  H   H45       1.0  0.07317999999999994  0.70599  0.4460600000000001  1.0000
  H   H46       1.0  0.13131  0.84784  0.44732  1.0000
  H   H47       1.0  0.046840000000000055  0.85772  0.32151  1.0000
  H   H48       1.0  0.3693199999999999  0.85096  0.2884  1.0000
  H   H49       1.0  0.22087999999999994  0.70596  0.55392  1.0000
  H   H50       1.0  0.020719999999999968  0.8479  0.55262  1.0000
  H   H51       1.0  0.09540999999999997  0.8577100000000001  0.6784  1.0000
  H   H52       1.0  0.7796399999999999  0.8509300000000001  0.71148  1.0000
  H   H53       1.0  0.48081  0.29396  0.44593  1.0000
  H   H54       1.0  0.42125000000000007  0.15215  0.44731  1.0000
  H   H55       1.0  0.6317500000000003  0.14223  0.3214000000000001  1.0000
  H   H56       1.0  0.3421400000000001  0.149  0.28856  1.0000
  H   H57       1.0  0.7748300000000001  0.44596  0.70597  1.0000
  H   H58       1.0  0.5732799999999999  0.44737  0.8479700000000001  1.0000
  H   H59       1.0  0.7739  0.32148  0.8578  1.0000
  H   H60       1.0  0.49107999999999996  0.28862  0.85108  1.0000
  H   H61       1.0  0.9268300000000002  0.55396  0.29397  1.0000
  H   H62       1.0  0.86869  0.55269  0.15212  1.0000
  H   H63       1.0  0.95315  0.67852  0.14225000000000002  1.0000
  H   H64       1.0  0.63073  0.71157  0.14901  1.0000
  H   H65       1.0  0.8315199999999999  0.8558600000000001  0.85589  1.0000
  H   H66       1.0  0.5434  0.1442  0.14415  1.0000
  H   H67       1.0  0.68754  0.85583  0.14422000000000001  1.0000
  H   H68       1.0  0.6875099999999998  0.14425  0.8558600000000001  1.0000
  H   H69       1.0  0.16828  0.14424  0.14424000000000003  1.0000
  H   H70       1.0  0.4566399999999998  0.8559  0.8559300000000002  1.0000
  H   H71       1.0  0.3125  0.85575  0.14413000000000004  1.0000
  H   H72       1.0  0.3124999999999999  0.14416  0.8557400000000001  1.0000
  C   C1        1.0  0.16526000000000007  0.61717  0.78039  1.0000
  C   C2        1.0  0.17421999999999996  0.57102  0.7492400000000002  1.0000
  C   C3        1.0  0.12262999999999995  0.54705  0.7736400000000001  1.0000
  C   C4        1.0  0.06181000000000001  0.57002  0.82871  1.0000
  C   C5        1.0  0.051539999999999864  0.61768  0.8588100000000001  1.0000
  C   C6        1.0  0.10340999999999989  0.64115  0.8347400000000001  1.0000
  C   C7        1.0  0.21940999999999986  0.64371  0.7536900000000001  1.0000
  C   C8        1.0  0.9832900000000001  0.64514  0.9145  1.0000
  C   C9        1.0  0.8056500000000001  0.78143  0.85959  1.0000
  C   C10       1.0  0.7865600000000003  0.75295  0.83142  1.0000
  C   C11       1.0  0.8195300000000006  0.75281  0.91463  1.0000
  C   C12       1.0  0.56294  0.38262000000000007  0.21951  1.0000
  C   C13       1.0  0.49451  0.42884  0.25068  1.0000
  C   C14       1.0  0.4433500000000003  0.45286000000000004  0.22630000000000006  1.0000
  C   C15       1.0  0.46060000000000006  0.42989  0.17126  1.0000
  C   C16       1.0  0.52817  0.38216  0.14116  1.0000
  C   C17       1.0  0.57946  0.35866  0.16519  1.0000
  C   C18       1.0  0.6169  0.35616  0.24619000000000005  1.0000
  C   C19       1.0  0.54303  0.35469  0.08552  1.0000
  C   C20       1.0  0.4468500000000001  0.21849  0.14017  1.0000
  C   C21       1.0  0.37099  0.24675000000000002  0.16823000000000002  1.0000
  C   C22       1.0  0.48733  0.2471  0.08522000000000002  1.0000
  C   C23       1.0  0.7825000000000001  0.7804499999999999  0.38271  1.0000
  C   C24       1.0  0.74528  0.74927  0.4289  1.0000
  C   C25       1.0  0.6696899999999999  0.7736700000000001  0.4529000000000001  1.0000
  C   C26       1.0  0.6318600000000001  0.82873  0.42993  1.0000
  C   C27       1.0  0.66931  0.8588200000000001  0.38223  1.0000
  C   C28       1.0  0.7446699999999999  0.83479  0.35872000000000004  1.0000
  C   C29       1.0  0.8631899999999999  0.75376  0.35619  1.0000
  C   C30       1.0  0.62856  0.91454  0.35481  1.0000
  C   C31       1.0  0.5870600000000001  0.8597899999999999  0.21857  1.0000
  C   C32       1.0  0.5392500000000001  0.83176  0.2468  1.0000
  C   C33       1.0  0.5726199999999999  0.9147100000000001  0.24713000000000004  1.0000
  C   C34       1.0  0.94554  0.21960000000000002  0.61732  1.0000
  C   C35       1.0  0.9233700000000001  0.25073  0.5711  1.0000
  C   C36       1.0  0.89623  0.22636  0.5471  1.0000
  C   C37       1.0  0.89051  0.17132  0.57008  1.0000
  C   C38       1.0  0.9103600000000001  0.14122  0.61776  1.0000
  C   C39       1.0  0.93809  0.16527  0.64128  1.0000
  C   C40       1.0  0.97297  0.24628  0.6438300000000001  1.0000
  C   C41       1.0  0.89783  0.08554  0.64517  1.0000
  C   C42       1.0  0.66526  0.14024  0.7816500000000001  1.0000
  C   C43       1.0  0.6177100000000002  0.16832  0.75338  1.0000
  C   C44       1.0  0.73426  0.08527  0.75307  1.0000
  C   C45       1.0  0.8348199999999996  0.21964  0.38279  1.0000
  C   C46       1.0  0.8258499999999998  0.25079  0.42895000000000005  1.0000
  C   C47       1.0  0.87742  0.22637  0.45294  1.0000
  C   C48       1.0  0.93822  0.17129  0.4299700000000001  1.0000
  C   C49       1.0  0.9484799999999999  0.14118  0.3823300000000001  1.0000
  C   C50       1.0  0.89664  0.16528  0.35883  1.0000
  C   C51       1.0  0.7806500000000002  0.2463  0.35631  1.0000
  C   C52       1.0  0.016690000000000017  0.08545  0.3549  1.0000
  C   C53       1.0  0.19440000000000002  0.14025  0.21854  1.0000
  C   C54       1.0  0.21389999999999995  0.16829  0.24676000000000006  1.0000
  C   C55       1.0  0.18035999999999996  0.0853  0.24713000000000004  1.0000
  C   C56       1.0  0.43699  0.7805100000000001  0.6173600000000001  1.0000
  C   C57       1.0  0.5054299999999999  0.7493200000000001  0.5711500000000002  1.0000
  C   C58       1.0  0.5566200000000001  0.77368  0.54714  1.0000
  C   C59       1.0  0.53939  0.82869  0.57012  1.0000
  C   C60       1.0  0.4718300000000001  0.85878  0.61787  1.0000
  C   C61       1.0  0.4205  0.83479  0.64135  1.0000
  C   C62       1.0  0.38303  0.7537900000000001  0.64391  1.0000
  C   C63       1.0  0.4570099999999999  0.91439  0.6453200000000001  1.0000
  C   C64       1.0  0.5533499999999998  0.8595500000000001  0.7814300000000001  1.0000
  C   C65       1.0  0.6291900000000001  0.83137  0.7529  1.0000
  C   C66       1.0  0.51296  0.91461  0.7529  1.0000
  C   C67       1.0  0.21752000000000002  0.61731  0.21950000000000006  1.0000
  C   C68       1.0  0.25473999999999997  0.57112  0.25067  1.0000
  C   C69       1.0  0.33033000000000007  0.54711  0.22629000000000002  1.0000
  C   C70       1.0  0.36818000000000023  0.57008  0.17125  1.0000
  C   C71       1.0  0.33071999999999996  0.61778  0.14117  1.0000
  C   C72       1.0  0.25535  0.64131  0.16518000000000002  1.0000
  C   C73       1.0  0.13682999999999998  0.64381  0.2462  1.0000
  C   C74       1.0  0.3714700000000001  0.6452  0.08547  1.0000
  C   C75       1.0  0.4130000000000001  0.78143  0.14015  1.0000
  C   C76       1.0  0.46079  0.75318  0.16820000000000002  1.0000
  C   C77       1.0  0.42747000000000007  0.7529099999999999  0.0852  1.0000
  C   C78       1.0  0.05444999999999993  0.38273  0.7803500000000002  1.0000
  C   C79       1.0  0.07662999999999986  0.42893000000000003  0.7492100000000003  1.0000
  C   C80       1.0  0.10375999999999998  0.45292  0.7736100000000001  1.0000
  C   C81       1.0  0.10945999999999989  0.42993999999999993  0.8286700000000001  1.0000
  C   C82       1.0  0.08960999999999991  0.38225  0.8587800000000001  1.0000
  C   C83       1.0  0.06188999999999993  0.35877  0.8347  1.0000
  C   C84       1.0  0.02701999999999994  0.35621  0.75368  1.0000
  C   C85       1.0  0.10215999999999993  0.35483  0.91447  1.0000
  C   C86       1.0  0.33471000000000006  0.21841000000000002  0.8597200000000002  1.0000
  C   C87       1.0  0.38229  0.24664000000000003  0.83166  1.0000
  C   C88       1.0  0.26570000000000005  0.247  0.91468  1.0000
  C   C89       1.0  0.83481  0.3828  0.21965  1.0000
  C   C90       1.0  0.8258300000000001  0.42898  0.25078  1.0000
  C   C91       1.0  0.8774000000000001  0.45296  0.22637  1.0000
  C   C92       1.0  0.9382100000000001  0.4299799999999999  0.17129  1.0000
  C   C93       1.0  0.9484800000000001  0.38233000000000006  0.14119000000000004  1.0000
  C   C94       1.0  0.89664  0.35882  0.16529000000000002  1.0000
  C   C95       1.0  0.7806400000000001  0.35633  0.24630000000000002  1.0000
  C   C96       1.0  0.016700000000000013  0.3549  0.08546000000000001  1.0000
  C   C97       1.0  0.1944  0.21853  0.14025  1.0000
  C   C98       1.0  0.2139  0.24675000000000002  0.16829  1.0000
  C   C99       1.0  0.18035999999999996  0.24712000000000003  0.0853  1.0000
  C   C100      1.0  0.4369899999999998  0.61735  0.78051  1.0000
  C   C101      1.0  0.5054199999999999  0.57114  0.7493200000000001  1.0000
  C   C102      1.0  0.55662  0.54714  0.77369  1.0000
  C   C103      1.0  0.5393999999999999  0.57012  0.82869  1.0000
  C   C104      1.0  0.47185  0.61786  0.8587800000000001  1.0000
  C   C105      1.0  0.4205100000000001  0.64133  0.83479  1.0000
  C   C106      1.0  0.38301999999999997  0.64386  0.7538  1.0000
  C   C107      1.0  0.45701999999999976  0.64532  0.9143900000000001  1.0000
  C   C108      1.0  0.55335  0.78144  0.8596000000000001  1.0000
  C   C109      1.0  0.6292  0.75293  0.83142  1.0000
  C   C110      1.0  0.5129899999999998  0.75286  0.91463  1.0000
  C   C111      1.0  0.2175400000000001  0.21954000000000004  0.61734  1.0000
  C   C112      1.0  0.25476000000000004  0.25071  0.57114  1.0000
  C   C113      1.0  0.33035  0.22632000000000002  0.54713  1.0000
  C   C114      1.0  0.36818999999999996  0.17128  0.57009  1.0000
  C   C115      1.0  0.33073  0.1412  0.61779  1.0000
  C   C116      1.0  0.25536  0.16522  0.64133  1.0000
  C   C117      1.0  0.13690000000000002  0.24619  0.64376  1.0000
  C   C118      1.0  0.37146999999999997  0.08548  0.6451800000000001  1.0000
  C   C119      1.0  0.41301999999999994  0.14016  0.7814300000000001  1.0000
  C   C120      1.0  0.4607899999999999  0.16822  0.7531600000000003  1.0000
  C   C121      1.0  0.42747000000000007  0.08523  0.7529  1.0000
  C   C122      1.0  0.054369999999999974  0.7804  0.38274000000000014  1.0000
  C   C123      1.0  0.07654000000000011  0.74926  0.42896  1.0000
  C   C124      1.0  0.10370000000000001  0.77363  0.45294  1.0000
  C   C125      1.0  0.10940999999999992  0.8286700000000001  0.4299400000000001  1.0000
  C   C126      1.0  0.08956999999999993  0.85879  0.38225000000000003  1.0000
  C   C127      1.0  0.06182999999999996  0.83473  0.3587600000000001  1.0000
  C   C128      1.0  0.02700000000000007  0.75368  0.3561500000000001  1.0000
  C   C129      1.0  0.10214999999999998  0.91446  0.35482  1.0000
  C   C130      1.0  0.3347099999999999  0.8597100000000001  0.21839000000000003  1.0000
  C   C131      1.0  0.3822999999999999  0.8316600000000001  0.24662000000000003  1.0000
  C   C132      1.0  0.26569999999999994  0.91468  0.24698000000000006  1.0000
  C   C133      1.0  0.16523999999999994  0.7804  0.61718  1.0000
  C   C134      1.0  0.17421  0.74926  0.5710200000000001  1.0000
  C   C135      1.0  0.12263999999999987  0.77364  0.5470300000000001  1.0000
  C   C136      1.0  0.06182000000000001  0.82871  0.5700200000000001  1.0000
  C   C137      1.0  0.05154000000000002  0.8588  0.6176900000000001  1.0000
  C   C138      1.0  0.10340000000000002  0.83474  0.64117  1.0000
  C   C139      1.0  0.21938000000000007  0.75369  0.64373  1.0000
  C   C140      1.0  0.9832800000000003  0.9145000000000001  0.6451500000000001  1.0000
  C   C141      1.0  0.8057  0.8595600000000001  0.7814  1.0000
  C   C142      1.0  0.7866399999999999  0.83138  0.7529100000000002  1.0000
  C   C143      1.0  0.8195299999999999  0.91462  0.75283  1.0000
  C   C144      1.0  0.56293  0.21954000000000004  0.3826300000000001  1.0000
  C   C145      1.0  0.4945  0.25072  0.42884  1.0000
  C   C146      1.0  0.4433200000000001  0.22634  0.45286  1.0000
  C   C147      1.0  0.4605600000000001  0.17133  0.42988  1.0000
  C   C148      1.0  0.52813  0.14124  0.38214000000000004  1.0000
  C   C149      1.0  0.57944  0.16525  0.35865  1.0000
  C   C150      1.0  0.6169000000000001  0.24621000000000004  0.3562  1.0000
  C   C151      1.0  0.54301  0.08559  0.35473  1.0000
  C   C152      1.0  0.44686000000000003  0.14023  0.21846000000000004  1.0000
  C   C153      1.0  0.371  0.16828  0.24673000000000006  1.0000
  C   C154      1.0  0.48734  0.08528  0.24702  1.0000
  C   C155      1.0  0.78245  0.38271  0.78046  1.0000
  C   C156      1.0  0.7452399999999999  0.42889000000000005  0.74927  1.0000
  C   C157      1.0  0.6696499999999997  0.45289000000000007  0.77369  1.0000
  C   C158      1.0  0.63181  0.42993999999999993  0.8287700000000002  1.0000
  C   C159      1.0  0.6692500000000001  0.38225  0.8588700000000001  1.0000
  C   C160      1.0  0.7446199999999998  0.35873  0.8348100000000003  1.0000
  C   C161      1.0  0.8631  0.35626  0.7538  1.0000
  C   C162      1.0  0.6285000000000001  0.35477  0.91459  1.0000
  C   C163      1.0  0.5870000000000001  0.21857999999999997  0.8598500000000002  1.0000
  C   C164      1.0  0.53922  0.24681  0.8318000000000002  1.0000
  C   C165      1.0  0.5725699999999999  0.24719  0.91477  1.0000
  C   C166      1.0  0.94563  0.61729  0.21956000000000003  1.0000
  C   C167      1.0  0.92345  0.57108  0.25071000000000004  1.0000
  C   C168      1.0  0.8962800000000001  0.54709  0.22635000000000002  1.0000
  C   C169      1.0  0.8905600000000001  0.57008  0.17131  1.0000
  C   C170      1.0  0.9103999999999999  0.61775  0.14121  1.0000
  C   C171      1.0  0.93815  0.64127  0.16524  1.0000
  C   C172      1.0  0.9730099999999998  0.64385  0.24629000000000006  1.0000
  C   C173      1.0  0.89784  0.64516  0.08554  1.0000
  C   C174      1.0  0.6653  0.7816  0.14023  1.0000
  C   C175      1.0  0.6177200000000003  0.75336  0.16830000000000003  1.0000
  C   C176      1.0  0.73428  0.75303  0.08524000000000001  1.0000
  C   C177      1.0  0.13088000000000008  0.49999  0.73832  1.0000
  C   C178      1.0  0.3691499999999998  0.49998000000000004  0.26160000000000005  1.0000
  C   C179      1.0  0.63084  0.7383800000000001  0.50003  1.0000
  C   C180      1.0  0.86915  0.26165  0.50002  1.0000
  C   C181      1.0  0.8691600000000002  0.50004  0.26165  1.0000
  C   C182      1.0  0.6308300000000001  0.50002  0.73838  1.0000
  C   C183      1.0  0.36914  0.26164  0.49999  1.0000
  C   C184      1.0  0.13085999999999998  0.7383199999999999  0.49999  1.0000
  C   C185      1.0  0.77667  0.7786599999999999  0.77866  1.0000
  C   C186      1.0  0.8154499999999999  0.8345600000000001  0.8345700000000003  1.0000
  C   C187      1.0  0.33407999999999993  0.22078  0.22075000000000003  1.0000
  C   C188      1.0  0.48464  0.16534  0.16529000000000002  1.0000
  C   C189      1.0  0.55483  0.77929  0.22083  1.0000
  C   C190      1.0  0.6499399999999999  0.8347000000000001  0.16536000000000003  1.0000
  C   C191      1.0  0.5548299999999999  0.22085000000000002  0.7793100000000001  1.0000
  C   C192      1.0  0.6498999999999999  0.16538  0.83476  1.0000
  C   C193      1.0  0.22427999999999998  0.22078  0.22079000000000004  1.0000
  C   C194      1.0  0.18469999999999998  0.16537  0.16537000000000002  1.0000
  C   C195      1.0  0.6661699999999998  0.77863  0.7786400000000001  1.0000
  C   C196      1.0  0.51541  0.83457  0.8345900000000002  1.0000
  C   C197      1.0  0.44520999999999994  0.77914  0.22068  1.0000
  C   C198      1.0  0.35009  0.83461  0.16526000000000002  1.0000
  C   C199      1.0  0.4451999999999999  0.2207  0.7791300000000001  1.0000
  C   C200      1.0  0.35009999999999997  0.16528  0.83461  1.0000
  C   C201      1.0  0.7516699999999997  0.74848  0.7483900000000002  1.0000
  C   C202      1.0  0.24952000000000005  0.25039  0.25038  1.0000
  C   C203      1.0  0.50002  0.74957  0.25040000000000007  1.0000
  C   C204      1.0  0.5000199999999999  0.2504  0.74958  1.0000
  O   O1        1.0  0.27662999999999993  0.61771  0.7060700000000001  1.0000
  O   O2        1.0  0.20303  0.69117  0.77999  1.0000
  O   O3        1.0  0.9402599999999994  0.61906  0.93556  1.0000
  O   O4        1.0  0.9723000000000002  0.6933  0.93595  1.0000
  O   O5        1.0  0.8097000000000004  0.70429  0.9355200000000001  1.0000
  O   O6        1.0  0.8418499999999998  0.7785899999999999  0.9355  1.0000
  O   O7        1.0  0.60036  0.38209  0.29388000000000003  1.0000
  O   O8        1.0  0.6745900000000002  0.30881  0.21986  1.0000
  O   O9        1.0  0.49475999999999987  0.38083  0.06472  1.0000
  O   O10       1.0  0.6017100000000001  0.30652  0.06409  1.0000
  O   O11       1.0  0.44974  0.29576  0.06454  1.0000
  O   O12       1.0  0.55636  0.22110999999999997  0.06417  1.0000
  O   O13       1.0  0.89433  0.70605  0.38214000000000004  1.0000
  O   O14       1.0  0.8943799999999997  0.78013  0.30882  1.0000
  O   O15       1.0  0.5594299999999999  0.9355800000000001  0.38098  1.0000
  O   O16       1.0  0.66577  0.93599  0.30662  1.0000
  O   O17       1.0  0.5142799999999998  0.93561  0.29574  1.0000
  O   O18       1.0  0.62061  0.9357300000000001  0.22119000000000003  1.0000
  O   O19       1.0  0.98264  0.29387  0.6178000000000001  1.0000
  O   O20       1.0  0.9829700000000001  0.22004  0.69133  1.0000
  O   O21       1.0  0.8756100000000001  0.06471  0.61916  1.0000
  O   O22       1.0  0.90852  0.06391  0.69323  1.0000
  O   O23       1.0  0.7453200000000001  0.0645  0.70447  1.0000
  O   O24       1.0  0.7774300000000001  0.06409  0.77893  1.0000
  O   O25       1.0  0.7233500000000002  0.29389  0.38231000000000004  1.0000
  O   O26       1.0  0.79691  0.22  0.30887  1.0000
  O   O27       1.0  0.05969999999999993  0.06435  0.3810100000000001  1.0000
  O   O28       1.0  0.027680000000000014  0.06404  0.30672  1.0000
  O   O29       1.0  0.19018000000000002  0.06442  0.2957  1.0000
  O   O30       1.0  0.15831000000000003  0.06423  0.22128  1.0000
  O   O31       1.0  0.39967  0.70608  0.6179700000000001  1.0000
  O   O32       1.0  0.32543999999999995  0.78011  0.69129  1.0000
  O   O33       1.0  0.50527  0.9352099999999999  0.61917  1.0000
  O   O34       1.0  0.3983299999999998  0.9359500000000001  0.69348  1.0000
  O   O35       1.0  0.5504199999999999  0.9354  0.70425  1.0000
  O   O36       1.0  0.44389999999999996  0.9356400000000001  0.77888  1.0000
  O   O37       1.0  0.10569000000000003  0.61785  0.29391  1.0000
  O   O38       1.0  0.10563000000000003  0.69119  0.21984000000000004  1.0000
  O   O39       1.0  0.44061  0.61902  0.06437  1.0000
  O   O40       1.0  0.3342299999999999  0.69341  0.06406  1.0000
  O   O41       1.0  0.4857499999999999  0.70424  0.06438000000000002  1.0000
  O   O42       1.0  0.3795799999999999  0.7789  0.06406  1.0000
  O   O43       1.0  0.017330000000000016  0.38223  0.7061000000000001  1.0000
  O   O44       1.0  0.01701999999999999  0.30871  0.77994  1.0000
  O   O45       1.0  0.12445000000000003  0.38082  0.9352400000000001  1.0000
  O   O46       1.0  0.09144000000000002  0.30679  0.93614  1.0000
  O   O47       1.0  0.25468000000000024  0.29554  0.9355200000000001  1.0000
  O   O48       1.0  0.22249999999999998  0.22118  0.9358  1.0000
  O   O49       1.0  0.72332  0.38234  0.29389  1.0000
  O   O50       1.0  0.79691  0.30889  0.22001000000000007  1.0000
  O   O51       1.0  0.05968999999999998  0.38101  0.06435  1.0000
  O   O52       1.0  0.027689999999999996  0.30672  0.06405  1.0000
  O   O53       1.0  0.19015999999999983  0.29569  0.06444000000000001  1.0000
  O   O54       1.0  0.15832  0.22127  0.06422000000000001  1.0000
  O   O55       1.0  0.39965  0.61791  0.70611  1.0000
  O   O56       1.0  0.32544  0.69125  0.7801300000000001  1.0000
  O   O57       1.0  0.5052700000000001  0.61919  0.93523  1.0000
  O   O58       1.0  0.39832000000000023  0.69347  0.93596  1.0000
  O   O59       1.0  0.5504399999999998  0.70424  0.9354400000000003  1.0000
  O   O60       1.0  0.44393999999999983  0.77876  0.9355800000000002  1.0000
  O   O61       1.0  0.10568000000000002  0.29386  0.61779  1.0000
  O   O62       1.0  0.10558999999999998  0.21983  0.6911100000000001  1.0000
  O   O63       1.0  0.4406199999999999  0.06437  0.6190000000000001  1.0000
  O   O64       1.0  0.33422  0.06408  0.6934000000000001  1.0000
  O   O65       1.0  0.48576000000000014  0.06439  0.70423  1.0000
  O   O66       1.0  0.37953999999999993  0.06412  0.7788900000000002  1.0000
  O   O67       1.0  0.017439999999999994  0.70607  0.38218000000000013  1.0000
  O   O68       1.0  0.01709999999999995  0.77995  0.30864  1.0000
  O   O69       1.0  0.12443000000000001  0.93522  0.38082000000000005  1.0000
  O   O70       1.0  0.09144999999999998  0.93613  0.30677  1.0000
  O   O71       1.0  0.25468999999999986  0.9354999999999999  0.29553000000000007  1.0000
  O   O72       1.0  0.22252000000000005  0.93581  0.22115  1.0000
  O   O73       1.0  0.27658999999999995  0.70607  0.61774  1.0000
  O   O74       1.0  0.20301  0.77999  0.69119  1.0000
  O   O75       1.0  0.9402600000000002  0.93553  0.61907  1.0000
  O   O76       1.0  0.9722800000000003  0.93597  0.6933  1.0000
  O   O77       1.0  0.8097  0.93553  0.7043100000000001  1.0000
  O   O78       1.0  0.84173  0.93556  0.7786700000000001  1.0000
  O   O79       1.0  0.60039  0.29385  0.38218000000000013  1.0000
  O   O80       1.0  0.6745700000000001  0.2199  0.30882  1.0000
  O   O81       1.0  0.49481  0.06469  0.38088  1.0000
  O   O82       1.0  0.6017  0.06406  0.30655  1.0000
  O   O83       1.0  0.44983000000000006  0.06452  0.2957  1.0000
  O   O84       1.0  0.5564000000000002  0.06412  0.22102  1.0000
  O   O85       1.0  0.8943299999999998  0.38221  0.70612  1.0000
  O   O86       1.0  0.8943899999999999  0.3089  0.7801600000000001  1.0000
  O   O87       1.0  0.5593900000000002  0.38092000000000004  0.9355100000000001  1.0000
  O   O88       1.0  0.6658  0.3066  0.93596  1.0000
  O   O89       1.0  0.51424  0.29579  0.93557  1.0000
  O   O90       1.0  0.6206399999999997  0.22125  0.9357000000000001  1.0000
  O   O91       1.0  0.9825800000000001  0.61781  0.2939  1.0000
  O   O92       1.0  0.9828999999999999  0.69136  0.22004000000000007  1.0000
  O   O93       1.0  0.87558  0.61917  0.06474  1.0000
  O   O94       1.0  0.90854  0.69321  0.06389000000000002  1.0000
  O   O95       1.0  0.7453100000000001  0.70446  0.06445  1.0000
  O   O96       1.0  0.77747  0.77886  0.06405  1.0000
  O   O97       1.0  0.15896999999999992  0.50001  0.6822200000000002  1.0000
  O   O98       1.0  0.34103  0.49999  0.31771000000000005  1.0000
  O   O99       1.0  0.6589699999999998  0.68226  0.50005  1.0000
  O   O100      1.0  0.84102  0.31776  0.50004  1.0000
  O   O101      1.0  0.84101  0.50006  0.31779  1.0000
  O   O102      1.0  0.6589600000000001  0.50005  0.68227  1.0000
  O   O103      1.0  0.34101  0.31774  0.49999  1.0000
  O   O104      1.0  0.15896999999999992  0.6822  0.5  1.0000
  O   O105      1.0  0.7740700000000007  0.68868  0.7636800000000001  1.0000
  O   O106      1.0  0.22256000000000004  0.31175  0.24289  1.0000
  O   O107      1.0  0.4655  0.7569999999999999  0.31177  1.0000
  O   O108      1.0  0.5345399999999999  0.24295  0.6882100000000001  1.0000
  O   O109      1.0  0.22257  0.24289999999999998  0.31175  1.0000
  O   O110      1.0  0.7740799999999993  0.7636200000000001  0.6887  1.0000
  O   O111      1.0  0.53453  0.68821  0.24293  1.0000
  O   O112      1.0  0.4655  0.31176  0.7570300000000001  1.0000
