data_image0
_chemical_formula_structural       Cu12H168C276N12O48
_chemical_formula_sum              "Cu12 H168 C276 N12 O48"
_cell_length_a       27.76536
_cell_length_b       27.76536
_cell_length_c       27.79247
_cell_angle_alpha    90.0
_cell_angle_beta     90.0
_cell_angle_gamma    90.0

_space_group_name_H-M_alt    "P 1"
_space_group_IT_number       1

loop_
  _space_group_symop_operation_xyz
  'x, y, z'

loop_
  _atom_site_type_symbol
  _atom_site_label
  _atom_site_symmetry_multiplicity
  _atom_site_fract_x
  _atom_site_fract_y
  _atom_site_fract_z
  _atom_site_occupancy
  Cu  Cu1       1.0  0.0  0.4999999999999999  0.70443  1.0000
  Cu  Cu2       1.0  0.0  0.4999999999999999  0.29557  1.0000
  Cu  Cu3       1.0  0.70428  0.0  0.4999999999999999  1.0000
  Cu  Cu4       1.0  0.29572  0.0  0.4999999999999999  1.0000
  Cu  Cu5       1.0  0.4999999999999999  0.70443  0.0  1.0000
  Cu  Cu6       1.0  0.4999999999999999  0.29557  0.0  1.0000
  Cu  Cu7       1.0  0.0  0.4999999999999999  0.7955699999999998  1.0000
  Cu  Cu8       1.0  0.0  0.4999999999999999  0.20443  1.0000
  Cu  Cu9       1.0  0.4999999999999999  0.20428  0.0  1.0000
  Cu  Cu10      1.0  0.4999999999999999  0.7957199999999998  0.0  1.0000
  Cu  Cu11      1.0  0.20443  0.0  0.4999999999999999  1.0000
  Cu  Cu12      1.0  0.79557  0.0  0.4999999999999999  1.0000
  H   H1        1.0  0.10374999999999997  0.38759  0.8268399999999998  1.0000
  H   H2        1.0  0.16688999999999996  0.32399  0.8271399999999999  1.0000
  H   H3        1.0  0.89625  0.61241  0.8268399999999998  1.0000
  H   H4        1.0  0.8331099999999999  0.67601  0.8271399999999999  1.0000
  H   H5        1.0  0.89625  0.38759  0.17316  1.0000
  H   H6        1.0  0.8331099999999999  0.32399  0.17285999999999996  1.0000
  H   H7        1.0  0.10374999999999997  0.61241  0.17316  1.0000
  H   H8        1.0  0.16688999999999996  0.67601  0.17285999999999996  1.0000
  H   H9        1.0  0.8279299999999999  0.10446  0.38756  1.0000
  H   H10       1.0  0.8278299999999998  0.16719  0.32351  1.0000
  H   H11       1.0  0.8279299999999999  0.8955399999999998  0.61244  1.0000
  H   H12       1.0  0.8278299999999998  0.83281  0.67649  1.0000
  H   H13       1.0  0.17206  0.8955399999999998  0.38756  1.0000
  H   H14       1.0  0.17217  0.83281  0.32351  1.0000
  H   H15       1.0  0.17206  0.10446  0.61244  1.0000
  H   H16       1.0  0.17217  0.16719  0.67649  1.0000
  H   H17       1.0  0.38771  0.82584  0.10371  1.0000
  H   H18       1.0  0.32424999999999987  0.82667  0.16698  1.0000
  H   H19       1.0  0.57132  0.62452  0.02069  1.0000
  H   H20       1.0  0.5745  0.53423  0.022589999999999992  1.0000
  H   H21       1.0  0.61229  0.82584  0.89629  1.0000
  H   H22       1.0  0.6757499999999999  0.82667  0.8330199999999998  1.0000
  H   H23       1.0  0.42868  0.62452  0.97931  1.0000
  H   H24       1.0  0.4255  0.53423  0.97741  1.0000
  H   H25       1.0  0.38771  0.17416  0.89629  1.0000
  H   H26       1.0  0.32424999999999987  0.17333  0.8330199999999998  1.0000
  H   H27       1.0  0.57132  0.37547999999999987  0.97931  1.0000
  H   H28       1.0  0.5745  0.46577  0.97741  1.0000
  H   H29       1.0  0.61229  0.17416  0.10371  1.0000
  H   H30       1.0  0.6757499999999999  0.17333  0.16698  1.0000
  H   H31       1.0  0.42868  0.37547999999999987  0.02069  1.0000
  H   H32       1.0  0.4255  0.46577  0.022589999999999992  1.0000
  H   H33       1.0  0.8875899999999998  0.6037499999999998  0.67316  1.0000
  H   H34       1.0  0.82399  0.66689  0.67286  1.0000
  H   H35       1.0  0.11240999999999998  0.39625  0.67316  1.0000
  H   H36       1.0  0.17600999999999997  0.33311  0.67286  1.0000
  H   H37       1.0  0.8875899999999998  0.39625  0.32684  1.0000
  H   H38       1.0  0.82399  0.33311  0.32714  1.0000
  H   H39       1.0  0.11240999999999998  0.6037499999999998  0.32684  1.0000
  H   H40       1.0  0.17600999999999997  0.66689  0.32714  1.0000
  H   H41       1.0  0.60446  0.32793999999999995  0.11243999999999997  1.0000
  H   H42       1.0  0.6671899999999997  0.32783  0.17649  1.0000
  H   H43       1.0  0.3955399999999999  0.32793999999999995  0.8875599999999998  1.0000
  H   H44       1.0  0.33281  0.32783  0.8235099999999997  1.0000
  H   H45       1.0  0.3955399999999999  0.6720599999999998  0.11243999999999997  1.0000
  H   H46       1.0  0.33281  0.67217  0.17649  1.0000
  H   H47       1.0  0.60446  0.6720599999999998  0.8875599999999998  1.0000
  H   H48       1.0  0.6671899999999997  0.67217  0.8235099999999997  1.0000
  H   H49       1.0  0.32584  0.88771  0.39629  1.0000
  H   H50       1.0  0.32667  0.82425  0.33302  1.0000
  H   H51       1.0  0.12452  0.07132  0.4793099999999999  1.0000
  H   H52       1.0  0.03423  0.0745  0.4774099999999999  1.0000
  H   H53       1.0  0.32584  0.11228999999999997  0.6037099999999997  1.0000
  H   H54       1.0  0.32667  0.17575  0.66698  1.0000
  H   H55       1.0  0.12452  0.92868  0.52069  1.0000
  H   H56       1.0  0.03423  0.9255  0.52259  1.0000
  H   H57       1.0  0.6741599999999999  0.88771  0.6037099999999997  1.0000
  H   H58       1.0  0.6733299999999998  0.82425  0.66698  1.0000
  H   H59       1.0  0.87548  0.07132  0.52069  1.0000
  H   H60       1.0  0.9657699999999998  0.0745  0.52259  1.0000
  H   H61       1.0  0.6741599999999999  0.11228999999999997  0.39629  1.0000
  H   H62       1.0  0.6733299999999998  0.17575  0.33302  1.0000
  H   H63       1.0  0.87548  0.92868  0.4793099999999999  1.0000
  H   H64       1.0  0.9657699999999998  0.9255  0.4774099999999999  1.0000
  H   H65       1.0  0.89565  0.61214  0.17317  1.0000
  H   H66       1.0  0.8326899999999998  0.6760699999999998  0.17279  1.0000
  H   H67       1.0  0.98012  0.42845  0.37553999999999993  1.0000
  H   H68       1.0  0.9782  0.42525  0.46567999999999987  1.0000
  H   H69       1.0  0.10435  0.38786  0.17317  1.0000
  H   H70       1.0  0.16730999999999993  0.3239299999999999  0.17279  1.0000
  H   H71       1.0  0.01988  0.57154  0.37553999999999993  1.0000
  H   H72       1.0  0.0218  0.57475  0.46567999999999987  1.0000
  H   H73       1.0  0.10435  0.61214  0.8268399999999998  1.0000
  H   H74       1.0  0.16730999999999993  0.6760699999999998  0.8272099999999998  1.0000
  H   H75       1.0  0.01988  0.42845  0.62446  1.0000
  H   H76       1.0  0.0218  0.42525  0.53432  1.0000
  H   H77       1.0  0.89565  0.38786  0.8268399999999998  1.0000
  H   H78       1.0  0.8326899999999998  0.3239299999999999  0.8272099999999998  1.0000
  H   H79       1.0  0.98012  0.57154  0.62446  1.0000
  H   H80       1.0  0.9782  0.57475  0.53432  1.0000
  H   H81       1.0  0.17411999999999994  0.89635  0.61215  1.0000
  H   H82       1.0  0.17334999999999998  0.83307  0.6756  1.0000
  H   H83       1.0  0.37547  0.9793299999999999  0.42873  1.0000
  H   H84       1.0  0.46577  0.97742  0.42555999999999994  1.0000
  H   H85       1.0  0.17411999999999994  0.10364999999999999  0.38784999999999986  1.0000
  H   H86       1.0  0.17334999999999998  0.16693  0.3243999999999999  1.0000
  H   H87       1.0  0.37547  0.02067  0.5712699999999998  1.0000
  H   H88       1.0  0.46577  0.02257  0.57444  1.0000
  H   H89       1.0  0.82588  0.10364999999999999  0.61215  1.0000
  H   H90       1.0  0.8266499999999999  0.16693  0.6756  1.0000
  H   H91       1.0  0.62453  0.02067  0.42873  1.0000
  H   H92       1.0  0.53423  0.02257  0.42555999999999994  1.0000
  H   H93       1.0  0.82588  0.89635  0.38784999999999986  1.0000
  H   H94       1.0  0.8266399999999998  0.83307  0.3243999999999999  1.0000
  H   H95       1.0  0.62453  0.9793299999999999  0.5712699999999998  1.0000
  H   H96       1.0  0.53423  0.97743  0.57444  1.0000
  H   H97       1.0  0.61228  0.17206  0.8956099999999998  1.0000
  H   H98       1.0  0.6762899999999997  0.17216  0.8328499999999999  1.0000
  H   H99       1.0  0.3877199999999999  0.17206  0.10439  1.0000
  H   H100      1.0  0.32370999999999994  0.17216  0.16715  1.0000
  H   H101      1.0  0.61228  0.82794  0.10439  1.0000
  H   H102      1.0  0.6762899999999997  0.82784  0.16715  1.0000
  H   H103      1.0  0.3877199999999999  0.82794  0.8956099999999998  1.0000
  H   H104      1.0  0.32370999999999994  0.82784  0.8328499999999999  1.0000
  H   H105      1.0  0.11214  0.3956499999999999  0.32683  1.0000
  H   H106      1.0  0.17607  0.33268999999999993  0.32721  1.0000
  H   H107      1.0  0.92845  0.48012  0.12446  1.0000
  H   H108      1.0  0.9252499999999999  0.4781999999999999  0.03432  1.0000
  H   H109      1.0  0.8878599999999998  0.6043499999999999  0.32684  1.0000
  H   H110      1.0  0.82393  0.66731  0.32721  1.0000
  H   H111      1.0  0.07154  0.51988  0.12446  1.0000
  H   H112      1.0  0.07475  0.5218  0.03432  1.0000
  H   H113      1.0  0.11214  0.6043499999999999  0.6731699999999998  1.0000
  H   H114      1.0  0.17607  0.66731  0.67279  1.0000
  H   H115      1.0  0.92845  0.51988  0.8755399999999998  1.0000
  H   H116      1.0  0.9252499999999999  0.5218  0.9656799999999998  1.0000
  H   H117      1.0  0.8878599999999998  0.3956499999999999  0.6731699999999998  1.0000
  H   H118      1.0  0.82393  0.33268999999999993  0.67279  1.0000
  H   H119      1.0  0.07155  0.48012  0.8755399999999998  1.0000
  H   H120      1.0  0.07475  0.4781999999999999  0.9656799999999998  1.0000
  H   H121      1.0  0.39635  0.6741199999999999  0.8878499999999998  1.0000
  H   H122      1.0  0.33306999999999987  0.67335  0.8243999999999998  1.0000
  H   H123      1.0  0.47932999999999987  0.87547  0.07127  1.0000
  H   H124      1.0  0.47742  0.9657699999999998  0.07443999999999999  1.0000
  H   H125      1.0  0.60365  0.6741199999999999  0.11215  1.0000
  H   H126      1.0  0.6669299999999999  0.67335  0.17559999999999995  1.0000
  H   H127      1.0  0.52067  0.87547  0.9287299999999999  1.0000
  H   H128      1.0  0.52257  0.9657699999999998  0.92556  1.0000
  H   H129      1.0  0.60365  0.32588  0.8878499999999998  1.0000
  H   H130      1.0  0.6669299999999999  0.32665  0.8243999999999998  1.0000
  H   H131      1.0  0.52067  0.12452999999999997  0.07127  1.0000
  H   H132      1.0  0.52257  0.03423  0.07443999999999999  1.0000
  H   H133      1.0  0.39635  0.32588  0.11215  1.0000
  H   H134      1.0  0.33306999999999987  0.32665  0.17559999999999995  1.0000
  H   H135      1.0  0.47932999999999987  0.12452999999999997  0.9287299999999999  1.0000
  H   H136      1.0  0.47742999999999997  0.03423  0.92556  1.0000
  H   H137      1.0  0.6720599999999998  0.11227999999999999  0.60439  1.0000
  H   H138      1.0  0.6721599999999999  0.17629  0.66715  1.0000
  H   H139      1.0  0.6720599999999998  0.8877199999999997  0.39561  1.0000
  H   H140      1.0  0.6721599999999999  0.82371  0.33285  1.0000
  H   H141      1.0  0.32793999999999995  0.11227999999999999  0.39561  1.0000
  H   H142      1.0  0.32784  0.17629  0.33285  1.0000
  H   H143      1.0  0.32793999999999995  0.8877199999999997  0.60439  1.0000
  H   H144      1.0  0.32784  0.82371  0.66715  1.0000
  H   H145      1.0  0.25011  0.31358  0.81296  1.0000
  H   H146      1.0  0.74989  0.68642  0.81296  1.0000
  H   H147      1.0  0.74989  0.31358  0.18704999999999997  1.0000
  H   H148      1.0  0.25011  0.68642  0.18704999999999997  1.0000
  H   H149      1.0  0.81358  0.24988999999999995  0.3129499999999999  1.0000
  H   H150      1.0  0.81358  0.7501099999999998  0.68705  1.0000
  H   H151      1.0  0.18642  0.7501099999999998  0.3129499999999999  1.0000
  H   H152      1.0  0.18642  0.24988999999999995  0.68705  1.0000
  H   H153      1.0  0.31314  0.8131399999999998  0.24999999999999994  1.0000
  H   H154      1.0  0.68686  0.8131399999999998  0.7499999999999999  1.0000
  H   H155      1.0  0.31314  0.18686  0.7499999999999999  1.0000
  H   H156      1.0  0.68686  0.18686  0.24999999999999994  1.0000
  H   H157      1.0  0.7501099999999998  0.6871599999999998  0.18654999999999994  1.0000
  H   H158      1.0  0.24988999999999995  0.31283999999999995  0.18654999999999994  1.0000
  H   H159      1.0  0.24988999999999995  0.6871599999999998  0.8134499999999999  1.0000
  H   H160      1.0  0.7501099999999998  0.31283999999999995  0.8134499999999999  1.0000
  H   H161      1.0  0.18715999999999994  0.74989  0.68655  1.0000
  H   H162      1.0  0.18715999999999994  0.25011  0.31345  1.0000
  H   H163      1.0  0.81284  0.25011  0.68655  1.0000
  H   H164      1.0  0.81284  0.74989  0.31345  1.0000
  H   H165      1.0  0.68661  0.18661  0.7499999999999999  1.0000
  H   H166      1.0  0.31339  0.18661  0.24999999999999994  1.0000
  H   H167      1.0  0.68661  0.81339  0.24999999999999994  1.0000
  H   H168      1.0  0.31339  0.81339  0.7499999999999999  1.0000
  C   C1        1.0  0.12  0.37556  0.79336  1.0000
  C   C2        1.0  0.15552999999999995  0.34013  0.7933299999999998  1.0000
  C   C3        1.0  0.8799999999999999  0.6244399999999998  0.79336  1.0000
  C   C4        1.0  0.8444699999999998  0.65986  0.7933299999999998  1.0000
  C   C5        1.0  0.8799999999999999  0.37556  0.20663999999999993  1.0000
  C   C6        1.0  0.8444699999999998  0.34013  0.20667  1.0000
  C   C7        1.0  0.12  0.6244399999999998  0.20663999999999993  1.0000
  C   C8        1.0  0.15552999999999995  0.65986  0.20667  1.0000
  C   C9        1.0  0.7943599999999998  0.12045999999999998  0.37537999999999994  1.0000
  C   C10       1.0  0.79405  0.15577999999999995  0.3397499999999999  1.0000
  C   C11       1.0  0.7943599999999998  0.8795399999999998  0.6246199999999998  1.0000
  C   C12       1.0  0.79405  0.84422  0.6602499999999999  1.0000
  C   C13       1.0  0.20563999999999996  0.8795399999999998  0.37537999999999994  1.0000
  C   C14       1.0  0.20595  0.84422  0.3397499999999999  1.0000
  C   C15       1.0  0.20563999999999996  0.12045999999999998  0.6246199999999998  1.0000
  C   C16       1.0  0.20595  0.15577999999999995  0.6602499999999999  1.0000
  C   C17       1.0  0.37552999999999986  0.79246  0.12010999999999997  1.0000
  C   C18       1.0  0.34023  0.79271  0.15572999999999995  1.0000
  C   C19       1.0  0.54007  0.6027  0.01147  1.0000
  C   C20       1.0  0.54158  0.5526499999999999  0.012029999999999999  1.0000
  C   C21       1.0  0.62447  0.79246  0.87989  1.0000
  C   C22       1.0  0.65977  0.7927199999999998  0.8442699999999997  1.0000
  C   C23       1.0  0.45993  0.6027  0.9885299999999998  1.0000
  C   C24       1.0  0.45841999999999994  0.5526499999999999  0.9879699999999999  1.0000
  C   C25       1.0  0.37552999999999986  0.20754  0.87989  1.0000
  C   C26       1.0  0.34023  0.20728  0.8442699999999997  1.0000
  C   C27       1.0  0.54007  0.3973  0.9885299999999998  1.0000
  C   C28       1.0  0.54158  0.44735  0.9879699999999999  1.0000
  C   C29       1.0  0.62447  0.20754  0.12010999999999997  1.0000
  C   C30       1.0  0.65977  0.20728  0.15572999999999995  1.0000
  C   C31       1.0  0.45993  0.3973  0.01147  1.0000
  C   C32       1.0  0.45841999999999994  0.44735  0.012029999999999999  1.0000
  C   C33       1.0  0.87556  0.62  0.7066399999999999  1.0000
  C   C34       1.0  0.84013  0.65553  0.70667  1.0000
  C   C35       1.0  0.12444  0.38  0.7066399999999999  1.0000
  C   C36       1.0  0.15986  0.34446999999999994  0.70667  1.0000
  C   C37       1.0  0.87556  0.38  0.29336  1.0000
  C   C38       1.0  0.84013  0.34446999999999994  0.29333  1.0000
  C   C39       1.0  0.12444  0.62  0.29336  1.0000
  C   C40       1.0  0.15986  0.65553  0.29333  1.0000
  C   C41       1.0  0.62046  0.29436  0.12462  1.0000
  C   C42       1.0  0.6557799999999998  0.29404999999999987  0.16025  1.0000
  C   C43       1.0  0.37954  0.29436  0.87538  1.0000
  C   C44       1.0  0.3442199999999999  0.29404999999999987  0.83975  1.0000
  C   C45       1.0  0.37954  0.70564  0.12462  1.0000
  C   C46       1.0  0.3442199999999999  0.7059499999999999  0.16025  1.0000
  C   C47       1.0  0.62046  0.70564  0.87538  1.0000
  C   C48       1.0  0.6557799999999998  0.7059499999999999  0.83975  1.0000
  C   C49       1.0  0.2924599999999999  0.8755299999999998  0.37989  1.0000
  C   C50       1.0  0.29271  0.84023  0.3442699999999999  1.0000
  C   C51       1.0  0.10269999999999997  0.04007  0.4885299999999999  1.0000
  C   C52       1.0  0.05265  0.041579999999999985  0.48797  1.0000
  C   C53       1.0  0.2924599999999999  0.12447  0.6201099999999998  1.0000
  C   C54       1.0  0.29272  0.15977  0.65573  1.0000
  C   C55       1.0  0.10269999999999997  0.95993  0.51147  1.0000
  C   C56       1.0  0.05265  0.95842  0.51203  1.0000
  C   C57       1.0  0.7075399999999998  0.8755299999999998  0.6201099999999998  1.0000
  C   C58       1.0  0.70728  0.84023  0.65573  1.0000
  C   C59       1.0  0.8973  0.04007  0.51147  1.0000
  C   C60       1.0  0.9473499999999998  0.041579999999999985  0.51203  1.0000
  C   C61       1.0  0.7075399999999998  0.12447  0.37989  1.0000
  C   C62       1.0  0.70728  0.15977  0.3442699999999999  1.0000
  C   C63       1.0  0.8973  0.95993  0.4885299999999999  1.0000
  C   C64       1.0  0.9473499999999998  0.95842  0.48797  1.0000
  C   C65       1.0  0.87956  0.62448  0.20660999999999993  1.0000
  C   C66       1.0  0.84409  0.66  0.20663999999999993  1.0000
  C   C67       1.0  0.9889699999999999  0.4598199999999999  0.3973299999999999  1.0000
  C   C68       1.0  0.9884099999999998  0.45831  0.44733  1.0000
  C   C69       1.0  0.12044  0.37552  0.20660999999999993  1.0000
  C   C70       1.0  0.15591  0.34  0.20663999999999993  1.0000
  C   C71       1.0  0.01103  0.54018  0.3973299999999999  1.0000
  C   C72       1.0  0.01159  0.54169  0.44733  1.0000
  C   C73       1.0  0.12044  0.62448  0.79339  1.0000
  C   C74       1.0  0.15591  0.66  0.79336  1.0000
  C   C75       1.0  0.01103  0.4598199999999999  0.60267  1.0000
  C   C76       1.0  0.01159  0.45831  0.5526699999999999  1.0000
  C   C77       1.0  0.87956  0.37552  0.79339  1.0000
  C   C78       1.0  0.84409  0.34  0.79336  1.0000
  C   C79       1.0  0.9889699999999999  0.54018  0.60267  1.0000
  C   C80       1.0  0.9884099999999998  0.54169  0.5526699999999999  1.0000
  C   C81       1.0  0.20752  0.8799899999999998  0.6243299999999999  1.0000
  C   C82       1.0  0.20729999999999998  0.8443699999999997  0.6596299999999998  1.0000
  C   C83       1.0  0.3973  0.9885399999999998  0.45995  1.0000
  C   C84       1.0  0.44735  0.98798  0.4584499999999999  1.0000
  C   C85       1.0  0.20752  0.12000999999999998  0.37568  1.0000
  C   C86       1.0  0.20729999999999998  0.15563  0.34037  1.0000
  C   C87       1.0  0.3973  0.01146  0.54005  1.0000
  C   C88       1.0  0.44735  0.01202  0.54155  1.0000
  C   C89       1.0  0.7924799999999997  0.12000999999999998  0.6243299999999999  1.0000
  C   C90       1.0  0.7927  0.15563  0.6596299999999998  1.0000
  C   C91       1.0  0.6027  0.01146  0.45995  1.0000
  C   C92       1.0  0.5526499999999999  0.01202  0.4584499999999999  1.0000
  C   C93       1.0  0.7924799999999997  0.8799899999999998  0.37567  1.0000
  C   C94       1.0  0.7927  0.8443699999999997  0.34037  1.0000
  C   C95       1.0  0.6027  0.9885399999999998  0.54005  1.0000
  C   C96       1.0  0.5526499999999999  0.98798  0.54155  1.0000
  C   C97       1.0  0.62446  0.20564999999999994  0.8796499999999998  1.0000
  C   C98       1.0  0.66007  0.20594  0.84431  1.0000
  C   C99       1.0  0.37552999999999986  0.20564999999999994  0.12034999999999997  1.0000
  C   C100      1.0  0.33993  0.20594  0.15569  1.0000
  C   C101      1.0  0.62446  0.7943499999999998  0.12034999999999997  1.0000
  C   C102      1.0  0.66007  0.79406  0.15569  1.0000
  C   C103      1.0  0.37552999999999986  0.7943499999999998  0.8796499999999998  1.0000
  C   C104      1.0  0.33993  0.79406  0.84431  1.0000
  C   C105      1.0  0.12448  0.37956  0.29339  1.0000
  C   C106      1.0  0.15999999999999995  0.34409  0.29336  1.0000
  C   C107      1.0  0.95982  0.48897  0.10267  1.0000
  C   C108      1.0  0.9583099999999998  0.4884099999999999  0.05266999999999999  1.0000
  C   C109      1.0  0.87552  0.6204399999999998  0.29339  1.0000
  C   C110      1.0  0.84  0.6559099999999998  0.29336  1.0000
  C   C111      1.0  0.04018  0.51103  0.10267  1.0000
  C   C112      1.0  0.04169  0.51159  0.05266999999999999  1.0000
  C   C113      1.0  0.12448  0.6204399999999998  0.7066099999999997  1.0000
  C   C114      1.0  0.15999999999999995  0.6559099999999998  0.7066399999999999  1.0000
  C   C115      1.0  0.95982  0.51103  0.8973299999999997  1.0000
  C   C116      1.0  0.9583099999999998  0.51159  0.94733  1.0000
  C   C117      1.0  0.87552  0.37956  0.7066099999999997  1.0000
  C   C118      1.0  0.84  0.34409  0.7066399999999999  1.0000
  C   C119      1.0  0.04018  0.48897  0.8973299999999997  1.0000
  C   C120      1.0  0.04169  0.4884099999999999  0.94733  1.0000
  C   C121      1.0  0.37998999999999994  0.70752  0.87568  1.0000
  C   C122      1.0  0.34437  0.7073  0.84037  1.0000
  C   C123      1.0  0.48853999999999986  0.8973  0.040049999999999995  1.0000
  C   C124      1.0  0.4879799999999999  0.9473499999999998  0.04154999999999998  1.0000
  C   C125      1.0  0.62001  0.70752  0.12432999999999997  1.0000
  C   C126      1.0  0.65563  0.7073  0.15963  1.0000
  C   C127      1.0  0.51146  0.8973  0.9599499999999999  1.0000
  C   C128      1.0  0.51202  0.9473499999999998  0.9584499999999999  1.0000
  C   C129      1.0  0.62001  0.29248  0.87568  1.0000
  C   C130      1.0  0.65563  0.2927  0.84037  1.0000
  C   C131      1.0  0.51146  0.10269999999999997  0.040049999999999995  1.0000
  C   C132      1.0  0.51202  0.05265  0.04154999999999998  1.0000
  C   C133      1.0  0.37998999999999994  0.29248  0.12432999999999997  1.0000
  C   C134      1.0  0.34437  0.2927  0.15963  1.0000
  C   C135      1.0  0.48853999999999986  0.10269999999999997  0.9599499999999999  1.0000
  C   C136      1.0  0.4879799999999999  0.05265  0.9584499999999999  1.0000
  C   C137      1.0  0.70565  0.12447  0.62035  1.0000
  C   C138      1.0  0.7059399999999998  0.16007  0.6556899999999998  1.0000
  C   C139      1.0  0.70565  0.8755299999999998  0.3796499999999999  1.0000
  C   C140      1.0  0.7059399999999998  0.8399299999999998  0.34431  1.0000
  C   C141      1.0  0.2943499999999999  0.12447  0.3796499999999999  1.0000
  C   C142      1.0  0.29406  0.16007  0.34431  1.0000
  C   C143      1.0  0.2943499999999999  0.8755299999999998  0.62035  1.0000
  C   C144      1.0  0.29406  0.8399299999999998  0.6556899999999998  1.0000
  C   C145      1.0  0.0  0.4999999999999999  0.52652  1.0000
  C   C146      1.0  0.0  0.4999999999999999  0.47348  1.0000
  C   C147      1.0  0.52653  0.0  0.4999999999999999  1.0000
  C   C148      1.0  0.4734699999999999  0.0  0.4999999999999999  1.0000
  C   C149      1.0  0.4999999999999999  0.52653  0.0  1.0000
  C   C150      1.0  0.4999999999999999  0.4734699999999999  0.0  1.0000
  C   C151      1.0  0.0  0.4999999999999999  0.9734799999999998  1.0000
  C   C152      1.0  0.0  0.4999999999999999  0.02652  1.0000
  C   C153      1.0  0.4999999999999999  0.02653  0.0  1.0000
  C   C154      1.0  0.4999999999999999  0.97347  0.0  1.0000
  C   C155      1.0  0.02653  0.0  0.4999999999999999  1.0000
  C   C156      1.0  0.97347  0.0  0.4999999999999999  1.0000
  C   C157      1.0  0.06595  0.43405  0.7499999999999999  1.0000
  C   C158      1.0  0.10405  0.3959499999999999  0.7499999999999999  1.0000
  C   C159      1.0  0.17613  0.32387  0.7499999999999999  1.0000
  C   C160      1.0  0.21387999999999993  0.28612  0.7499999999999999  1.0000
  C   C161      1.0  0.93405  0.56595  0.7499999999999999  1.0000
  C   C162      1.0  0.8959499999999998  0.60405  0.7499999999999999  1.0000
  C   C163      1.0  0.8238699999999998  0.67613  0.7499999999999999  1.0000
  C   C164      1.0  0.7861199999999998  0.71388  0.7499999999999999  1.0000
  C   C165      1.0  0.93405  0.43405  0.24999999999999994  1.0000
  C   C166      1.0  0.8959499999999998  0.3959499999999999  0.24999999999999994  1.0000
  C   C167      1.0  0.8238699999999998  0.32387  0.24999999999999994  1.0000
  C   C168      1.0  0.7861199999999998  0.28612  0.24999999999999994  1.0000
  C   C169      1.0  0.06595  0.56595  0.24999999999999994  1.0000
  C   C170      1.0  0.10405  0.60405  0.24999999999999994  1.0000
  C   C171      1.0  0.17613  0.67613  0.24999999999999994  1.0000
  C   C172      1.0  0.21387999999999993  0.71388  0.24999999999999994  1.0000
  C   C173      1.0  0.75109  0.06641  0.43414999999999987  1.0000
  C   C174      1.0  0.75107  0.10442  0.39589999999999986  1.0000
  C   C175      1.0  0.75054  0.17615  0.32351  1.0000
  C   C176      1.0  0.7502799999999997  0.21393999999999996  0.28583  1.0000
  C   C177      1.0  0.75109  0.93359  0.56585  1.0000
  C   C178      1.0  0.75107  0.89558  0.6041  1.0000
  C   C179      1.0  0.75054  0.82385  0.67649  1.0000
  C   C180      1.0  0.7502799999999997  0.78605  0.7141699999999997  1.0000
  C   C181      1.0  0.24890999999999994  0.93359  0.43414999999999987  1.0000
  C   C182      1.0  0.24893  0.89558  0.39589999999999986  1.0000
  C   C183      1.0  0.24946  0.82385  0.32351  1.0000
  C   C184      1.0  0.24971999999999997  0.78605  0.28583  1.0000
  C   C185      1.0  0.24890999999999994  0.06641  0.56585  1.0000
  C   C186      1.0  0.24893  0.10442  0.6041  1.0000
  C   C187      1.0  0.24946  0.17615  0.67649  1.0000
  C   C188      1.0  0.24971999999999997  0.21393999999999996  0.7141699999999997  1.0000
  C   C189      1.0  0.43359  0.74891  0.06585  1.0000
  C   C190      1.0  0.39558  0.7489299999999999  0.10409999999999997  1.0000
  C   C191      1.0  0.32385  0.7494599999999998  0.17649  1.0000
  C   C192      1.0  0.28605  0.74972  0.21416999999999994  1.0000
  C   C193      1.0  0.56641  0.74891  0.93415  1.0000
  C   C194      1.0  0.60442  0.7489299999999999  0.8958999999999998  1.0000
  C   C195      1.0  0.6761499999999998  0.7494599999999998  0.8235099999999997  1.0000
  C   C196      1.0  0.71394  0.74972  0.78583  1.0000
  C   C197      1.0  0.43359  0.25109  0.93415  1.0000
  C   C198      1.0  0.39558  0.25107  0.8958999999999998  1.0000
  C   C199      1.0  0.32385  0.25054  0.8235099999999997  1.0000
  C   C200      1.0  0.28605  0.25028  0.78583  1.0000
  C   C201      1.0  0.56641  0.25109  0.06585  1.0000
  C   C202      1.0  0.60442  0.25107  0.10409999999999997  1.0000
  C   C203      1.0  0.6761499999999998  0.25054  0.17649  1.0000
  C   C204      1.0  0.71394  0.25028  0.21416999999999994  1.0000
  C   C205      1.0  0.93387  0.56613  0.24999999999999994  1.0000
  C   C206      1.0  0.8957  0.6042999999999998  0.24999999999999994  1.0000
  C   C207      1.0  0.82361  0.6763899999999999  0.24999999999999994  1.0000
  C   C208      1.0  0.7858499999999998  0.71415  0.24999999999999994  1.0000
  C   C209      1.0  0.06613  0.43387  0.24999999999999994  1.0000
  C   C210      1.0  0.1043  0.3956999999999999  0.24999999999999994  1.0000
  C   C211      1.0  0.17639  0.32361  0.24999999999999994  1.0000
  C   C212      1.0  0.21415  0.28585  0.24999999999999994  1.0000
  C   C213      1.0  0.06613  0.56613  0.7499999999999999  1.0000
  C   C214      1.0  0.1043  0.6042999999999998  0.7499999999999999  1.0000
  C   C215      1.0  0.17639  0.6763899999999999  0.7499999999999999  1.0000
  C   C216      1.0  0.21415  0.71415  0.7499999999999999  1.0000
  C   C217      1.0  0.93387  0.43387  0.7499999999999999  1.0000
  C   C218      1.0  0.8957  0.3956999999999999  0.7499999999999999  1.0000
  C   C219      1.0  0.82361  0.32361  0.7499999999999999  1.0000
  C   C220      1.0  0.7858499999999998  0.28585  0.7499999999999999  1.0000
  C   C221      1.0  0.25111999999999995  0.93432  0.5663099999999999  1.0000
  C   C222      1.0  0.25105  0.8960399999999997  0.6042799999999998  1.0000
  C   C223      1.0  0.25057  0.82367  0.6760499999999998  1.0000
  C   C224      1.0  0.25033  0.786  0.7138499999999998  1.0000
  C   C225      1.0  0.25113  0.06568  0.43369  1.0000
  C   C226      1.0  0.25105  0.10396  0.39572  1.0000
  C   C227      1.0  0.25057  0.17633  0.32395  1.0000
  C   C228      1.0  0.25033  0.214  0.28615  1.0000
  C   C229      1.0  0.7488699999999998  0.06568  0.5663099999999999  1.0000
  C   C230      1.0  0.74895  0.10396  0.6042799999999998  1.0000
  C   C231      1.0  0.7494299999999999  0.17633  0.6760499999999998  1.0000
  C   C232      1.0  0.74967  0.214  0.7138499999999998  1.0000
  C   C233      1.0  0.7488699999999998  0.93432  0.43369  1.0000
  C   C234      1.0  0.74895  0.8960399999999997  0.39572  1.0000
  C   C235      1.0  0.7494299999999999  0.82367  0.32395  1.0000
  C   C236      1.0  0.74967  0.786  0.28615  1.0000
  C   C237      1.0  0.5656799999999998  0.24887  0.93369  1.0000
  C   C238      1.0  0.60396  0.24895  0.89572  1.0000
  C   C239      1.0  0.6763299999999998  0.24943  0.8239499999999997  1.0000
  C   C240      1.0  0.7139999999999999  0.24967  0.78615  1.0000
  C   C241      1.0  0.43432  0.24887  0.06631  1.0000
  C   C242      1.0  0.3960399999999999  0.24895  0.10428  1.0000
  C   C243      1.0  0.32367  0.24943  0.17604999999999996  1.0000
  C   C244      1.0  0.2859999999999999  0.24967  0.21384999999999996  1.0000
  C   C245      1.0  0.5656799999999998  0.75112  0.06631  1.0000
  C   C246      1.0  0.60396  0.75105  0.10428  1.0000
  C   C247      1.0  0.6763299999999998  0.75057  0.17604999999999996  1.0000
  C   C248      1.0  0.7139999999999999  0.7503299999999998  0.21384999999999996  1.0000
  C   C249      1.0  0.43432  0.75113  0.93369  1.0000
  C   C250      1.0  0.3960399999999999  0.75105  0.89572  1.0000
  C   C251      1.0  0.32367  0.75057  0.8239499999999997  1.0000
  C   C252      1.0  0.2859999999999999  0.7503299999999998  0.78615  1.0000
  C   C253      1.0  0.25001  0.28578  0.78536  1.0000
  C   C254      1.0  0.74999  0.7142199999999997  0.78536  1.0000
  C   C255      1.0  0.74999  0.28578  0.21464  1.0000
  C   C256      1.0  0.25001  0.7142199999999997  0.21464  1.0000
  C   C257      1.0  0.78578  0.24998999999999993  0.28535999999999995  1.0000
  C   C258      1.0  0.78578  0.7500099999999997  0.7146399999999998  1.0000
  C   C259      1.0  0.21421999999999994  0.7500099999999997  0.28535999999999995  1.0000
  C   C260      1.0  0.21421999999999994  0.24998999999999993  0.7146399999999998  1.0000
  C   C261      1.0  0.28543  0.78543  0.24999999999999994  1.0000
  C   C262      1.0  0.71457  0.78543  0.7499999999999999  1.0000
  C   C263      1.0  0.28543  0.21457  0.7499999999999999  1.0000
  C   C264      1.0  0.71457  0.21457  0.24999999999999994  1.0000
  C   C265      1.0  0.74999  0.7147699999999998  0.21434  1.0000
  C   C266      1.0  0.25001  0.28523  0.21434  1.0000
  C   C267      1.0  0.25001  0.7147699999999998  0.78566  1.0000
  C   C268      1.0  0.74999  0.28523  0.78566  1.0000
  C   C269      1.0  0.21477  0.7500099999999997  0.7143399999999998  1.0000
  C   C270      1.0  0.21477  0.24998999999999993  0.28566  1.0000
  C   C271      1.0  0.78523  0.24998999999999993  0.7143399999999998  1.0000
  C   C272      1.0  0.78523  0.7500099999999997  0.28566  1.0000
  C   C273      1.0  0.71432  0.21432  0.7499999999999999  1.0000
  C   C274      1.0  0.28568  0.21432  0.24999999999999994  1.0000
  C   C275      1.0  0.71432  0.7856799999999999  0.24999999999999994  1.0000
  C   C276      1.0  0.28568  0.7856799999999999  0.7499999999999999  1.0000
  N   N1        1.0  0.0  0.4999999999999999  0.6273299999999998  1.0000
  N   N2        1.0  0.0  0.4999999999999999  0.3726699999999999  1.0000
  N   N3        1.0  0.62734  0.0  0.4999999999999999  1.0000
  N   N4        1.0  0.3726599999999999  0.0  0.4999999999999999  1.0000
  N   N5        1.0  0.4999999999999999  0.6273499999999997  0.0  1.0000
  N   N6        1.0  0.4999999999999999  0.37265  0.0  1.0000
  N   N7        1.0  0.0  0.4999999999999999  0.87267  1.0000
  N   N8        1.0  0.0  0.4999999999999999  0.12733  1.0000
  N   N9        1.0  0.4999999999999999  0.12734  0.0  1.0000
  N   N10       1.0  0.4999999999999999  0.8726599999999998  0.0  1.0000
  N   N11       1.0  0.12734999999999996  0.0  0.4999999999999999  1.0000
  N   N12       1.0  0.87265  0.0  0.4999999999999999  1.0000
  O   O1        1.0  0.05205  0.44985  0.7091199999999998  1.0000
  O   O2        1.0  0.94795  0.55015  0.7091199999999998  1.0000
  O   O3        1.0  0.94795  0.44985  0.29088  1.0000
  O   O4        1.0  0.05205  0.55015  0.29088  1.0000
  O   O5        1.0  0.71005  0.05089  0.44808  1.0000
  O   O6        1.0  0.71005  0.9491099999999998  0.5519199999999999  1.0000
  O   O7        1.0  0.28995  0.9491099999999998  0.44808  1.0000
  O   O8        1.0  0.28995  0.05089  0.5519199999999999  1.0000
  O   O9        1.0  0.4476999999999999  0.708  0.05013  1.0000
  O   O10       1.0  0.5523  0.708  0.9498799999999998  1.0000
  O   O11       1.0  0.4476999999999999  0.292  0.9498799999999998  1.0000
  O   O12       1.0  0.5523  0.292  0.05013  1.0000
  O   O13       1.0  0.9498499999999998  0.55205  0.79088  1.0000
  O   O14       1.0  0.050149999999999986  0.44795  0.79088  1.0000
  O   O15       1.0  0.9498499999999998  0.44795  0.20912  1.0000
  O   O16       1.0  0.050149999999999986  0.55205  0.20912  1.0000
  O   O17       1.0  0.55089  0.21004999999999996  0.05192  1.0000
  O   O18       1.0  0.4491099999999999  0.21004999999999996  0.9480799999999998  1.0000
  O   O19       1.0  0.4491099999999999  0.7899499999999999  0.05192  1.0000
  O   O20       1.0  0.55089  0.7899499999999999  0.9480799999999998  1.0000
  O   O21       1.0  0.20799999999999993  0.9476999999999998  0.44988  1.0000
  O   O22       1.0  0.20799999999999993  0.0523  0.55013  1.0000
  O   O23       1.0  0.7919999999999999  0.9476999999999998  0.55013  1.0000
  O   O24       1.0  0.7919999999999999  0.0523  0.44988  1.0000
  O   O25       1.0  0.9499899999999999  0.55251  0.29083  1.0000
  O   O26       1.0  0.05001  0.44749  0.29083  1.0000
  O   O27       1.0  0.05001  0.55251  0.7091699999999997  1.0000
  O   O28       1.0  0.9499899999999999  0.44749  0.7091699999999997  1.0000
  O   O29       1.0  0.29207999999999995  0.9498999999999999  0.55216  1.0000
  O   O30       1.0  0.29207999999999995  0.0501  0.4478399999999999  1.0000
  O   O31       1.0  0.7079099999999999  0.0501  0.55216  1.0000
  O   O32       1.0  0.7079099999999999  0.9498999999999999  0.4478399999999999  1.0000
  O   O33       1.0  0.55157  0.28991  0.9491299999999998  1.0000
  O   O34       1.0  0.4484299999999999  0.28991  0.05087  1.0000
  O   O35       1.0  0.55157  0.7100899999999999  0.05087  1.0000
  O   O36       1.0  0.4484299999999999  0.7100899999999999  0.9491299999999998  1.0000
  O   O37       1.0  0.052509999999999994  0.44999  0.20916999999999994  1.0000
  O   O38       1.0  0.9474899999999998  0.55001  0.20916999999999994  1.0000
  O   O39       1.0  0.052509999999999994  0.55001  0.79083  1.0000
  O   O40       1.0  0.9474899999999998  0.44999  0.79083  1.0000
  O   O41       1.0  0.4499  0.7920799999999998  0.94784  1.0000
  O   O42       1.0  0.5501  0.7920799999999998  0.05216  1.0000
  O   O43       1.0  0.5501  0.20792  0.94784  1.0000
  O   O44       1.0  0.4499  0.20792  0.05216  1.0000
  O   O45       1.0  0.78991  0.05157  0.55087  1.0000
  O   O46       1.0  0.78991  0.9484299999999998  0.44912999999999986  1.0000
  O   O47       1.0  0.21009  0.05157  0.44912999999999986  1.0000
  O   O48       1.0  0.21009  0.9484299999999998  0.55087  1.0000
