data_image0
_chemical_formula_structural       Zn12H104C184N40O64
_chemical_formula_sum              "Zn12 H104 C184 N40 O64"
_cell_length_a       11.35356
_cell_length_b       19.54325
_cell_length_c       22.65911
_cell_angle_alpha    89.99415999999998
_cell_angle_beta     90.0
_cell_angle_gamma    90.0

_space_group_name_H-M_alt    "P 1"
_space_group_IT_number       1

loop_
  _space_group_symop_operation_xyz
  'x, y, z'

loop_
  _atom_site_type_symbol
  _atom_site_label
  _atom_site_symmetry_multiplicity
  _atom_site_fract_x
  _atom_site_fract_y
  _atom_site_fract_z
  _atom_site_occupancy
  Zn  Zn1       1.0  0.4325300000000001  0.93886  0.37997  1.0000
  Zn  Zn2       1.0  0.5652700000000002  0.5639199999999999  0.37966  1.0000
  Zn  Zn3       1.0  0.4325300000000001  0.06112999999999999  0.12003  1.0000
  Zn  Zn4       1.0  0.5652700000000002  0.43608  0.12034  1.0000
  Zn  Zn5       1.0  0.56747  0.06114  0.62004  1.0000
  Zn  Zn6       1.0  0.43473  0.43608  0.62034  1.0000
  Zn  Zn7       1.0  0.56747  0.93886  0.87997  1.0000
  Zn  Zn8       1.0  0.43473  0.5639199999999999  0.8796599999999999  1.0000
  Zn  Zn9       1.0  0.9982400000000001  0.74821  0.46283  1.0000
  Zn  Zn10      1.0  0.9982400000000001  0.25179  0.03717  1.0000
  Zn  Zn11      1.0  0.00176  0.25179  0.53717  1.0000
  Zn  Zn12      1.0  0.00176  0.74821  0.96283  1.0000
  H   H1        1.0  0.77241  0.9441399999999999  0.08641  1.0000
  H   H2        1.0  0.41568000000000005  0.8928099999999999  0.2551  1.0000
  H   H3        1.0  0.25979  0.8955799999999998  0.181  1.0000
  H   H4        1.0  0.006000000000000001  0.91563  0.3236899999999999  1.0000
  H   H5        1.0  0.17457  0.91075  0.39275999999999994  1.0000
  H   H6        1.0  0.13880000000000003  0.9231  0.12317  1.0000
  H   H7        1.0  0.9755500000000001  0.9389  0.05206999999999999  1.0000
  H   H8        1.0  0.7239800000000002  0.9367999999999999  0.18538999999999994  1.0000
  H   H9        1.0  0.8743500000000002  0.91746  0.26345  1.0000
  H   H10       1.0  0.8215500000000001  0.7740299999999998  0.36526999999999993  1.0000
  H   H11       1.0  0.81531  0.7792599999999997  0.25646  1.0000
  H   H12       1.0  0.8092300000000001  0.74748  0.17003  1.0000
  H   H13       1.0  0.8186800000000001  0.7478399999999998  0.06109999999999999  1.0000
  H   H14       1.0  0.22689000000000004  0.55746  0.08621999999999999  1.0000
  H   H15       1.0  0.58348  0.6079899999999999  0.25497999999999993  1.0000
  H   H16       1.0  0.73932  0.6046299999999998  0.18081  1.0000
  H   H17       1.0  0.9929700000000001  0.5840999999999998  0.32354  1.0000
  H   H18       1.0  0.82439  0.5894599999999999  0.39266  1.0000
  H   H19       1.0  0.86034  0.5762099999999998  0.1232  1.0000
  H   H20       1.0  0.02356  0.56103  0.05210999999999999  1.0000
  H   H21       1.0  0.27545  0.5646  0.18524  1.0000
  H   H22       1.0  0.1249  0.58284  0.26344  1.0000
  H   H23       1.0  0.17558000000000004  0.7243199999999997  0.3659099999999999  1.0000
  H   H24       1.0  0.18411  0.72071  0.25711  1.0000
  H   H25       1.0  0.19148  0.7522699999999998  0.17075  1.0000
  H   H26       1.0  0.18378  0.7506499999999999  0.06180999999999998  1.0000
  H   H27       1.0  0.7724200000000001  0.05586  0.4135899999999999  1.0000
  H   H28       1.0  0.41568000000000005  0.10718999999999998  0.2449  1.0000
  H   H29       1.0  0.25979  0.10441999999999997  0.319  1.0000
  H   H30       1.0  0.006000000000000001  0.08436  0.17631  1.0000
  H   H31       1.0  0.17457  0.08925  0.10724  1.0000
  H   H32       1.0  0.13880000000000003  0.07689999999999998  0.37683  1.0000
  H   H33       1.0  0.9755500000000001  0.061089999999999985  0.44793  1.0000
  H   H34       1.0  0.7239800000000002  0.06319999999999999  0.31461  1.0000
  H   H35       1.0  0.8743500000000002  0.08253  0.23655  1.0000
  H   H36       1.0  0.8215500000000001  0.22596999999999998  0.13473  1.0000
  H   H37       1.0  0.81531  0.22073999999999994  0.24354  1.0000
  H   H38       1.0  0.8092300000000001  0.25252  0.32997  1.0000
  H   H39       1.0  0.8186800000000001  0.25215999999999994  0.43889999999999996  1.0000
  H   H40       1.0  0.22689000000000004  0.44253999999999993  0.41378  1.0000
  H   H41       1.0  0.58348  0.3920099999999999  0.24502  1.0000
  H   H42       1.0  0.73932  0.39537  0.31919  1.0000
  H   H43       1.0  0.99298  0.4158999999999999  0.17645999999999998  1.0000
  H   H44       1.0  0.82439  0.41054  0.10733999999999999  1.0000
  H   H45       1.0  0.8603500000000002  0.42379  0.3767999999999999  1.0000
  H   H46       1.0  0.02356  0.43897  0.44789  1.0000
  H   H47       1.0  0.27545  0.4354  0.31477  1.0000
  H   H48       1.0  0.1249  0.4171599999999999  0.23655999999999994  1.0000
  H   H49       1.0  0.17558000000000004  0.27568  0.13409  1.0000
  H   H50       1.0  0.18411  0.27928999999999987  0.24289  1.0000
  H   H51       1.0  0.19148  0.24771999999999994  0.32925  1.0000
  H   H52       1.0  0.18378  0.24934999999999996  0.43819  1.0000
  H   H53       1.0  0.22758000000000006  0.05586  0.91359  1.0000
  H   H54       1.0  0.5843200000000001  0.10718999999999998  0.7448999999999998  1.0000
  H   H55       1.0  0.7402100000000001  0.10441999999999997  0.819  1.0000
  H   H56       1.0  0.9940000000000001  0.08437  0.67631  1.0000
  H   H57       1.0  0.82543  0.08925  0.60724  1.0000
  H   H58       1.0  0.8612  0.07689999999999998  0.87683  1.0000
  H   H59       1.0  0.024450000000000006  0.061089999999999985  0.9479399999999998  1.0000
  H   H60       1.0  0.27602  0.06319999999999999  0.8146099999999997  1.0000
  H   H61       1.0  0.12565  0.08253  0.73656  1.0000
  H   H62       1.0  0.17845  0.22596999999999998  0.63473  1.0000
  H   H63       1.0  0.18469  0.22073999999999994  0.74354  1.0000
  H   H64       1.0  0.19077  0.25252  0.8299699999999998  1.0000
  H   H65       1.0  0.18132  0.25215999999999994  0.9389  1.0000
  H   H66       1.0  0.77311  0.44253999999999993  0.9137799999999999  1.0000
  H   H67       1.0  0.4165200000000001  0.3920099999999999  0.74502  1.0000
  H   H68       1.0  0.26068  0.39537  0.8191899999999999  1.0000
  H   H69       1.0  0.007020000000000002  0.4158999999999999  0.6764599999999998  1.0000
  H   H70       1.0  0.17561  0.41054  0.60734  1.0000
  H   H71       1.0  0.13965  0.42379  0.8767999999999998  1.0000
  H   H72       1.0  0.9764300000000002  0.43897  0.9479  1.0000
  H   H73       1.0  0.72455  0.4354  0.81477  1.0000
  H   H74       1.0  0.8751000000000001  0.4171599999999999  0.73656  1.0000
  H   H75       1.0  0.8244200000000002  0.27568  0.63409  1.0000
  H   H76       1.0  0.8158900000000001  0.27928999999999987  0.74289  1.0000
  H   H77       1.0  0.8085200000000002  0.24772999999999998  0.8292499999999998  1.0000
  H   H78       1.0  0.81622  0.24934999999999996  0.93819  1.0000
  H   H79       1.0  0.22758000000000006  0.9441399999999999  0.58641  1.0000
  H   H80       1.0  0.5843200000000001  0.8928099999999999  0.7551  1.0000
  H   H81       1.0  0.7402100000000001  0.8955799999999998  0.681  1.0000
  H   H82       1.0  0.9940000000000001  0.91563  0.82369  1.0000
  H   H83       1.0  0.82543  0.91075  0.89276  1.0000
  H   H84       1.0  0.8612  0.9231  0.62317  1.0000
  H   H85       1.0  0.024450000000000006  0.93891  0.5520699999999998  1.0000
  H   H86       1.0  0.27602  0.9367999999999999  0.68539  1.0000
  H   H87       1.0  0.12565  0.9174699999999999  0.7634499999999997  1.0000
  H   H88       1.0  0.17845  0.7740299999999998  0.86527  1.0000
  H   H89       1.0  0.18469  0.7792599999999997  0.7564599999999999  1.0000
  H   H90       1.0  0.19077  0.74748  0.67003  1.0000
  H   H91       1.0  0.18132  0.7478399999999998  0.5611  1.0000
  H   H92       1.0  0.77311  0.55746  0.58622  1.0000
  H   H93       1.0  0.4165200000000001  0.6079899999999999  0.7549799999999999  1.0000
  H   H94       1.0  0.26068  0.6046299999999998  0.68081  1.0000
  H   H95       1.0  0.007020000000000002  0.5840999999999998  0.8235399999999999  1.0000
  H   H96       1.0  0.17561  0.5894599999999999  0.8926599999999999  1.0000
  H   H97       1.0  0.13965  0.5762099999999998  0.6232  1.0000
  H   H98       1.0  0.9764300000000002  0.56103  0.55211  1.0000
  H   H99       1.0  0.72455  0.5646  0.68524  1.0000
  H   H100      1.0  0.8751000000000001  0.58284  0.7634399999999999  1.0000
  H   H101      1.0  0.8244200000000002  0.7243199999999997  0.86591  1.0000
  H   H102      1.0  0.8158900000000001  0.72071  0.7571099999999997  1.0000
  H   H103      1.0  0.8085200000000002  0.7522699999999998  0.67075  1.0000
  H   H104      1.0  0.81622  0.7506499999999999  0.56181  1.0000
  C   C1        1.0  0.37712000000000007  0.9325499999999999  0.51033  1.0000
  C   C2        1.0  0.50606  0.91682  0.50315  1.0000
  C   C3        1.0  0.58864  0.9073199999999999  0.54872  1.0000
  C   C4        1.0  0.56077  0.90872  0.6142  1.0000
  C   C5        1.0  0.67988  0.9039599999999999  0.36668999999999996  1.0000
  C   C6        1.0  0.65338  0.89979  0.43246  1.0000
  C   C7        1.0  0.7323100000000001  0.8848299999999999  0.47864  1.0000
  C   C8        1.0  0.8488  0.8498599999999998  0.46886999999999995  1.0000
  C   C9        1.0  0.32395  0.8972099999999998  0.26875  1.0000
  C   C10       1.0  0.23439  0.8993899999999998  0.22699999999999998  1.0000
  C   C11       1.0  0.11717  0.90909  0.24474999999999997  1.0000
  C   C12       1.0  0.09465000000000003  0.91087  0.30584999999999996  1.0000
  C   C13       1.0  0.18822  0.9076699999999999  0.34525999999999996  1.0000
  C   C14       1.0  0.022470000000000004  0.9188299999999999  0.20057  1.0000
  C   C15       1.0  0.0491  0.9254  0.14001  1.0000
  C   C16       1.0  0.95946  0.93501  0.09935999999999999  1.0000
  C   C17       1.0  0.8174900000000002  0.93315  0.17512999999999998  1.0000
  C   C18       1.0  0.9033400000000001  0.9229299999999999  0.21771999999999997  1.0000
  C   C19       1.0  0.8994700000000002  0.7632  0.33923  1.0000
  C   C20       1.0  0.8972000000000002  0.7651399999999998  0.27807  1.0000
  C   C21       1.0  0.89487  0.74918  0.14858  1.0000
  C   C22       1.0  0.8988200000000001  0.7490899999999998  0.08737  1.0000
  C   C23       1.0  0.62322  0.56859  0.51006  1.0000
  C   C24       1.0  0.4939  0.5830499999999998  0.50328  1.0000
  C   C25       1.0  0.4119  0.59138  0.54929  1.0000
  C   C26       1.0  0.44251  0.59018  0.61448  1.0000
  C   C27       1.0  0.31945  0.59816  0.3671  1.0000
  C   C28       1.0  0.34551  0.59981  0.43311  1.0000
  C   C29       1.0  0.26680000000000004  0.61296  0.47976  1.0000
  C   C30       1.0  0.14991  0.64729  0.47026  1.0000
  C   C31       1.0  0.67519  0.6031599999999999  0.26858  1.0000
  C   C32       1.0  0.76467  0.60057  0.22681999999999997  1.0000
  C   C33       1.0  0.88187  0.59072  0.24463999999999994  1.0000
  C   C34       1.0  0.9043400000000003  0.58899  0.30573  1.0000
  C   C35       1.0  0.81085  0.5924599999999998  0.34515  1.0000
  C   C36       1.0  0.97671  0.58099  0.20057  1.0000
  C   C37       1.0  0.9500600000000001  0.5742099999999999  0.14006  1.0000
  C   C38       1.0  0.03975  0.56495  0.09938  1.0000
  C   C39       1.0  0.18182  0.56757  0.17507999999999999  1.0000
  C   C40       1.0  0.09590000000000001  0.57728  0.21771999999999997  1.0000
  C   C41       1.0  0.09825  0.73556  0.3395699999999999  1.0000
  C   C42       1.0  0.10175  0.7345199999999998  0.27841  1.0000
  C   C43       1.0  0.10618  0.75041  0.14897  1.0000
  C   C44       1.0  0.10318  0.7497699999999999  0.08774  1.0000
  C   C45       1.0  0.37712000000000007  0.06744999999999997  0.98968  1.0000
  C   C46       1.0  0.50606  0.08318  0.9968599999999999  1.0000
  C   C47       1.0  0.58864  0.09268  0.9512799999999998  1.0000
  C   C48       1.0  0.56077  0.09127999999999999  0.8858  1.0000
  C   C49       1.0  0.67988  0.09603  0.13331  1.0000
  C   C50       1.0  0.65338  0.10021  0.06754  1.0000
  C   C51       1.0  0.7323100000000001  0.11515999999999998  0.02136  1.0000
  C   C52       1.0  0.8488  0.15014  0.03113  1.0000
  C   C53       1.0  0.32395  0.10278999999999999  0.23124999999999998  1.0000
  C   C54       1.0  0.23439  0.10060999999999998  0.27299999999999996  1.0000
  C   C55       1.0  0.11717  0.09090999999999998  0.25525  1.0000
  C   C56       1.0  0.09465000000000003  0.08913  0.19415  1.0000
  C   C57       1.0  0.18822  0.09233  0.15474  1.0000
  C   C58       1.0  0.022470000000000004  0.08116999999999999  0.29943  1.0000
  C   C59       1.0  0.0491  0.07459999999999999  0.35999  1.0000
  C   C60       1.0  0.95946  0.06499  0.40063999999999994  1.0000
  C   C61       1.0  0.8174900000000002  0.06683999999999998  0.32486999999999994  1.0000
  C   C62       1.0  0.9033400000000001  0.07705999999999999  0.28228  1.0000
  C   C63       1.0  0.89948  0.23679999999999998  0.16076999999999997  1.0000
  C   C64       1.0  0.89721  0.23485999999999999  0.22193  1.0000
  C   C65       1.0  0.89487  0.25081999999999993  0.35142  1.0000
  C   C66       1.0  0.8988200000000001  0.25090999999999997  0.41264  1.0000
  C   C67       1.0  0.62322  0.43141  0.9899399999999998  1.0000
  C   C68       1.0  0.4939  0.41694999999999993  0.9967199999999999  1.0000
  C   C69       1.0  0.4119  0.40862  0.9507099999999999  1.0000
  C   C70       1.0  0.44251  0.40981  0.88552  1.0000
  C   C71       1.0  0.31945  0.4018399999999999  0.1329  1.0000
  C   C72       1.0  0.34551  0.40019  0.06689  1.0000
  C   C73       1.0  0.26680000000000004  0.3870399999999999  0.020239999999999998  1.0000
  C   C74       1.0  0.14991  0.3527099999999999  0.029739999999999992  1.0000
  C   C75       1.0  0.67519  0.39684  0.23141999999999993  1.0000
  C   C76       1.0  0.76468  0.39942  0.27318  1.0000
  C   C77       1.0  0.88187  0.40928  0.25536  1.0000
  C   C78       1.0  0.9043400000000003  0.41101  0.19428  1.0000
  C   C79       1.0  0.81085  0.40753999999999996  0.15484999999999996  1.0000
  C   C80       1.0  0.97671  0.41900999999999994  0.29944  1.0000
  C   C81       1.0  0.9500600000000001  0.42578  0.3599399999999999  1.0000
  C   C82       1.0  0.03975  0.43504999999999994  0.40062  1.0000
  C   C83       1.0  0.18182  0.4324299999999999  0.32492  1.0000
  C   C84       1.0  0.09591000000000001  0.42270999999999986  0.28228  1.0000
  C   C85       1.0  0.09825  0.26444  0.16043  1.0000
  C   C86       1.0  0.10175  0.26548  0.22159  1.0000
  C   C87       1.0  0.10618  0.24958999999999998  0.35102999999999995  1.0000
  C   C88       1.0  0.10318  0.25021999999999994  0.41225999999999996  1.0000
  C   C89       1.0  0.62288  0.06744999999999997  0.48968  1.0000
  C   C90       1.0  0.49394  0.08318  0.49686  1.0000
  C   C91       1.0  0.41136  0.09268  0.45127999999999996  1.0000
  C   C92       1.0  0.4392300000000001  0.09127999999999999  0.3858  1.0000
  C   C93       1.0  0.32012  0.09603999999999997  0.6333099999999999  1.0000
  C   C94       1.0  0.34662000000000004  0.10021  0.56754  1.0000
  C   C95       1.0  0.26769  0.11515999999999998  0.52136  1.0000
  C   C96       1.0  0.15120000000000003  0.15014  0.53113  1.0000
  C   C97       1.0  0.67605  0.10278999999999999  0.73125  1.0000
  C   C98       1.0  0.7656100000000001  0.10060999999999998  0.7729999999999998  1.0000
  C   C99       1.0  0.88283  0.09090999999999998  0.7552499999999998  1.0000
  C   C100      1.0  0.90535  0.08913  0.69415  1.0000
  C   C101      1.0  0.8117800000000001  0.09233  0.6547499999999999  1.0000
  C   C102      1.0  0.97753  0.08116999999999999  0.7994299999999998  1.0000
  C   C103      1.0  0.9509000000000001  0.07459999999999999  0.85999  1.0000
  C   C104      1.0  0.04054000000000001  0.06499  0.90064  1.0000
  C   C105      1.0  0.18250000000000002  0.06683999999999998  0.8248699999999999  1.0000
  C   C106      1.0  0.09666  0.07705999999999999  0.7822799999999999  1.0000
  C   C107      1.0  0.10052000000000001  0.23679999999999998  0.66077  1.0000
  C   C108      1.0  0.10279000000000003  0.23485999999999999  0.72193  1.0000
  C   C109      1.0  0.10513  0.25081999999999993  0.85142  1.0000
  C   C110      1.0  0.10118000000000003  0.25090999999999997  0.9126399999999999  1.0000
  C   C111      1.0  0.37678000000000006  0.43141  0.48993999999999993  1.0000
  C   C112      1.0  0.5061  0.41694999999999993  0.49671999999999994  1.0000
  C   C113      1.0  0.5881  0.40862  0.45070999999999994  1.0000
  C   C114      1.0  0.55749  0.40981  0.38551999999999986  1.0000
  C   C115      1.0  0.68054  0.4018399999999999  0.63291  1.0000
  C   C116      1.0  0.65449  0.40019  0.56689  1.0000
  C   C117      1.0  0.7332  0.3870399999999999  0.52024  1.0000
  C   C118      1.0  0.85009  0.3527099999999999  0.5297399999999999  1.0000
  C   C119      1.0  0.32481  0.39684  0.7314199999999998  1.0000
  C   C120      1.0  0.23532  0.39942  0.7731799999999999  1.0000
  C   C121      1.0  0.11813000000000001  0.4092799999999999  0.75536  1.0000
  C   C122      1.0  0.09566000000000001  0.41101  0.69428  1.0000
  C   C123      1.0  0.18915000000000004  0.40753999999999996  0.6548599999999999  1.0000
  C   C124      1.0  0.023290000000000005  0.41900999999999994  0.79944  1.0000
  C   C125      1.0  0.04994  0.42578  0.8599399999999999  1.0000
  C   C126      1.0  0.96025  0.43504999999999994  0.9006199999999999  1.0000
  C   C127      1.0  0.81818  0.4324299999999999  0.8249199999999999  1.0000
  C   C128      1.0  0.9040900000000002  0.42270999999999986  0.7822799999999999  1.0000
  C   C129      1.0  0.9017500000000003  0.26444  0.66043  1.0000
  C   C130      1.0  0.89825  0.26548  0.72159  1.0000
  C   C131      1.0  0.89382  0.24958999999999998  0.85103  1.0000
  C   C132      1.0  0.89682  0.25021999999999994  0.91226  1.0000
  C   C133      1.0  0.62288  0.9325499999999999  0.01032  1.0000
  C   C134      1.0  0.49394  0.91682  0.00314  1.0000
  C   C135      1.0  0.41136  0.9073199999999999  0.04871999999999999  1.0000
  C   C136      1.0  0.4392300000000001  0.90872  0.11419999999999998  1.0000
  C   C137      1.0  0.32012  0.9039599999999999  0.8666899999999998  1.0000
  C   C138      1.0  0.34662000000000004  0.89979  0.93246  1.0000
  C   C139      1.0  0.26769  0.88484  0.9786399999999997  1.0000
  C   C140      1.0  0.15120000000000003  0.8498599999999998  0.96888  1.0000
  C   C141      1.0  0.67605  0.8972099999999998  0.76876  1.0000
  C   C142      1.0  0.7656100000000001  0.8993899999999998  0.727  1.0000
  C   C143      1.0  0.88283  0.90909  0.74475  1.0000
  C   C144      1.0  0.90535  0.91087  0.8058499999999998  1.0000
  C   C145      1.0  0.8117800000000001  0.9076699999999999  0.84526  1.0000
  C   C146      1.0  0.97753  0.9188299999999999  0.70057  1.0000
  C   C147      1.0  0.95089  0.9254  0.64001  1.0000
  C   C148      1.0  0.04054000000000001  0.93501  0.59936  1.0000
  C   C149      1.0  0.18250000000000002  0.93315  0.6751299999999999  1.0000
  C   C150      1.0  0.09666  0.9229299999999999  0.71772  1.0000
  C   C151      1.0  0.10052000000000001  0.7632  0.83923  1.0000
  C   C152      1.0  0.10279000000000003  0.7651399999999998  0.77807  1.0000
  C   C153      1.0  0.10513  0.74918  0.6485799999999999  1.0000
  C   C154      1.0  0.10118000000000003  0.7490899999999998  0.58737  1.0000
  C   C155      1.0  0.37678000000000006  0.56859  0.01006  1.0000
  C   C156      1.0  0.5061  0.58304  0.003279999999999999  1.0000
  C   C157      1.0  0.58809  0.59137  0.04929  1.0000
  C   C158      1.0  0.55749  0.59018  0.11448  1.0000
  C   C159      1.0  0.68054  0.59816  0.8671  1.0000
  C   C160      1.0  0.65449  0.59981  0.93311  1.0000
  C   C161      1.0  0.7332  0.61296  0.97976  1.0000
  C   C162      1.0  0.85008  0.64729  0.97027  1.0000
  C   C163      1.0  0.32481  0.6031599999999999  0.76858  1.0000
  C   C164      1.0  0.23532  0.60057  0.72682  1.0000
  C   C165      1.0  0.11813000000000001  0.59072  0.7446399999999997  1.0000
  C   C166      1.0  0.09566000000000001  0.58899  0.80573  1.0000
  C   C167      1.0  0.18915000000000004  0.5924599999999998  0.8451499999999997  1.0000
  C   C168      1.0  0.02328  0.58099  0.70057  1.0000
  C   C169      1.0  0.04994  0.57422  0.64006  1.0000
  C   C170      1.0  0.96025  0.56495  0.59938  1.0000
  C   C171      1.0  0.81818  0.56757  0.67508  1.0000
  C   C172      1.0  0.9040900000000002  0.5772899999999999  0.71772  1.0000
  C   C173      1.0  0.9017400000000001  0.73556  0.8395699999999998  1.0000
  C   C174      1.0  0.89825  0.7345199999999998  0.7784099999999998  1.0000
  C   C175      1.0  0.89382  0.75041  0.6489799999999999  1.0000
  C   C176      1.0  0.89682  0.74978  0.5877399999999999  1.0000
  C   C177      1.0  0.9997500000000001  0.74993  0.24606999999999998  1.0000
  C   C178      1.0  0.00027  0.7499199999999999  0.18102  1.0000
  C   C179      1.0  0.9997500000000001  0.25006  0.25393  1.0000
  C   C180      1.0  0.00027  0.25008  0.31899  1.0000
  C   C181      1.0  0.00025  0.25006  0.75393  1.0000
  C   C182      1.0  0.9997200000000002  0.25008  0.81899  1.0000
  C   C183      1.0  0.00025  0.7499399999999998  0.74607  1.0000
  C   C184      1.0  0.9997200000000002  0.7499199999999999  0.68102  1.0000
  N   N1        1.0  0.54212  0.9134799999999997  0.44708  1.0000
  N   N2        1.0  0.701  0.8905099999999999  0.53565  1.0000
  N   N3        1.0  0.3017  0.90279  0.32714  1.0000
  N   N4        1.0  0.84682  0.93866  0.11769  1.0000
  N   N5        1.0  0.4571  0.58674  0.44741999999999993  1.0000
  N   N6        1.0  0.2988  0.60696  0.53667  1.0000
  N   N7        1.0  0.6974700000000001  0.5976499999999999  0.32698  1.0000
  N   N8        1.0  0.15245  0.56195  0.11765  1.0000
  N   N9        1.0  0.54212  0.08650999999999999  0.05292  1.0000
  N   N10       1.0  0.701  0.10949  0.9643599999999999  1.0000
  N   N11       1.0  0.3017  0.09721  0.17286  1.0000
  N   N12       1.0  0.84682  0.061339999999999985  0.38230999999999987  1.0000
  N   N13       1.0  0.4571  0.41326  0.05258  1.0000
  N   N14       1.0  0.2988  0.39303999999999994  0.96333  1.0000
  N   N15       1.0  0.6974700000000001  0.4023499999999999  0.17302  1.0000
  N   N16       1.0  0.15245  0.43805  0.38235  1.0000
  N   N17       1.0  0.45788  0.08650999999999999  0.55292  1.0000
  N   N18       1.0  0.29900000000000004  0.10949  0.46434999999999993  1.0000
  N   N19       1.0  0.6983  0.09721  0.6728599999999999  1.0000
  N   N20       1.0  0.15318000000000004  0.061339999999999985  0.8823099999999999  1.0000
  N   N21       1.0  0.54289  0.41326  0.55258  1.0000
  N   N22       1.0  0.7012000000000002  0.39303  0.46333  1.0000
  N   N23       1.0  0.30253  0.4023499999999999  0.67302  1.0000
  N   N24       1.0  0.8475500000000001  0.43805  0.8823499999999997  1.0000
  N   N25       1.0  0.45788  0.9134899999999999  0.9470799999999999  1.0000
  N   N26       1.0  0.29900000000000004  0.8905  0.035649999999999994  1.0000
  N   N27       1.0  0.6983  0.90279  0.82714  1.0000
  N   N28       1.0  0.15318000000000004  0.93866  0.61769  1.0000
  N   N29       1.0  0.54289  0.58674  0.94742  1.0000
  N   N30       1.0  0.7012000000000002  0.60696  0.036669999999999994  1.0000
  N   N31       1.0  0.30253  0.5976499999999999  0.82698  1.0000
  N   N32       1.0  0.8475500000000001  0.56195  0.61765  1.0000
  N   N33       1.0  0.9985500000000002  0.74905  0.36976999999999993  1.0000
  N   N34       1.0  0.00121  0.74921  0.05707999999999999  1.0000
  N   N35       1.0  0.9985500000000002  0.25095  0.13023  1.0000
  N   N36       1.0  0.00122  0.25079  0.44293  1.0000
  N   N37       1.0  0.0014500000000000001  0.25095  0.63023  1.0000
  N   N38       1.0  0.99878  0.25079  0.94293  1.0000
  N   N39       1.0  0.0014500000000000001  0.74905  0.86977  1.0000
  N   N40       1.0  0.99878  0.74921  0.5570799999999999  1.0000
  O   O1        1.0  0.31469  0.9343099999999999  0.46414  1.0000
  O   O2        1.0  0.34524  0.94432  0.56312  1.0000
  O   O3        1.0  0.58958  0.9133499999999999  0.33344  1.0000
  O   O4        1.0  0.7855900000000001  0.8993099999999999  0.35104  1.0000
  O   O5        1.0  0.8318800000000002  0.78459  0.4635399999999999  1.0000
  O   O6        1.0  0.94694  0.8785299999999998  0.4704499999999999  1.0000
  O   O7        1.0  0.53075  0.8539399999999998  0.63698  1.0000
  O   O8        1.0  0.58283  0.96494  0.64268  1.0000
  O   O9        1.0  0.6852300000000001  0.56581  0.4637899999999999  1.0000
  O   O10       1.0  0.6555200000000001  0.5589099999999999  0.56308  1.0000
  O   O11       1.0  0.41054000000000007  0.59327  0.33363  1.0000
  O   O12       1.0  0.21375000000000002  0.6007299999999999  0.35124  1.0000
  O   O13       1.0  0.1663  0.71239  0.46362999999999993  1.0000
  O   O14       1.0  0.05211  0.6182999999999997  0.47304999999999997  1.0000
  O   O15       1.0  0.46932  0.6457699999999997  0.6369399999999998  1.0000
  O   O16       1.0  0.42769  0.5333199999999999  0.64298  1.0000
  O   O17       1.0  0.31469  0.06569  0.03586  1.0000
  O   O18       1.0  0.34524  0.05567999999999999  0.93688  1.0000
  O   O19       1.0  0.58958  0.08664999999999998  0.16656  1.0000
  O   O20       1.0  0.7855900000000001  0.10069  0.14896  1.0000
  O   O21       1.0  0.8318800000000002  0.21541  0.03646  1.0000
  O   O22       1.0  0.94694  0.12147  0.029549999999999996  1.0000
  O   O23       1.0  0.53074  0.14606  0.8630199999999999  1.0000
  O   O24       1.0  0.58283  0.03506  0.85733  1.0000
  O   O25       1.0  0.6852300000000001  0.43419  0.03622  1.0000
  O   O26       1.0  0.6555200000000001  0.44109  0.9369199999999999  1.0000
  O   O27       1.0  0.41054000000000007  0.40673  0.16637  1.0000
  O   O28       1.0  0.21375000000000002  0.39927  0.14876  1.0000
  O   O29       1.0  0.1663  0.2876  0.03637  1.0000
  O   O30       1.0  0.05211  0.38169  0.02695  1.0000
  O   O31       1.0  0.46932  0.35423  0.86306  1.0000
  O   O32       1.0  0.42769  0.46668  0.8570299999999998  1.0000
  O   O33       1.0  0.68531  0.06569  0.5358699999999998  1.0000
  O   O34       1.0  0.65476  0.05567999999999999  0.43688  1.0000
  O   O35       1.0  0.4104200000000001  0.08664999999999998  0.66656  1.0000
  O   O36       1.0  0.21441000000000004  0.10069  0.64896  1.0000
  O   O37       1.0  0.16812  0.21541  0.53646  1.0000
  O   O38       1.0  0.05306  0.12147  0.52955  1.0000
  O   O39       1.0  0.46926  0.14606  0.36302  1.0000
  O   O40       1.0  0.41717  0.03506  0.35733  1.0000
  O   O41       1.0  0.31477000000000005  0.43418  0.53622  1.0000
  O   O42       1.0  0.34447  0.44109  0.43692  1.0000
  O   O43       1.0  0.58946  0.40673  0.66637  1.0000
  O   O44       1.0  0.78625  0.39927  0.64876  1.0000
  O   O45       1.0  0.8337  0.28761  0.53637  1.0000
  O   O46       1.0  0.94789  0.38169  0.5269499999999999  1.0000
  O   O47       1.0  0.5306800000000002  0.35423  0.36306  1.0000
  O   O48       1.0  0.57231  0.46668  0.35702999999999996  1.0000
  O   O49       1.0  0.6853  0.9343099999999999  0.9641399999999999  1.0000
  O   O50       1.0  0.65476  0.94432  0.06312  1.0000
  O   O51       1.0  0.4104200000000001  0.9133499999999999  0.8334399999999998  1.0000
  O   O52       1.0  0.21441000000000004  0.8993099999999999  0.85104  1.0000
  O   O53       1.0  0.16812  0.78459  0.9635399999999998  1.0000
  O   O54       1.0  0.05306  0.8785299999999998  0.97045  1.0000
  O   O55       1.0  0.46926  0.8539399999999998  0.13698  1.0000
  O   O56       1.0  0.41717  0.96494  0.14267  1.0000
  O   O57       1.0  0.31477000000000005  0.56581  0.96379  1.0000
  O   O58       1.0  0.34447  0.5589099999999999  0.06307999999999998  1.0000
  O   O59       1.0  0.58946  0.59327  0.8336299999999998  1.0000
  O   O60       1.0  0.78625  0.6007299999999999  0.8512399999999999  1.0000
  O   O61       1.0  0.83369  0.71239  0.96363  1.0000
  O   O62       1.0  0.94788  0.6182999999999997  0.9730599999999999  1.0000
  O   O63       1.0  0.5306800000000002  0.6457699999999997  0.13694  1.0000
  O   O64       1.0  0.57231  0.5333199999999999  0.14298  1.0000
