data_image0
_chemical_formula_structural       Zn12H160C240N36O48
_chemical_formula_sum              "Zn12 H160 C240 N36 O48"
_cell_length_a       17.28955
_cell_length_b       17.28834
_cell_length_c       32.85238
_cell_angle_alpha    93.60043
_cell_angle_beta     93.6787
_cell_angle_gamma    108.97276

_space_group_name_H-M_alt    "P 1"
_space_group_IT_number       1

loop_
  _space_group_symop_operation_xyz
  'x, y, z'

loop_
  _atom_site_type_symbol
  _atom_site_label
  _atom_site_symmetry_multiplicity
  _atom_site_fract_x
  _atom_site_fract_y
  _atom_site_fract_z
  _atom_site_occupancy
  Zn  Zn1       1.0  0.75443  0.78049  0.62319  1.0000
  Zn  Zn2       1.0  0.76061  0.74524  0.0351  1.0000
  Zn  Zn3       1.0  0.7450300000000002  0.7606999999999999  0.5345499999999997  1.0000
  Zn  Zn4       1.0  0.78034  0.75383  0.12283999999999999  1.0000
  Zn  Zn5       1.0  0.25497  0.23929999999999996  0.4654399999999999  1.0000
  Zn  Zn6       1.0  0.21971  0.24622999999999998  0.8771499999999998  1.0000
  Zn  Zn7       1.0  0.24557000000000004  0.21951  0.37681  1.0000
  Zn  Zn8       1.0  0.23947999999999997  0.25489  0.9648999999999998  1.0000
  Zn  Zn9       1.0  0.47481000000000007  0.53041  0.29376  1.0000
  Zn  Zn10      1.0  0.53034  0.47484999999999994  0.79315  1.0000
  Zn  Zn11      1.0  0.52519  0.4696  0.70624  1.0000
  Zn  Zn12      1.0  0.46966  0.52515  0.20684999999999995  1.0000
  H   H1        1.0  0.7718  0.91535  0.76912  1.0000
  H   H2        1.0  0.7426800000000001  0.65973  0.68614  1.0000
  H   H3        1.0  0.5085500000000002  0.74019  0.01943  1.0000
  H   H4        1.0  0.7600300000000001  0.9968699999999999  0.51332  1.0000
  H   H5        1.0  0.82271  0.16149  0.15026  1.0000
  H   H6        1.0  0.75352  0.67051  0.82686  1.0000
  H   H7        1.0  0.76757  0.04039000000000001  0.64347  1.0000
  H   H8        1.0  0.6998  0.52788  0.64597  1.0000
  H   H9        1.0  0.84692  0.7229399999999999  0.39354  1.0000
  H   H10       1.0  0.2663  0.76487  0.03984  1.0000
  H   H11       1.0  0.50278  0.77526  0.63393  1.0000
  H   H12       1.0  0.26541  0.70556  0.11864999999999998  1.0000
  H   H13       1.0  0.8184600000000002  0.01367  0.14736  1.0000
  H   H14       1.0  0.65654  0.7431  0.2613899999999999  1.0000
  H   H15       1.0  0.9956900000000001  0.78032  0.51679  1.0000
  H   H16       1.0  0.70219  0.38717  0.6524  1.0000
  H   H17       1.0  0.6275000000000002  0.79141  0.39084  1.0000
  H   H18       1.0  0.36033  0.77932  0.49826999999999994  1.0000
  H   H19       1.0  0.36824  0.74542  0.02432  1.0000
  H   H20       1.0  0.77926  0.3606599999999999  0.9981699999999999  1.0000
  H   H21       1.0  0.14142999999999994  0.78224  0.51924  1.0000
  H   H22       1.0  0.4989  0.76278  0.5031  1.0000
  H   H23       1.0  0.79305  0.63706  0.96793  1.0000
  H   H24       1.0  0.36255  0.78942  0.62972  1.0000
  H   H25       1.0  0.76515  0.26645  0.54001  1.0000
  H   H26       1.0  0.17838  0.75532  0.13621  1.0000
  H   H27       1.0  0.7053500000000001  0.26502999999999993  0.6186299999999998  1.0000
  H   H28       1.0  0.041010000000000005  0.76756  0.14366  1.0000
  H   H29       1.0  0.38658  0.70165  0.15244  1.0000
  H   H30       1.0  0.6372500000000003  0.79296  0.46761  1.0000
  H   H31       1.0  0.75526  0.17778  0.63612  1.0000
  H   H32       1.0  0.8472900000000001  0.7286899999999997  0.4696799999999999  1.0000
  H   H33       1.0  0.79132  0.62745  0.89117  1.0000
  H   H34       1.0  0.7426200000000002  0.13273999999999997  0.5044299999999998  1.0000
  H   H35       1.0  0.74007  0.50755  0.51888  1.0000
  H   H36       1.0  0.013950000000000006  0.81842  0.64767  1.0000
  H   H37       1.0  0.74307  0.6566099999999999  0.7616599999999998  1.0000
  H   H38       1.0  0.16176000000000001  0.82283  0.65049  1.0000
  H   H39       1.0  0.90687  0.77071  0.19237999999999994  1.0000
  H   H40       1.0  0.9966600000000002  0.75998  0.01354  1.0000
  H   H41       1.0  0.76272  0.49929  0.00311  1.0000
  H   H42       1.0  0.7803800000000003  0.9960500000000001  0.016469999999999995  1.0000
  H   H43       1.0  0.74543  0.36762999999999996  0.5243899999999998  1.0000
  H   H44       1.0  0.7821  0.14173  0.01901  1.0000
  H   H45       1.0  0.67054  0.75364  0.3266  1.0000
  H   H46       1.0  0.76271  0.85181  0.83126  1.0000
  H   H47       1.0  0.5275600000000003  0.6996  0.1465  1.0000
  H   H48       1.0  0.7705700000000002  0.90695  0.69253  1.0000
  H   H49       1.0  0.7753000000000003  0.50247  0.13393  1.0000
  H   H50       1.0  0.7230300000000001  0.84684  0.89374  1.0000
  H   H51       1.0  0.85185  0.76263  0.33106999999999986  1.0000
  H   H52       1.0  0.13245000000000004  0.74257  0.00453  1.0000
  H   H53       1.0  0.78942  0.36223  0.12959  1.0000
  H   H54       1.0  0.91543  0.77192  0.26897  1.0000
  H   H55       1.0  0.7289  0.84731  0.96987  1.0000
  H   H56       1.0  0.65976  0.74279  0.18585  1.0000
  H   H57       1.0  0.95903  0.2323  0.85635  1.0000
  H   H58       1.0  0.18154999999999996  0.98628  0.8526399999999997  1.0000
  H   H59       1.0  0.34025000000000005  0.25721  0.81414  1.0000
  H   H60       1.0  0.63745  0.21059  0.37028  1.0000
  H   H61       1.0  0.15308000000000005  0.27706  0.60646  1.0000
  H   H62       1.0  0.8217  0.24481000000000003  0.8637799999999998  1.0000
  H   H63       1.0  0.23729  0.14819  0.16873999999999995  1.0000
  H   H64       1.0  0.22942  0.09306  0.30747  1.0000
  H   H65       1.0  0.25457  0.63238  0.47561  1.0000
  H   H66       1.0  0.15271000000000004  0.27131  0.5303099999999998  1.0000
  H   H67       1.0  0.23243000000000003  0.95961  0.35653  1.0000
  H   H68       1.0  0.22077000000000002  0.6393  0.00184  1.0000
  H   H69       1.0  0.27697  0.15317  0.10627  1.0000
  H   H70       1.0  0.49722  0.22474  0.36606  1.0000
  H   H71       1.0  0.24645  0.32948999999999995  0.17314  1.0000
  H   H72       1.0  0.22820000000000004  0.08465  0.23088  1.0000
  H   H73       1.0  0.09313  0.22928  0.80762  1.0000
  H   H74       1.0  0.86767  0.25753  0.9954899999999999  1.0000
  H   H75       1.0  0.14815  0.23737  0.66892  1.0000
  H   H76       1.0  0.23485  0.73355  0.45998  1.0000
  H   H77       1.0  0.37250000000000005  0.20858999999999994  0.6091499999999997  1.0000
  H   H78       1.0  0.83824  0.17718  0.3495  1.0000
  H   H79       1.0  0.24474000000000004  0.82222  0.36388  1.0000
  H   H80       1.0  0.63178  0.25457  0.9756899999999997  1.0000
  H   H81       1.0  0.85857  0.21777  0.48076  1.0000
  H   H82       1.0  0.0033300000000000022  0.23985  0.9864499999999999  1.0000
  H   H83       1.0  0.17727  0.83847  0.84974  1.0000
  H   H84       1.0  0.23997  0.0031299999999999796  0.4866899999999999  1.0000
  H   H85       1.0  0.98605  0.18158  0.35233  1.0000
  H   H86       1.0  0.004309999999999996  0.21969  0.4832  1.0000
  H   H87       1.0  0.20694999999999994  0.36294  0.032059999999999984  1.0000
  H   H88       1.0  0.25738000000000016  0.86726  0.49557  1.0000
  H   H89       1.0  0.25732  0.34027  0.31386  1.0000
  H   H90       1.0  0.08457  0.2281  0.73103  1.0000
  H   H91       1.0  0.25694  0.34339  0.23834  1.0000
  H   H92       1.0  0.20869000000000001  0.37257  0.10882999999999997  1.0000
  H   H93       1.0  0.36274000000000006  0.20704  0.53238  1.0000
  H   H94       1.0  0.6134700000000001  0.29835  0.84756  1.0000
  H   H95       1.0  0.73465  0.29444  0.88135  1.0000
  H   H96       1.0  0.21964  0.0038599999999999936  0.98354  1.0000
  H   H97       1.0  0.2178700000000001  0.8581700000000002  0.98097  1.0000
  H   H98       1.0  0.6396600000000002  0.22068  0.50173  1.0000
  H   H99       1.0  0.27109  0.15268  0.03014  1.0000
  H   H100      1.0  0.32945  0.24636000000000002  0.6734  1.0000
  H   H101      1.0  0.4725  0.3004  0.8535  1.0000
  H   H102      1.0  0.29466  0.73498  0.38137  1.0000
  H   H103      1.0  0.29782  0.61284  0.3475999999999999  1.0000
  H   H104      1.0  0.2106  0.63776  0.8704  1.0000
  H   H105      1.0  0.25993  0.49245000000000005  0.48110999999999987  1.0000
  H   H106      1.0  0.5011000000000001  0.23721999999999996  0.49689999999999995  1.0000
  H   H107      1.0  0.49148000000000003  0.25980999999999993  0.9805599999999999  1.0000
  H   H108      1.0  0.23727000000000006  0.50065  0.99687  1.0000
  H   H109      1.0  0.7338200000000005  0.23514000000000002  0.96016  1.0000
  H   H110      1.0  0.3002100000000001  0.47213  0.35403  1.0000
  H   H111      1.0  0.22469999999999998  0.49749000000000004  0.8660699999999998  1.0000
  H   H112      1.0  0.34346000000000004  0.25692  0.7386  1.0000
  H   H113      1.0  0.2720100000000001  0.45447  0.68133  1.0000
  H   H114      1.0  0.7800600000000002  0.48316  0.69726  1.0000
  H   H115      1.0  0.51249  0.64584  0.44505  1.0000
  H   H116      1.0  0.53123  0.08003999999999997  0.7989199999999997  1.0000
  H   H117      1.0  0.35386999999999996  0.48746999999999996  0.05502999999999999  1.0000
  H   H118      1.0  0.5226600000000001  0.07557  0.66783  1.0000
  H   H119      1.0  0.47734  0.92443  0.33216  1.0000
  H   H120      1.0  0.21994  0.51685  0.30274  1.0000
  H   H121      1.0  0.5455300000000001  0.72785  0.8189099999999998  1.0000
  H   H122      1.0  0.7831900000000003  0.48986  0.82827  1.0000
  H   H123      1.0  0.45488  0.12582  0.179  1.0000
  H   H124      1.0  0.53316  0.61468  0.57654  1.0000
  H   H125      1.0  0.7279900000000002  0.54553  0.31867  1.0000
  H   H126      1.0  0.92468  0.47734  0.8321  1.0000
  H   H127      1.0  0.08047  0.53118  0.29898  1.0000
  H   H128      1.0  0.4406400000000001  0.12992  0.30912  1.0000
  H   H129      1.0  0.49932000000000004  0.34915  0.63188  1.0000
  H   H130      1.0  0.48750000000000004  0.35416  0.55495  1.0000
  H   H131      1.0  0.6511000000000002  0.5004600000000001  0.86814  1.0000
  H   H132      1.0  0.12574000000000002  0.45495  0.67913  1.0000
  H   H133      1.0  0.5612900000000002  0.72577  0.68894  1.0000
  H   H134      1.0  0.50068  0.65086  0.36812  1.0000
  H   H135      1.0  0.07533000000000001  0.52267  0.1679  1.0000
  H   H136      1.0  0.54266  0.59873  0.65192  1.0000
  H   H137      1.0  0.55936  0.8700899999999999  0.69088  1.0000
  H   H138      1.0  0.38573999999999997  0.46695999999999993  0.9232899999999998  1.0000
  H   H139      1.0  0.5168800000000002  0.21947  0.8028  1.0000
  H   H140      1.0  0.4387200000000001  0.27424000000000004  0.31106  1.0000
  H   H141      1.0  0.2739700000000001  0.43836  0.81129  1.0000
  H   H142      1.0  0.45447000000000004  0.27215  0.18108999999999995  1.0000
  H   H143      1.0  0.54511  0.87418  0.82099  1.0000
  H   H144      1.0  0.12968  0.44044  0.80922  1.0000
  H   H145      1.0  0.45735  0.40127  0.34808  1.0000
  H   H146      1.0  0.9195300000000002  0.46882  0.70102  1.0000
  H   H147      1.0  0.4899  0.78291  0.32818  1.0000
  H   H148      1.0  0.64614  0.51256  0.94498  1.0000
  H   H149      1.0  0.5101  0.21709  0.67181  1.0000
  H   H150      1.0  0.87427  0.54504  0.32087  1.0000
  H   H151      1.0  0.40153  0.45718  0.84796  1.0000
  H   H152      1.0  0.59847  0.54281  0.15203999999999995  1.0000
  H   H153      1.0  0.6142600000000003  0.53305  0.07671  1.0000
  H   H154      1.0  0.87031  0.55956  0.19078  1.0000
  H   H155      1.0  0.72602  0.56165  0.18872  1.0000
  H   H156      1.0  0.21681  0.51014  0.17173  1.0000
  H   H157      1.0  0.48312  0.78054  0.19719999999999993  1.0000
  H   H158      1.0  0.46684  0.38532  0.42346  1.0000
  H   H159      1.0  0.46877  0.91996  0.20108  1.0000
  H   H160      1.0  0.3489000000000001  0.49955  0.13186  1.0000
  C   C1        1.0  0.61465  0.72609  0.07979  1.0000
  C   C2        1.0  0.46872  0.76897  0.53054  1.0000
  C   C3        1.0  0.11346999999999999  0.79053  0.54712  1.0000
  C   C4        1.0  0.75819  0.03711  0.53975  1.0000
  C   C5        1.0  0.8575799999999999  0.76622  0.2518  1.0000
  C   C6        1.0  0.7141  0.75056  0.24792999999999998  1.0000
  C   C7        1.0  0.77598  0.47038  0.10451  1.0000
  C   C8        1.0  0.7893  0.03299  0.04549  1.0000
  C   C9        1.0  0.40248999999999996  0.73686  0.0516  1.0000
  C   C10       1.0  0.77801  0.68182  0.9499  1.0000
  C   C11       1.0  0.74658  0.16399999999999995  0.5695699999999998  1.0000
  C   C12       1.0  0.72611  0.61461  0.57922  1.0000
  C   C13       1.0  0.76608  0.85754  0.75195  1.0000
  C   C14       1.0  0.7651700000000002  0.85365  0.70953  1.0000
  C   C15       1.0  0.9071400000000003  0.7916200000000001  0.57987  1.0000
  C   C16       1.0  0.73686  0.40214000000000005  0.55152  1.0000
  C   C17       1.0  0.11264999999999996  0.74907  0.03503  1.0000
  C   C18       1.0  0.85362  0.76529  0.20938  1.0000
  C   C19       1.0  0.39313  0.78404  0.60232  1.0000
  C   C20       1.0  0.1600300000000001  0.80213  0.58521  1.0000
  C   C21       1.0  0.01005000000000003  0.7643  0.07918  1.0000
  C   C22       1.0  0.78472  0.35281  0.06359  1.0000
  C   C23       1.0  0.71108  0.49287999999999993  0.61969  1.0000
  C   C24       1.0  0.7765700000000001  0.6769400000000001  0.90745  1.0000
  C   C25       1.0  0.78402  0.39298  0.10222  1.0000
  C   C26       1.0  0.74184  0.79977  0.95095  1.0000
  C   C27       1.0  0.032769999999999994  0.78925  0.54579  1.0000
  C   C28       1.0  0.7992800000000001  0.73947  0.40834  1.0000
  C   C29       1.0  0.41383999999999993  0.71234  0.12344  1.0000
  C   C30       1.0  0.8020400000000001  0.16000000000000003  0.085  1.0000
  C   C31       1.0  0.73352  0.48101  0.54814  1.0000
  C   C32       1.0  0.81126  0.04283  0.11965  1.0000
  C   C33       1.0  0.7867700000000002  0.75863  0.2723  1.0000
  C   C34       1.0  0.75975  0.593  0.07163  1.0000
  C   C35       1.0  0.35275  0.78475  0.5637  1.0000
  C   C36       1.0  0.59301  0.75972  0.57161  1.0000
  C   C37       1.0  0.13861000000000007  0.75408  0.10902  1.0000
  C   C38       1.0  0.73958  0.79923  0.9085899999999998  1.0000
  C   C39       1.0  0.7776200000000004  0.39161  0.027829999999999994  1.0000
  C   C40       1.0  0.7642100000000003  0.009830000000000005  0.57892  1.0000
  C   C41       1.0  0.76847  0.92596  0.58273  1.0000
  C   C42       1.0  0.73015  0.75566  0.34061  1.0000
  C   C43       1.0  0.03702999999999998  0.75816  0.03996  1.0000
  C   C44       1.0  0.49284000000000006  0.71102  0.12011999999999998  1.0000
  C   C45       1.0  0.04296999999999997  0.81123  0.6199399999999998  1.0000
  C   C46       1.0  0.5091300000000002  0.76811  0.5688  1.0000
  C   C47       1.0  0.76238  0.06129  0.61321  1.0000
  C   C48       1.0  0.3914  0.7776799999999999  0.52792  1.0000
  C   C49       1.0  0.75694  0.73641  0.88543  1.0000
  C   C50       1.0  0.71486  0.74991  0.20571999999999996  1.0000
  C   C51       1.0  0.75563  0.73011  0.8408799999999998  1.0000
  C   C52       1.0  0.7498099999999999  0.71489  0.70595  1.0000
  C   C53       1.0  0.71256  0.41398999999999997  0.62328  1.0000
  C   C54       1.0  0.72266  0.52814  0.5822  1.0000
  C   C55       1.0  0.3687100000000001  0.72847  0.08962  1.0000
  C   C56       1.0  0.74913  0.11276000000000001  0.53491  1.0000
  C   C57       1.0  0.47054000000000007  0.77602  0.60454  1.0000
  C   C58       1.0  0.67698  0.77654  0.40712  1.0000
  C   C59       1.0  0.81339  0.12421  0.12127  1.0000
  C   C60       1.0  0.48144000000000003  0.7336  0.04852  1.0000
  C   C61       1.0  0.9262100000000001  0.7686  0.08329  1.0000
  C   C62       1.0  0.7585500000000004  0.78676  0.7725  1.0000
  C   C63       1.0  0.7918400000000003  0.75858  0.31677  1.0000
  C   C64       1.0  0.061789999999999956  0.76238  0.11339  1.0000
  C   C65       1.0  0.79981  0.74165  0.4506799999999999  1.0000
  C   C66       1.0  0.16416999999999995  0.74656  0.06963  1.0000
  C   C67       1.0  0.7364600000000002  0.7569  0.38515  1.0000
  C   C68       1.0  0.76804  0.50913  0.0688  1.0000
  C   C69       1.0  0.76888  0.46891  0.030509999999999992  1.0000
  C   C70       1.0  0.75046  0.71413  0.74815  1.0000
  C   C71       1.0  0.79047  0.11366  0.04687  1.0000
  C   C72       1.0  0.75409  0.13815  0.60891  1.0000
  C   C73       1.0  0.12439000000000001  0.81346  0.62151  1.0000
  C   C74       1.0  0.7985599999999999  0.9963699999999999  0.08176  1.0000
  C   C75       1.0  0.5282900000000001  0.72274  0.0827  1.0000
  C   C76       1.0  0.7285100000000002  0.36856000000000005  0.58959  1.0000
  C   C77       1.0  0.68188  0.7778899999999999  0.4495399999999999  1.0000
  C   C78       1.0  0.75859  0.7918  0.8169799999999998  1.0000
  C   C79       1.0  0.79187  0.9072699999999999  0.07952  1.0000
  C   C80       1.0  0.9962800000000002  0.79842  0.58208  1.0000
  C   C81       1.0  0.26985000000000003  0.24435  0.65938  1.0000
  C   C82       1.0  0.27149  0.63145  0.41041  1.0000
  C   C83       1.0  0.20148000000000008  0.0036200000000000186  0.91825  1.0000
  C   C84       1.0  0.28514  0.25009  0.79427  1.0000
  C   C85       1.0  0.9899800000000001  0.23571999999999999  0.92083  1.0000
  C   C86       1.0  0.14638  0.2347  0.79062  1.0000
  C   C87       1.0  0.07385999999999995  0.23150999999999994  0.9167499999999997  1.0000
  C   C88       1.0  0.18875  0.95714  0.88036  1.0000
  C   C89       1.0  0.8358800000000002  0.25343  0.93037  1.0000
  C   C90       1.0  0.5312800000000002  0.23103  0.46945  1.0000
  C   C91       1.0  0.2153  0.64716  0.9364099999999997  1.0000
  C   C92       1.0  0.88736  0.25089  0.96498  1.0000
  C   C93       1.0  0.8399700000000001  0.19787  0.41479  1.0000
  C   C94       1.0  0.24181  0.96289  0.46025  1.0000
  C   C95       1.0  0.23762000000000005  0.93871  0.38679  1.0000
  C   C96       1.0  0.23391  0.14246  0.24805  1.0000
  C   C97       1.0  0.14242  0.23378999999999994  0.7481999999999998  1.0000
  C   C98       1.0  0.9629700000000001  0.24179  0.96005  1.0000
  C   C99       1.0  0.224  0.52958  0.8954799999999998  1.0000
  C   C100      1.0  0.0037199999999999976  0.20159  0.41792  1.0000
  C   C101      1.0  0.24141  0.2082  0.18302  1.0000
  C   C102      1.0  0.21072  0.96696  0.95451  1.0000
  C   C103      1.0  0.47175000000000006  0.27726  0.9173  1.0000
  C   C104      1.0  0.6472400000000001  0.21525  0.4362999999999999  1.0000
  C   C105      1.0  0.58622  0.28766  0.87656  1.0000
  C   C106      1.0  0.24305  0.2636  0.11457  1.0000
  C   C107      1.0  0.25816  0.20023  0.04906  1.0000
  C   C108      1.0  0.222  0.31819  0.050099999999999985  1.0000
  C   C109      1.0  0.2859000000000001  0.24944  0.75206  1.0000
  C   C110      1.0  0.52946  0.22398  0.39545  1.0000
  C   C111      1.0  0.18659999999999996  0.8757499999999999  0.87873  1.0000
  C   C112      1.0  0.19794000000000012  0.83994  0.91499  1.0000
  C   C113      1.0  0.9672300000000001  0.21075  0.45421  1.0000
  C   C114      1.0  0.93824  0.23756  0.88661  1.0000
  C   C115      1.0  0.23195  0.49085000000000006  0.9311999999999998  1.0000
  C   C116      1.0  0.63135  0.27154  0.91039  1.0000
  C   C117      1.0  0.5186  0.26639999999999997  0.9514799999999998  1.0000
  C   C118      1.0  0.50722  0.28898  0.87988  1.0000
  C   C119      1.0  0.49087000000000003  0.2319  0.43119  1.0000
  C   C120      1.0  0.9570300000000002  0.18878  0.38006  1.0000
  C   C121      1.0  0.2534200000000001  0.836  0.43043  1.0000
  C   C122      1.0  0.28745  0.58602  0.3767199999999999  1.0000
  C   C123      1.0  0.09286000000000003  0.20838  0.42013  1.0000
  C   C124      1.0  0.28892  0.50713  0.38031  1.0000
  C   C125      1.0  0.20953000000000002  0.8862699999999999  0.9531199999999997  1.0000
  C   C126      1.0  0.2311  0.53105  0.9694799999999998  1.0000
  C   C127      1.0  0.32302  0.22346  0.59288  1.0000
  C   C128      1.0  0.23483  0.14635  0.29047  1.0000
  C   C129      1.0  0.20817  0.09275  0.92049  1.0000
  C   C130      1.0  0.26041  0.20077999999999996  0.09141  1.0000
  C   C131      1.0  0.24034  0.40704  0.92838  1.0000
  C   C132      1.0  0.86141  0.24585000000000004  0.89097  1.0000
  C   C133      1.0  0.23578  0.99018  0.4210799999999999  1.0000
  C   C134      1.0  0.23152000000000003  0.07404  0.41727  1.0000
  C   C135      1.0  0.6086000000000003  0.22233  0.47208  1.0000
  C   C136      1.0  0.22343  0.32307  0.09254  1.0000
  C   C137      1.0  0.26315  0.59787  0.44848  1.0000
  C   C138      1.0  0.24436000000000002  0.2699  0.15912  1.0000
  C   C139      1.0  0.2664800000000001  0.519  0.45185999999999993  1.0000
  C   C140      1.0  0.59755  0.26314  0.9484  1.0000
  C   C141      1.0  0.8756100000000002  0.18655  0.37849  1.0000
  C   C142      1.0  0.25019  0.28512  0.29405  1.0000
  C   C143      1.0  0.31812000000000007  0.22211  0.55045  1.0000
  C   C144      1.0  0.20018  0.25835  0.54931  1.0000
  C   C145      1.0  0.60687  0.21596  0.39767999999999987  1.0000
  C   C146      1.0  0.24954000000000004  0.28588  0.25185  1.0000
  C   C147      1.0  0.38539  0.27392  0.9202  1.0000
  C   C148      1.0  0.21598  0.60699  0.8977699999999997  1.0000
  C   C149      1.0  0.27734  0.47187  0.4177999999999999  1.0000
  C   C150      1.0  0.2738800000000001  0.38539000000000007  0.42078  1.0000
  C   C151      1.0  0.26354  0.2431  0.61485  1.0000
  C   C152      1.0  0.24144  0.21324  0.2275  1.0000
  C   C153      1.0  0.20072000000000004  0.26054  0.59166  1.0000
  C   C154      1.0  0.40699  0.24028  0.42838  1.0000
  C   C155      1.0  0.25086999999999987  0.88724  0.4650899999999999  1.0000
  C   C156      1.0  0.20816  0.24143  0.68323  1.0000
  C   C157      1.0  0.24591000000000002  0.86186  0.39109  1.0000
  C   C158      1.0  0.22239  0.60836  0.97217  1.0000
  C   C159      1.0  0.8865300000000003  0.20947  0.45288  1.0000
  C   C160      1.0  0.21323000000000006  0.24138000000000004  0.7277  1.0000
  C   C161      1.0  0.54863  0.75984  0.79127  1.0000
  C   C162      1.0  0.7600300000000002  0.54867  0.29108  1.0000
  C   C163      1.0  0.48611000000000004  0.77221  0.26242  1.0000
  C   C164      1.0  0.81349  0.48533999999999994  0.80065  1.0000
  C   C165      1.0  0.59419  0.494  0.8820399999999998  1.0000
  C   C166      1.0  0.07038  0.529  0.23315  1.0000
  C   C167      1.0  0.4434400000000001  0.24189999999999998  0.2823299999999999  1.0000
  C   C168      1.0  0.44404  0.16167  0.28141  1.0000
  C   C169      1.0  0.48099000000000003  0.81175  0.22664  1.0000
  C   C170      1.0  0.4993  0.40894  0.5757799999999997  1.0000
  C   C171      1.0  0.23997  0.45133  0.70892  1.0000
  C   C172      1.0  0.71783  0.55193  0.25365  1.0000
  C   C173      1.0  0.12006999999999997  0.44928999999999997  0.7440199999999999  1.0000
  C   C174      1.0  0.51068  0.31388  0.74045  1.0000
  C   C175      1.0  0.18853999999999996  0.51898  0.2733299999999999  1.0000
  C   C176      1.0  0.5244000000000002  0.55505  0.58776  1.0000
  C   C177      1.0  0.2821700000000001  0.44807  0.74635  1.0000
  C   C178      1.0  0.54893  0.62997  0.75255  1.0000
  C   C179      1.0  0.4756  0.44495  0.4122399999999999  1.0000
  C   C180      1.0  0.5559500000000003  0.83834  0.71859  1.0000
  C   C181      1.0  0.15938  0.45136  0.7076899999999999  1.0000
  C   C182      1.0  0.5300300000000002  0.54668  0.62927  1.0000
  C   C183      1.0  0.92962  0.47101  0.76685  1.0000
  C   C184      1.0  0.10839000000000001  0.52191  0.19712999999999994  1.0000
  C   C185      1.0  0.5517700000000001  0.7177199999999999  0.7537999999999998  1.0000
  C   C186      1.0  0.31392  0.51064  0.24038  1.0000
  C   C187      1.0  0.16154000000000004  0.44389000000000006  0.78155  1.0000
  C   C188      1.0  0.77212  0.4860999999999999  0.76249  1.0000
  C   C189      1.0  0.46997  0.45332  0.37073  1.0000
  C   C190      1.0  0.49138000000000004  0.51485  0.43984  1.0000
  C   C191      1.0  0.55063  0.87978  0.7560999999999998  1.0000
  C   C192      1.0  0.63009  0.54917  0.2528  1.0000
  C   C193      1.0  0.51465  0.1866  0.6994  1.0000
  C   C194      1.0  0.18651000000000006  0.51467  0.19936  1.0000
  C   C195      1.0  0.55465  0.52442  0.08789  1.0000
  C   C196      1.0  0.5067800000000002  0.49754  0.9820899999999999  1.0000
  C   C197      1.0  0.45107000000000014  0.37004  0.24744  1.0000
  C   C198      1.0  0.11097000000000005  0.52673  0.27143  1.0000
  C   C199      1.0  0.5463400000000003  0.5302  0.12941  1.0000
  C   C200      1.0  0.51901  0.18826  0.77336  1.0000
  C   C201      1.0  0.54864  0.84047  0.79246  1.0000
  C   C202      1.0  0.49422000000000005  0.59402  0.38213999999999987  1.0000
  C   C203      1.0  0.84062  0.54864  0.2923099999999999  1.0000
  C   C204      1.0  0.45136  0.15952999999999998  0.20754  1.0000
  C   C205      1.0  0.47101000000000004  0.92976  0.26691  1.0000
  C   C206      1.0  0.8916199999999999  0.47808999999999996  0.8028699999999998  1.0000
  C   C207      1.0  0.48535000000000006  0.8134  0.3006  1.0000
  C   C208      1.0  0.40581  0.50601  0.11796  1.0000
  C   C209      1.0  0.68608  0.4893600000000001  0.75963  1.0000
  C   C210      1.0  0.83845  0.55611  0.21845  1.0000
  C   C211      1.0  0.50069  0.59107  0.42422  1.0000
  C   C212      1.0  0.44535  0.47559  0.91211  1.0000
  C   C213      1.0  0.5267500000000003  0.11067999999999997  0.77139  1.0000
  C   C214      1.0  0.48932  0.68612  0.25955  1.0000
  C   C215      1.0  0.4482300000000001  0.28228  0.2462  1.0000
  C   C216      1.0  0.49323  0.50248  0.01791  1.0000
  C   C217      1.0  0.8890300000000001  0.4732699999999999  0.7285699999999998  1.0000
  C   C218      1.0  0.87993  0.55071  0.2559799999999999  1.0000
  C   C219      1.0  0.75819  0.55677  0.21749999999999994  1.0000
  C   C220      1.0  0.5913000000000003  0.50063  0.92414  1.0000
  C   C221      1.0  0.50577  0.40598  0.61786  1.0000
  C   C222      1.0  0.49740000000000006  0.50652  0.48208  1.0000
  C   C223      1.0  0.48482  0.50858  0.060179999999999984  1.0000
  C   C224      1.0  0.36990999999999996  0.45084  0.7472299999999997  1.0000
  C   C225      1.0  0.2418  0.44323  0.7825  1.0000
  C   C226      1.0  0.22788000000000005  0.5139  0.23751  1.0000
  C   C227      1.0  0.5151799999999999  0.49144  0.93982  1.0000
  C   C228      1.0  0.44937  0.12021999999999998  0.2439  1.0000
  C   C229      1.0  0.4087  0.49938999999999995  0.07585999999999997  1.0000
  C   C230      1.0  0.4781  0.8915500000000001  0.3029  1.0000
  C   C231      1.0  0.45366  0.4698  0.8705899999999998  1.0000
  C   C232      1.0  0.45136  0.24016  0.20872  1.0000
  C   C233      1.0  0.5138900000000002  0.2278  0.73758  1.0000
  C   C234      1.0  0.50259  0.4934799999999999  0.51792  1.0000
  C   C235      1.0  0.81145  0.48102  0.7266699999999998  1.0000
  C   C236      1.0  0.5565600000000003  0.7581  0.71767  1.0000
  C   C237      1.0  0.50862  0.48515  0.56016  1.0000
  C   C238      1.0  0.47324999999999995  0.88933  0.22860999999999995  1.0000
  C   C239      1.0  0.52899  0.07025000000000002  0.73309  1.0000
  C   C240      1.0  0.5219000000000003  0.10846  0.6971  1.0000
  N   N1        1.0  0.80126  0.24132  0.09049  1.0000
  N   N2        1.0  0.7310100000000002  0.23706999999999998  0.56212  1.0000
  N   N3        1.0  0.7833600000000001  0.75713  0.18642  1.0000
  N   N4        1.0  0.7405900000000002  0.29425  0.59687  1.0000
  N   N5        1.0  0.23714  0.73099  0.06208  1.0000
  N   N6        1.0  0.7419500000000002  0.76017  0.47122  1.0000
  N   N7        1.0  0.7896400000000002  0.27286  0.05737999999999999  1.0000
  N   N8        1.0  0.2727800000000001  0.78965  0.55753  1.0000
  N   N9        1.0  0.7571000000000002  0.78341  0.68661  1.0000
  N   N10       1.0  0.76037  0.74191  0.97157  1.0000
  N   N11       1.0  0.29446  0.74062  0.09678  1.0000
  N   N12       1.0  0.2414  0.8014  0.59064  1.0000
  N   N13       1.0  0.72722  0.21035  0.44247  1.0000
  N   N14       1.0  0.24290000000000003  0.21659  0.31339  1.0000
  N   N15       1.0  0.7586  0.19860000000000003  0.40936  1.0000
  N   N16       1.0  0.19872  0.75862  0.9095  1.0000
  N   N17       1.0  0.7056100000000002  0.25942  0.90324  1.0000
  N   N18       1.0  0.21665  0.24285999999999996  0.81358  1.0000
  N   N19       1.0  0.25805000000000006  0.23982999999999996  0.52877  1.0000
  N   N20       1.0  0.26899  0.76293  0.43788  1.0000
  N   N21       1.0  0.76296  0.2691  0.93793  1.0000
  N   N22       1.0  0.21037999999999996  0.7271099999999999  0.9426099999999997  1.0000
  N   N23       1.0  0.23964000000000002  0.2581  0.02843  1.0000
  N   N24       1.0  0.25942  0.70576  0.40313  1.0000
  N   N25       1.0  0.45407  0.04004  0.23905  1.0000
  N   N26       1.0  0.4732  0.52089  0.14443999999999996  1.0000
  N   N27       1.0  0.9601100000000001  0.54601  0.26091  1.0000
  N   N28       1.0  0.008909999999999979  0.46371  0.77254  1.0000
  N   N29       1.0  0.5268  0.47912000000000005  0.8555599999999998  1.0000
  N   N30       1.0  0.54593  0.95997  0.76095  1.0000
  N   N31       1.0  0.52061  0.47344  0.64424  1.0000
  N   N32       1.0  0.47939000000000004  0.52657  0.35576  1.0000
  N   N33       1.0  0.53631  0.9909600000000001  0.72744  1.0000
  N   N34       1.0  0.46369000000000005  0.009039999999999998  0.27256  1.0000
  N   N35       1.0  0.03988999999999998  0.45399  0.7390899999999998  1.0000
  N   N36       1.0  0.9910900000000001  0.5363  0.22745  1.0000
  O   O1        1.0  0.7261000000000001  0.6564  0.6127799999999998  1.0000
  O   O2        1.0  0.74599  0.62123  0.03788999999999999  1.0000
  O   O3        1.0  0.9029300000000002  0.77355  0.11929999999999998  1.0000
  O   O4        1.0  0.7658  0.62878  0.10733  1.0000
  O   O5        1.0  0.76504  0.8827899999999999  0.5492999999999999  1.0000
  O   O6        1.0  0.88266  0.76522  0.04997  1.0000
  O   O7        1.0  0.72981  0.64092  0.54368  1.0000
  O   O8        1.0  0.8705900000000002  0.78324  0.5440599999999999  1.0000
  O   O9        1.0  0.62883  0.76578  0.60736  1.0000
  O   O10       1.0  0.78377  0.87085  0.043739999999999994  1.0000
  O   O11       1.0  0.87552  0.79346  0.6137699999999999  1.0000
  O   O12       1.0  0.62096  0.74593  0.53776  1.0000
  O   O13       1.0  0.6411  0.72976  0.04432  1.0000
  O   O14       1.0  0.7736  0.90247  0.61868  1.0000
  O   O15       1.0  0.65636  0.72606  0.11338  1.0000
  O   O16       1.0  0.79346  0.87526  0.1133  1.0000
  O   O17       1.0  0.37115999999999993  0.23423  0.39264  1.0000
  O   O18       1.0  0.37904  0.25407  0.46224  1.0000
  O   O19       1.0  0.27019  0.35908  0.45631  1.0000
  O   O20       1.0  0.22640000000000005  0.09753999999999999  0.3813199999999999  1.0000
  O   O21       1.0  0.35895  0.27025  0.9556799999999998  1.0000
  O   O22       1.0  0.21626  0.12919  0.95625  1.0000
  O   O23       1.0  0.23420000000000002  0.37122  0.89268  1.0000
  O   O24       1.0  0.27387  0.3436  0.3872199999999999  1.0000
  O   O25       1.0  0.09710999999999997  0.22650999999999996  0.8807399999999997  1.0000
  O   O26       1.0  0.11742  0.23503  0.95008  1.0000
  O   O27       1.0  0.25422  0.37887  0.96211  1.0000
  O   O28       1.0  0.12941  0.21674999999999997  0.4559399999999999  1.0000
  O   O29       1.0  0.12447999999999998  0.20655  0.3862299999999999  1.0000
  O   O30       1.0  0.23496000000000003  0.11720999999999998  0.4506999999999999  1.0000
  O   O31       1.0  0.20656  0.12474999999999994  0.8866999999999998  1.0000
  O   O32       1.0  0.34366000000000013  0.27394  0.8866199999999997  1.0000
  O   O33       1.0  0.59756  0.54362  0.28664  1.0000
  O   O34       1.0  0.54345  0.59717  0.78631  1.0000
  O   O35       1.0  0.45655  0.40283  0.21368  1.0000
  O   O36       1.0  0.40246  0.45638  0.71339  1.0000
  O   O37       1.0  0.6489200000000002  0.48041  0.72395  1.0000
  O   O38       1.0  0.40578000000000003  0.44807  0.78203  1.0000
  O   O39       1.0  0.5942100000000001  0.55194  0.21798999999999993  1.0000
  O   O40       1.0  0.5515400000000001  0.59434  0.71767  1.0000
  O   O41       1.0  0.34379  0.4998600000000001  0.20664  1.0000
  O   O42       1.0  0.51973  0.35115999999999997  0.7760399999999997  1.0000
  O   O43       1.0  0.48027  0.64884  0.22395999999999994  1.0000
  O   O44       1.0  0.35108  0.51959  0.27607  1.0000
  O   O45       1.0  0.44846000000000014  0.40567  0.2823299999999999  1.0000
  O   O46       1.0  0.49983  0.34383  0.70675  1.0000
  O   O47       1.0  0.6562100000000002  0.50015  0.7933699999999998  1.0000
  O   O48       1.0  0.50017  0.6561699999999999  0.29325  1.0000
