data_image0
_chemical_formula_structural       Ag16H72C264N72O24
_chemical_formula_sum              "Ag16 H72 C264 N72 O24"
_cell_length_a       18.66618
_cell_length_b       20.43477
_cell_length_c       33.56664
_cell_angle_alpha    88.76183
_cell_angle_beta     90.03711000000001
_cell_angle_gamma    90.01234

_space_group_name_H-M_alt    "P 1"
_space_group_IT_number       1

loop_
  _space_group_symop_operation_xyz
  'x, y, z'

loop_
  _atom_site_type_symbol
  _atom_site_label
  _atom_site_symmetry_multiplicity
  _atom_site_fract_x
  _atom_site_fract_y
  _atom_site_fract_z
  _atom_site_occupancy
  Ag  Ag1       1.0  0.86968  0.21109000000000003  0.08018000000000003  1.0000
  Ag  Ag2       1.0  0.65717  0.75145  0.59328  1.0000
  Ag  Ag3       1.0  0.83637  0.4639499999999999  0.82723  1.0000
  Ag  Ag4       1.0  0.1892  0.55067  0.65892  1.0000
  Ag  Ag5       1.0  0.36947  0.28845  0.92005  1.0000
  Ag  Ag6       1.0  0.15673  0.7488  0.40652  1.0000
  Ag  Ag7       1.0  0.3366599999999999  0.03594  0.173  1.0000
  Ag  Ag8       1.0  0.68887  0.94959  0.34111  1.0000
  Ag  Ag9       1.0  0.13037  0.7888799999999999  0.9198  1.0000
  Ag  Ag10      1.0  0.34283  0.24885  0.4066800000000001  1.0000
  Ag  Ag11      1.0  0.16349999999999995  0.53602  0.1728  1.0000
  Ag  Ag12      1.0  0.8103599999999999  0.44923  0.34122  1.0000
  Ag  Ag13      1.0  0.63057  0.71154  0.07994000000000002  1.0000
  Ag  Ag14      1.0  0.8433  0.25122  0.59347  1.0000
  Ag  Ag15      1.0  0.66337  0.96415  0.82704  1.0000
  Ag  Ag16      1.0  0.31112  0.05038999999999999  0.6589  1.0000
  H   H1        1.0  0.15061  0.45703  0.91751  1.0000
  H   H2        1.0  0.34307  0.50192  0.8502500000000001  1.0000
  H   H3        1.0  0.19282999999999997  0.35731  0.80818  1.0000
  H   H4        1.0  0.11647  0.26052  0.9862299999999999  1.0000
  H   H5        1.0  0.9095899999999999  0.3263  0.9427700000000002  1.0000
  H   H6        1.0  0.29647  0.42848  0.03442  1.0000
  H   H7        1.0  0.1509  0.59365  0.02524  1.0000
  H   H8        1.0  0.3490899999999999  0.20255  0.7745  1.0000
  H   H9        1.0  0.24247999999999997  0.31675  0.68161  1.0000
  H   H10       1.0  0.84678  0.68862  0.6930800000000003  1.0000
  H   H11       1.0  0.86218  0.57645  0.58566  1.0000
  H   H12       1.0  0.6893  0.53885  0.66809  1.0000
  H   H13       1.0  0.56947  0.48914  0.77724  1.0000
  H   H14       1.0  0.49249999999999994  0.6433  0.69755  1.0000
  H   H15       1.0  0.08765999999999999  0.65185  0.5304800000000002  1.0000
  H   H16       1.0  0.8874299999999999  0.7488  0.50226  1.0000
  H   H17       1.0  0.70952  0.59374  0.47617  1.0000
  H   H18       1.0  0.8252699999999997  0.41055  0.48819  1.0000
  H   H19       1.0  0.65253  0.04296  0.08246000000000002  1.0000
  H   H20       1.0  0.84517  0.99816  0.14946  1.0000
  H   H21       1.0  0.6951299999999998  0.14243  0.19202  1.0000
  H   H22       1.0  0.61602  0.23913  0.01362  1.0000
  H   H23       1.0  0.4102099999999999  0.17252  0.05809  1.0000
  H   H24       1.0  0.7965899999999998  0.07131000000000001  0.9653699999999998  1.0000
  H   H25       1.0  0.65117  0.9060699999999999  0.9752599999999999  1.0000
  H   H26       1.0  0.8492399999999999  0.2978  0.22574  1.0000
  H   H27       1.0  0.74287  0.18237  0.31807  1.0000
  H   H28       1.0  0.3453099999999999  0.81139  0.30683  1.0000
  H   H29       1.0  0.36063  0.92314  0.41447  1.0000
  H   H30       1.0  0.1878  0.9609399999999999  0.33201  1.0000
  H   H31       1.0  0.06863999999999998  0.01137  0.22257  1.0000
  H   H32       1.0  0.99114  0.85749  0.30228  1.0000
  H   H33       1.0  0.58747  0.84844  0.46893  1.0000
  H   H34       1.0  0.38776  0.75129  0.49795  1.0000
  H   H35       1.0  0.20954  0.90617  0.52413  1.0000
  H   H36       1.0  0.32558  0.08915999999999999  0.51145  1.0000
  H   H37       1.0  0.8493999999999998  0.54297  0.08247  1.0000
  H   H38       1.0  0.657  0.49805  0.14978  1.0000
  H   H39       1.0  0.80723  0.64271  0.1918  1.0000
  H   H40       1.0  0.88368  0.73944  0.01373  1.0000
  H   H41       1.0  0.09048  0.67358  0.05723000000000002  1.0000
  H   H42       1.0  0.7035399999999998  0.57161  0.9656000000000001  1.0000
  H   H43       1.0  0.84919  0.40651  0.9747500000000001  1.0000
  H   H44       1.0  0.65091  0.79751  0.22552  1.0000
  H   H45       1.0  0.7573799999999998  0.68328  0.31843  1.0000
  H   H46       1.0  0.15281  0.31192  0.3068  1.0000
  H   H47       1.0  0.13717  0.42389  0.41416  1.0000
  H   H48       1.0  0.31085  0.46109  0.33203  1.0000
  H   H49       1.0  0.43048  0.51084  0.22272  1.0000
  H   H50       1.0  0.5074399999999998  0.35662  0.30239  1.0000
  H   H51       1.0  0.9121199999999999  0.3483  0.46954  1.0000
  H   H52       1.0  0.11247999999999998  0.25158  0.49773  1.0000
  H   H53       1.0  0.29048  0.40637999999999996  0.52388  1.0000
  H   H54       1.0  0.17475  0.5896  0.5119  1.0000
  H   H55       1.0  0.3474899999999999  0.95706  0.91754  1.0000
  H   H56       1.0  0.15486  0.0018099999999999978  0.85057  1.0000
  H   H57       1.0  0.30494  0.85757  0.80798  1.0000
  H   H58       1.0  0.3839499999999999  0.76078  0.98636  1.0000
  H   H59       1.0  0.58977  0.82748  0.9419400000000001  1.0000
  H   H60       1.0  0.20364  0.92873  0.03469  1.0000
  H   H61       1.0  0.34884999999999994  0.09402  0.02475  1.0000
  H   H62       1.0  0.15077  0.7022  0.7742700000000001  1.0000
  H   H63       1.0  0.25717999999999996  0.8175199999999999  0.68193  1.0000
  H   H64       1.0  0.65467  0.18857999999999997  0.69319  1.0000
  H   H65       1.0  0.6394  0.07679  0.58553  1.0000
  H   H66       1.0  0.8122199999999999  0.03907999999999999  0.66796  1.0000
  H   H67       1.0  0.9313799999999999  0.9886099999999999  0.77742  1.0000
  H   H68       1.0  0.00889  0.14247  0.69771  1.0000
  H   H69       1.0  0.41257  0.15156  0.5310300000000002  1.0000
  H   H70       1.0  0.6123099999999998  0.24872  0.50208  1.0000
  H   H71       1.0  0.79047  0.09382  0.47587  1.0000
  H   H72       1.0  0.67442  0.9108  0.48858000000000007  1.0000
  C   C1        1.0  0.16733  0.4034499999999999  0.86336  1.0000
  C   C2        1.0  0.18556  0.44834  0.89231  1.0000
  C   C3        1.0  0.24906999999999999  0.4835999999999999  0.88659  1.0000
  C   C4        1.0  0.29351  0.47464  0.85387  1.0000
  C   C5        1.0  0.27236  0.42885999999999996  0.82595  1.0000
  C   C6        1.0  0.2093  0.39276  0.82998  1.0000
  C   C7        1.0  0.07605999999999999  0.34595999999999993  0.89996  1.0000
  C   C8        1.0  0.11911999999999999  0.31216  0.92861  1.0000
  C   C9        1.0  0.08465999999999999  0.28635  0.9638400000000001  1.0000
  C   C10       1.0  0.01057  0.29218999999999995  0.9684100000000001  1.0000
  C   C11       1.0  0.96728  0.32389  0.93951  1.0000
  C   C12       1.0  0.00158  0.35204  0.9051900000000003  1.0000
  C   C13       1.0  0.19125  0.29691  0.92148  1.0000
  C   C14       1.0  0.9771599999999999  0.2648499999999999  0.00301  1.0000
  C   C15       1.0  0.96135  0.38561  0.8758  1.0000
  C   C16       1.0  0.2511099999999999  0.52281  0.95235  1.0000
  C   C17       1.0  0.28494  0.47150999999999993  0.9751099999999999  1.0000
  C   C18       1.0  0.27005  0.4662299999999999  0.01644  1.0000
  C   C19       1.0  0.22332  0.51048  0.03415  1.0000
  C   C20       1.0  0.18842999999999996  0.56051  0.01151  1.0000
  C   C21       1.0  0.20283  0.56562  0.9700600000000001  1.0000
  C   C22       1.0  0.33504  0.43038  0.95717  1.0000
  C   C23       1.0  0.21336  0.5057399999999999  0.076  1.0000
  C   C24       1.0  0.16735  0.61281  0.9453000000000001  1.0000
  C   C25       1.0  0.30906999999999996  0.36680999999999997  0.77118  1.0000
  C   C26       1.0  0.33679  0.30647  0.78631  1.0000
  C   C27       1.0  0.32893999999999995  0.24920999999999996  0.76312  1.0000
  C   C28       1.0  0.29512  0.25388  0.72593  1.0000
  C   C29       1.0  0.26869  0.31381  0.7104300000000002  1.0000
  C   C30       1.0  0.27528  0.37081000000000003  0.73394  1.0000
  C   C31       1.0  0.37064  0.30388  0.8237200000000002  1.0000
  C   C32       1.0  0.28678  0.19638  0.70321  1.0000
  C   C33       1.0  0.24429999999999996  0.4300999999999999  0.7198  1.0000
  C   C34       1.0  0.76515  0.61475  0.68448  1.0000
  C   C35       1.0  0.8262799999999998  0.65053  0.67414  1.0000
  C   C36       1.0  0.8596399999999998  0.63594  0.63839  1.0000
  C   C37       1.0  0.8339799999999998  0.58834  0.61285  1.0000
  C   C38       1.0  0.77245  0.55448  0.6245000000000002  1.0000
  C   C39       1.0  0.73707  0.56646  0.66017  1.0000
  C   C40       1.0  0.66462  0.6086  0.72664  1.0000
  C   C41       1.0  0.6518099999999999  0.55411  0.7520500000000001  1.0000
  C   C42       1.0  0.5798899999999999  0.53145  0.7580200000000002  1.0000
  C   C43       1.0  0.52405  0.56383  0.73773  1.0000
  C   C44       1.0  0.53648  0.61867  0.7128  1.0000
  C   C45       1.0  0.60807  0.64145  0.70713  1.0000
  C   C46       1.0  0.7109499999999999  0.52242  0.76981  1.0000
  C   C47       1.0  0.4521599999999999  0.54049  0.74121  1.0000
  C   C48       1.0  0.62334  0.69515  0.68159  1.0000
  C   C49       1.0  0.9422899999999998  0.67803  0.59077  1.0000
  C   C50       1.0  0.00968  0.65526  0.5789  1.0000
  C   C51       1.0  0.03482  0.66785  0.53935  1.0000
  C   C52       1.0  0.98945  0.70145  0.51229  1.0000
  C   C53       1.0  0.92131  0.72252  0.52349  1.0000
  C   C54       1.0  0.89665  0.71186  0.56336  1.0000
  C   C55       1.0  0.05166  0.61893  0.6067  1.0000
  C   C56       1.0  0.01327  0.71642  0.47282  1.0000
  C   C57       1.0  0.83142  0.73902  0.57546  1.0000
  C   C58       1.0  0.75592  0.50689  0.56114  1.0000
  C   C59       1.0  0.72659  0.5591  0.537  1.0000
  C   C60       1.0  0.7331499999999999  0.5554  0.49487  1.0000
  C   C61       1.0  0.7671199999999999  0.5020299999999999  0.47762  1.0000
  C   C62       1.0  0.798  0.45141999999999993  0.50152  1.0000
  C   C63       1.0  0.7923699999999998  0.45516  0.5435  1.0000
  C   C64       1.0  0.68689  0.60944  0.55405  1.0000
  C   C65       1.0  0.76886  0.49659  0.43548  1.0000
  C   C66       1.0  0.8253399999999997  0.40696000000000004  0.56832  1.0000
  C   C67       1.0  0.66932  0.09651  0.13676  1.0000
  C   C68       1.0  0.6874  0.05172  0.10772  1.0000
  C   C69       1.0  0.75089  0.01643  0.11341  1.0000
  C   C70       1.0  0.7954899999999998  0.02529  0.14608  1.0000
  C   C71       1.0  0.77471  0.07107  0.17405  1.0000
  C   C72       1.0  0.7114999999999998  0.10706  0.17016  1.0000
  C   C73       1.0  0.57742  0.15373  0.10023000000000003  1.0000
  C   C74       1.0  0.6198599999999999  0.18758  0.0713  1.0000
  C   C75       1.0  0.58476  0.21310000000000004  0.03616  1.0000
  C   C76       1.0  0.51061  0.20688  0.03191  1.0000
  C   C77       1.0  0.46797  0.17505  0.06104  1.0000
  C   C78       1.0  0.50288  0.14725  0.09531000000000003  1.0000
  C   C79       1.0  0.69199  0.20301  0.07827  1.0000
  C   C80       1.0  0.4765  0.23433000000000007  0.99751  1.0000
  C   C81       1.0  0.46291999999999994  0.11369  0.12485  1.0000
  C   C82       1.0  0.75252  0.9770999999999999  0.04766  1.0000
  C   C83       1.0  0.7859799999999998  0.02841  0.02477  1.0000
  C   C84       1.0  0.7705  0.03353999999999998  0.9834700000000001  1.0000
  C   C85       1.0  0.72355  0.9892399999999999  0.96594  1.0000
  C   C86       1.0  0.68901  0.9392399999999999  0.98874  1.0000
  C   C87       1.0  0.70406  0.93423  0.030130000000000004  1.0000
  C   C88       1.0  0.8362999999999999  0.06964  0.04251  1.0000
  C   C89       1.0  0.71292  0.9940499999999999  0.92413  1.0000
  C   C90       1.0  0.6689699999999997  0.88699  0.05499  1.0000
  C   C91       1.0  0.81135  0.13308999999999999  0.22879  1.0000
  C   C92       1.0  0.83836  0.19379  0.21384  1.0000
  C   C93       1.0  0.8295199999999999  0.25092  0.237  1.0000
  C   C94       1.0  0.79536  0.24587999999999996  0.27405  1.0000
  C   C95       1.0  0.76933  0.18567  0.28934  1.0000
  C   C96       1.0  0.7768599999999999  0.12872  0.26581  1.0000
  C   C97       1.0  0.8722499999999999  0.19655999999999998  0.17645  1.0000
  C   C98       1.0  0.7864499999999998  0.30331  0.29679  1.0000
  C   C99       1.0  0.7457699999999999  0.06944  0.27991  1.0000
  C   C100      1.0  0.26367  0.88514  0.31549  1.0000
  C   C101      1.0  0.32488  0.8494499999999999  0.3258  1.0000
  C   C102      1.0  0.35822  0.8639399999999999  0.3616  1.0000
  C   C103      1.0  0.3324499999999999  0.9113399999999999  0.38723  1.0000
  C   C104      1.0  0.27085999999999993  0.9451399999999999  0.3756  1.0000
  C   C105      1.0  0.23552999999999993  0.9332499999999999  0.33988  1.0000
  C   C106      1.0  0.16332  0.8916200000000001  0.27325  1.0000
  C   C107      1.0  0.15075  0.94615  0.24783  1.0000
  C   C108      1.0  0.0789  0.9690199999999999  0.24181  1.0000
  C   C109      1.0  0.02298  0.9367399999999999  0.26208  1.0000
  C   C110      1.0  0.035239999999999994  0.88188  0.28703  1.0000
  C   C111      1.0  0.10671999999999998  0.8588399999999999  0.29273  1.0000
  C   C112      1.0  0.21006  0.97761  0.23005  1.0000
  C   C113      1.0  0.9510699999999999  0.96005  0.25871  1.0000
  C   C114      1.0  0.12196999999999998  0.80511  0.31826  1.0000
  C   C115      1.0  0.44127  0.82208  0.40919  1.0000
  C   C116      1.0  0.50879  0.8448899999999999  0.42085  1.0000
  C   C117      1.0  0.5344799999999997  0.83237  0.4603  1.0000
  C   C118      1.0  0.48943  0.7987700000000001  0.48751  1.0000
  C   C119      1.0  0.4211999999999999  0.77755  0.47652  1.0000
  C   C120      1.0  0.39597  0.7880999999999999  0.43671  1.0000
  C   C121      1.0  0.55054  0.8810899999999999  0.39288  1.0000
  C   C122      1.0  0.51383  0.78393  0.52691  1.0000
  C   C123      1.0  0.33073999999999987  0.76079  0.42465000000000014  1.0000
  C   C124      1.0  0.25476  0.99277  0.4389  1.0000
  C   C125      1.0  0.22573  0.9406  0.46317  1.0000
  C   C126      1.0  0.23298  0.94437  0.50527  1.0000
  C   C127      1.0  0.26738  0.99771  0.52234  1.0000
  C   C128      1.0  0.29796999999999996  0.04828  0.4983  1.0000
  C   C129      1.0  0.29156  0.04448  0.45636  1.0000
  C   C130      1.0  0.18591  0.89022  0.44622  1.0000
  C   C131      1.0  0.2697  0.0032700000000000016  0.56445  1.0000
  C   C132      1.0  0.3241899999999999  0.0927  0.43144  1.0000
  C   C133      1.0  0.8327199999999999  0.59651  0.13663  1.0000
  C   C134      1.0  0.81444  0.55168  0.10767  1.0000
  C   C135      1.0  0.7509099999999999  0.51645  0.11339  1.0000
  C   C136      1.0  0.7064999999999999  0.52542  0.14611  1.0000
  C   C137      1.0  0.72768  0.57118  0.17404000000000003  1.0000
  C   C138      1.0  0.79077  0.60724  0.17001  1.0000
  C   C139      1.0  0.92396  0.654  0.10002  1.0000
  C   C140      1.0  0.88087  0.68778  0.07136  1.0000
  C   C141      1.0  0.91541  0.71359  0.03615  1.0000
  C   C142      1.0  0.98949  0.70775  0.03157  1.0000
  C   C143      1.0  0.03279  0.67606  0.06048  1.0000
  C   C144      1.0  0.9984399999999999  0.64795  0.09478  1.0000
  C   C145      1.0  0.8087199999999999  0.703  0.07846  1.0000
  C   C146      1.0  0.022859999999999995  0.73505  0.9969600000000001  1.0000
  C   C147      1.0  0.03861999999999999  0.61436  0.12418  1.0000
  C   C148      1.0  0.7488999999999998  0.4772  0.04764  1.0000
  C   C149      1.0  0.71504  0.5285  0.0249  1.0000
  C   C150      1.0  0.72994  0.53382  0.98357  1.0000
  C   C151      1.0  0.7767199999999997  0.48960999999999993  0.96587  1.0000
  C   C152      1.0  0.8116199999999998  0.43958  0.98849  1.0000
  C   C153      1.0  0.79722  0.43443  0.029940000000000005  1.0000
  C   C154      1.0  0.6648999999999998  0.56958  0.042850000000000006  1.0000
  C   C155      1.0  0.78678  0.49451999999999996  0.92403  1.0000
  C   C156      1.0  0.83267  0.38721  0.0547  1.0000
  C   C157      1.0  0.6909299999999998  0.63322  0.22880000000000006  1.0000
  C   C158      1.0  0.66322  0.69358  0.21366000000000002  1.0000
  C   C159      1.0  0.67103  0.75082  0.23687  1.0000
  C   C160      1.0  0.7047899999999998  0.7461099999999999  0.27407  1.0000
  C   C161      1.0  0.7311999999999999  0.68618  0.28959  1.0000
  C   C162      1.0  0.7246599999999999  0.62919  0.26606  1.0000
  C   C163      1.0  0.62938  0.6961499999999999  0.17625  1.0000
  C   C164      1.0  0.71317  0.80359  0.2968200000000001  1.0000
  C   C165      1.0  0.7556599999999999  0.56986  0.28016  1.0000
  C   C166      1.0  0.23473999999999998  0.3854899999999999  0.31551  1.0000
  C   C167      1.0  0.17336  0.34998  0.32573  1.0000
  C   C168      1.0  0.13999  0.36457  0.36147  1.0000
  C   C169      1.0  0.16561  0.41213999999999995  0.38702  1.0000
  C   C170      1.0  0.2274  0.4457499999999999  0.37551  1.0000
  C   C171      1.0  0.2629899999999999  0.43358  0.33992000000000006  1.0000
  C   C172      1.0  0.33532999999999996  0.39145  0.27339  1.0000
  C   C173      1.0  0.34813  0.4459099999999999  0.24797000000000002  1.0000
  C   C174      1.0  0.42005  0.46853999999999996  0.24195999999999998  1.0000
  C   C175      1.0  0.47590999999999994  0.43614  0.26223  1.0000
  C   C176      1.0  0.46347999999999995  0.38132  0.28717  1.0000
  C   C177      1.0  0.39188  0.35858  0.29288  1.0000
  C   C178      1.0  0.28893999999999986  0.47756  0.23022  1.0000
  C   C179      1.0  0.5477799999999999  0.45947999999999994  0.25872  1.0000
  C   C180      1.0  0.37665  0.30488  0.3184  1.0000
  C   C181      1.0  0.05763  0.32233  0.40924  1.0000
  C   C182      1.0  0.99023  0.34497  0.42121  1.0000
  C   C183      1.0  0.96497  0.33217  0.46071  1.0000
  C   C184      1.0  0.01048  0.2985499999999999  0.48768000000000006  1.0000
  C   C185      1.0  0.07867999999999999  0.2777299999999999  0.47642  1.0000
  C   C186      1.0  0.10342999999999997  0.28851  0.43657  1.0000
  C   C187      1.0  0.9481399999999999  0.3813599999999999  0.3935  1.0000
  C   C188      1.0  0.98683  0.28346  0.52718  1.0000
  C   C189      1.0  0.16854  0.26133  0.42426  1.0000
  C   C190      1.0  0.24409  0.49321999999999994  0.43891  1.0000
  C   C191      1.0  0.27338  0.441  0.46303  1.0000
  C   C192      1.0  0.26683999999999997  0.4447  0.50517  1.0000
  C   C193      1.0  0.23285999999999998  0.49806999999999996  0.52242  1.0000
  C   C194      1.0  0.20198  0.54872  0.49854  1.0000
  C   C195      1.0  0.20763  0.54496  0.45656  1.0000
  C   C196      1.0  0.31306  0.39066999999999996  0.44597  1.0000
  C   C197      1.0  0.23093  0.50343  0.56455  1.0000
  C   C198      1.0  0.17469999999999994  0.59314  0.43171000000000004  1.0000
  C   C199      1.0  0.3306999999999999  0.90345  0.86325  1.0000
  C   C200      1.0  0.31261999999999995  0.9482499999999999  0.8922900000000001  1.0000
  C   C201      1.0  0.24913999999999997  0.98353  0.88659  1.0000
  C   C202      1.0  0.20453999999999994  0.97466  0.85393  1.0000
  C   C203      1.0  0.22536  0.92892  0.82594  1.0000
  C   C204      1.0  0.28854999999999986  0.8929299999999999  0.82985  1.0000
  C   C205      1.0  0.42258  0.84623  0.8997700000000002  1.0000
  C   C206      1.0  0.38012999999999997  0.81241  0.9287100000000003  1.0000
  C   C207      1.0  0.41522  0.78685  0.9638400000000001  1.0000
  C   C208      1.0  0.48936999999999997  0.79305  0.9680900000000001  1.0000
  C   C209      1.0  0.53202  0.8249299999999999  0.93897  1.0000
  C   C210      1.0  0.49710999999999994  0.85273  0.9047000000000001  1.0000
  C   C211      1.0  0.30801  0.7969499999999999  0.92173  1.0000
  C   C212      1.0  0.5234799999999998  0.76558  0.00249  1.0000
  C   C213      1.0  0.53707  0.8863500000000001  0.87518  1.0000
  C   C214      1.0  0.24755999999999997  0.02287  0.95234  1.0000
  C   C215      1.0  0.21411999999999998  0.97156  0.9752599999999999  1.0000
  C   C216      1.0  0.22958  0.9665199999999999  0.01655  1.0000
  C   C217      1.0  0.27646  0.0109  0.03406  1.0000
  C   C218      1.0  0.311  0.06088  0.01125  1.0000
  C   C219      1.0  0.29601  0.06579999999999998  0.9698500000000001  1.0000
  C   C220      1.0  0.16382  0.9303199999999999  0.95753  1.0000
  C   C221      1.0  0.28708  0.006159999999999998  0.07587  1.0000
  C   C222      1.0  0.33111  0.11301999999999998  0.9449600000000002  1.0000
  C   C223      1.0  0.18875999999999998  0.8668899999999999  0.77122  1.0000
  C   C224      1.0  0.16172  0.8062099999999999  0.78619  1.0000
  C   C225      1.0  0.17048999999999997  0.74908  0.76302  1.0000
  C   C226      1.0  0.20457999999999996  0.75412  0.72596  1.0000
  C   C227      1.0  0.23069999999999993  0.8142899999999998  0.71066  1.0000
  C   C228      1.0  0.22322999999999998  0.87124  0.73419  1.0000
  C   C229      1.0  0.12780999999999998  0.80347  0.82357  1.0000
  C   C230      1.0  0.21343999999999996  0.69669  0.70321  1.0000
  C   C231      1.0  0.25432  0.9304999999999999  0.72008  1.0000
  C   C232      1.0  0.73632  0.11484999999999998  0.68452  1.0000
  C   C233      1.0  0.6750999999999999  0.15053  0.67421  1.0000
  C   C234      1.0  0.6417699999999997  0.13605  0.6384  1.0000
  C   C235      1.0  0.6675399999999999  0.08866000000000002  0.61277  1.0000
  C   C236      1.0  0.72914  0.05488  0.6244  1.0000
  C   C237      1.0  0.7644699999999999  0.06676  0.66011  1.0000
  C   C238      1.0  0.8366899999999999  0.10838  0.7267500000000002  1.0000
  C   C239      1.0  0.8492699999999997  0.05386  0.75217  1.0000
  C   C240      1.0  0.9211199999999999  0.030950000000000002  0.75818  1.0000
  C   C241      1.0  0.97702  0.06321999999999998  0.73789  1.0000
  C   C242      1.0  0.9647599999999998  0.11809  0.71295  1.0000
  C   C243      1.0  0.89329  0.14114000000000002  0.70725  1.0000
  C   C244      1.0  0.78998  0.02242  0.76997  1.0000
  C   C245      1.0  0.04893  0.0399  0.74124  1.0000
  C   C246      1.0  0.87804  0.19487  0.68172  1.0000
  C   C247      1.0  0.55873  0.17790000000000003  0.59081  1.0000
  C   C248      1.0  0.49123  0.15506  0.57914  1.0000
  C   C249      1.0  0.46556  0.16761  0.53968  1.0000
  C   C250      1.0  0.51062  0.20124999999999998  0.51249  1.0000
  C   C251      1.0  0.57885  0.22244999999999998  0.52349  1.0000
  C   C252      1.0  0.6040399999999999  0.21188  0.5633  1.0000
  C   C253      1.0  0.44946  0.11884999999999997  0.60709  1.0000
  C   C254      1.0  0.48619  0.21611  0.47309  1.0000
  C   C255      1.0  0.6692499999999999  0.23921  0.57538  1.0000
  C   C256      1.0  0.7452399999999998  0.0072399999999999964  0.5611  1.0000
  C   C257      1.0  0.77428  0.05938  0.53682  1.0000
  C   C258      1.0  0.7670399999999998  0.0556  0.49471999999999994  1.0000
  C   C259      1.0  0.73265  0.00225  0.47765  1.0000
  C   C260      1.0  0.70204  0.9516999999999999  0.50171  1.0000
  C   C261      1.0  0.7083899999999997  0.95555  0.54365  1.0000
  C   C262      1.0  0.81409  0.10978  0.55376  1.0000
  C   C263      1.0  0.73029  0.99668  0.43555000000000005  1.0000
  C   C264      1.0  0.67555  0.90746  0.5686  1.0000
  N   N1        1.0  0.24965999999999997  0.27708  0.91601  1.0000
  N   N2        1.0  0.94791  0.24298999999999998  0.03099  1.0000
  N   N3        1.0  0.92499  0.41213999999999995  0.85196  1.0000
  N   N4        1.0  0.3782699999999999  0.39674  0.94227  1.0000
  N   N5        1.0  0.20669999999999997  0.50231  0.11065  1.0000
  N   N6        1.0  0.13674999999999998  0.6504  0.92475  1.0000
  N   N7        1.0  0.39991  0.30124  0.85477  1.0000
  N   N8        1.0  0.27910999999999997  0.14945  0.68439  1.0000
  N   N9        1.0  0.21509999999999999  0.47565  0.70568  1.0000
  N   N10       1.0  0.7602799999999997  0.4954  0.7842900000000003  1.0000
  N   N11       1.0  0.3927599999999999  0.52237  0.74247  1.0000
  N   N12       1.0  0.63527  0.74015  0.66026  1.0000
  N   N13       1.0  0.08733999999999997  0.58791  0.62872  1.0000
  N   N14       1.0  0.03216  0.72998  0.44046  1.0000
  N   N15       1.0  0.77875  0.7668199999999997  0.58451  1.0000
  N   N16       1.0  0.65007  0.65008  0.5678  1.0000
  N   N17       1.0  0.76972  0.4894  0.4009900000000001  1.0000
  N   N18       1.0  0.8548799999999998  0.36702  0.58768  1.0000
  N   N19       1.0  0.75035  0.22285999999999997  0.08388  1.0000
  N   N20       1.0  0.44682999999999995  0.25645  0.96973  1.0000
  N   N21       1.0  0.42644  0.08724  0.14866  1.0000
  N   N22       1.0  0.87964  0.10332  0.05734  1.0000
  N   N23       1.0  0.70568  0.99751  0.88952  1.0000
  N   N24       1.0  0.63851  0.8493399999999999  0.07555  1.0000
  N   N25       1.0  0.90134  0.19887999999999997  0.14536  1.0000
  N   N26       1.0  0.77839  0.35021  0.31558  1.0000
  N   N27       1.0  0.71613  0.02424  0.29416  1.0000
  N   N28       1.0  0.2595  0.004359999999999999  0.21551  1.0000
  N   N29       1.0  0.8915299999999999  0.97779  0.25769  1.0000
  N   N30       1.0  0.13408  0.76014  0.33959  1.0000
  N   N31       1.0  0.58603  0.9119199999999998  0.37069  1.0000
  N   N32       1.0  0.5336099999999999  0.77046  0.55913  1.0000
  N   N33       1.0  0.27813  0.73296  0.4154600000000001  1.0000
  N   N34       1.0  0.149  0.84961  0.43245  1.0000
  N   N35       1.0  0.27114  0.010709999999999999  0.59891  1.0000
  N   N36       1.0  0.3534099999999999  0.13278  0.41204  1.0000
  N   N37       1.0  0.75033  0.72288  0.08391  1.0000
  N   N38       1.0  0.05210999999999998  0.75689  0.96897  1.0000
  N   N39       1.0  0.07489  0.58778  0.14804  1.0000
  N   N40       1.0  0.6216699999999997  0.6032  0.057770000000000016  1.0000
  N   N41       1.0  0.79356  0.49822999999999995  0.88939  1.0000
  N   N42       1.0  0.86323  0.34953  0.07521  1.0000
  N   N43       1.0  0.6000799999999998  0.69876  0.14522  1.0000
  N   N44       1.0  0.7209  0.8505  0.31565  1.0000
  N   N45       1.0  0.7848799999999999  0.52426  0.29421  1.0000
  N   N46       1.0  0.23953999999999995  0.50452  0.21577000000000005  1.0000
  N   N47       1.0  0.6071699999999998  0.4776099999999999  0.2574  1.0000
  N   N48       1.0  0.3647899999999999  0.25984  0.33971  1.0000
  N   N49       1.0  0.91247  0.41240999999999994  0.37151  1.0000
  N   N50       1.0  0.96781  0.26986  0.5595  1.0000
  N   N51       1.0  0.22101999999999997  0.23352999999999996  0.41488  1.0000
  N   N52       1.0  0.34996  0.35006  0.43225  1.0000
  N   N53       1.0  0.22974  0.51054  0.59905  1.0000
  N   N54       1.0  0.14524999999999993  0.63302  0.41225  1.0000
  N   N55       1.0  0.2497  0.7770500000000001  0.91603  1.0000
  N   N56       1.0  0.55313  0.74352  0.030300000000000004  1.0000
  N   N57       1.0  0.57359  0.9128599999999999  0.85141  1.0000
  N   N58       1.0  0.12043  0.89664  0.94275  1.0000
  N   N59       1.0  0.29434999999999995  0.0026899999999999997  0.11049  1.0000
  N   N60       1.0  0.36154  0.15068  0.9243900000000003  1.0000
  N   N61       1.0  0.09864  0.8011299999999998  0.85463  1.0000
  N   N62       1.0  0.2215  0.64978  0.68442  1.0000
  N   N63       1.0  0.28393  0.9757  0.7058  1.0000
  N   N64       1.0  0.7405599999999998  0.9956599999999999  0.78452  1.0000
  N   N65       1.0  0.10847  0.02214  0.74227  1.0000
  N   N66       1.0  0.8659599999999998  0.23985  0.66039  1.0000
  N   N67       1.0  0.41394  0.08800000000000001  0.62927  1.0000
  N   N68       1.0  0.46638999999999997  0.22959  0.44088  1.0000
  N   N69       1.0  0.7218399999999999  0.26704  0.58458  1.0000
  N   N70       1.0  0.8509699999999998  0.15042  0.5675100000000001  1.0000
  N   N71       1.0  0.7288099999999997  0.9892699999999999  0.40109000000000006  1.0000
  N   N72       1.0  0.64614  0.86753  0.58801  1.0000
  O   O1        1.0  0.10184999999999998  0.37008  0.86457  1.0000
  O   O2        1.0  0.26894  0.53253  0.91296  1.0000
  O   O3        1.0  0.31662999999999997  0.42239  0.79297  1.0000
  O   O4        1.0  0.73419  0.62955  0.72114  1.0000
  O   O5        1.0  0.92357  0.6691799999999999  0.63007  1.0000
  O   O6        1.0  0.7454599999999999  0.50369  0.60167  1.0000
  O   O7        1.0  0.60391  0.13005  0.13557  1.0000
  O   O8        1.0  0.77077  0.96755  0.08702000000000001  1.0000
  O   O9        1.0  0.81999  0.07799  0.2066  1.0000
  O   O10       1.0  0.23274999999999998  0.87043  0.2788  1.0000
  O   O11       1.0  0.42218  0.83082  0.36991  1.0000
  O   O12       1.0  0.2437  0.99591  0.39841  1.0000
  O   O13       1.0  0.8981999999999999  0.62988  0.13542  1.0000
  O   O14       1.0  0.7310599999999998  0.46749  0.08704  1.0000
  O   O15       1.0  0.68339  0.57765  0.207  1.0000
  O   O16       1.0  0.26576  0.37052  0.27889  1.0000
  O   O17       1.0  0.07626  0.33108  0.36991  1.0000
  O   O18       1.0  0.25455  0.49642  0.39839  1.0000
  O   O19       1.0  0.3961099999999999  0.86992  0.86443  1.0000
  O   O20       1.0  0.22926999999999997  0.032420000000000004  0.91297  1.0000
  O   O21       1.0  0.18018999999999996  0.92204  0.79336  1.0000
  O   O22       1.0  0.76726  0.12956  0.72121  1.0000
  O   O23       1.0  0.57782  0.16917000000000001  0.63008  1.0000
  O   O24       1.0  0.75631  0.0041299999999999965  0.60159  1.0000
