data_image0
_chemical_formula_structural       Zn12Si8H128C224O64
_chemical_formula_sum              "Zn12 Si8 H128 C224 O64"
_cell_length_a       14.25262
_cell_length_b       23.53637
_cell_length_c       23.89985
_cell_angle_alpha    90.0
_cell_angle_beta     89.99817
_cell_angle_gamma    90.0

_symmetry_space_group_name_H-M    'P 1'
_symmetry_Int_Tables_number       1

loop_
  _symmetry_equiv_pos_as_xyz
  'x,y,z'

loop_
  _atom_site_type_symbol
  _atom_site_label
  _atom_site_symmetry_multiplicity
  _atom_site_fract_x
  _atom_site_fract_y
  _atom_site_fract_z
  _atom_site_occupancy
  Zn  Zn1       1.0  0.4383  0.14131  0.9874899999999998  1.0000
  Zn  Zn2       1.0  0.06196  0.35868  0.9874899999999998  1.0000
  Zn  Zn3       1.0  0.06122  0.14135  0.51254  1.0000
  Zn  Zn4       1.0  0.43856  0.35865  0.51255  1.0000
  Zn  Zn5       1.0  0.56114  0.85864  0.01253  1.0000
  Zn  Zn6       1.0  0.93861  0.64136  0.012539999999999999  1.0000
  Zn  Zn7       1.0  0.93819  0.85868  0.4875  1.0000
  Zn  Zn8       1.0  0.56203  0.64132  0.4874899999999999  1.0000
  Zn  Zn9       1.0  0.00202  0.50083  0.00069  1.0000
  Zn  Zn10      1.0  0.49793  0.9991099999999999  0.9998699999999999  1.0000
  Zn  Zn11      1.0  0.50201  0.49918  0.50074  1.0000
  Zn  Zn12      1.0  0.9980299999999999  0.00081  0.50074  1.0000
  Si  Si1       1.0  0.43839  0.48664  0.86098  1.0000
  Si  Si2       1.0  0.06163999999999999  0.01336  0.8609699999999998  1.0000
  Si  Si3       1.0  0.06238  0.48659  0.6394  1.0000
  Si  Si4       1.0  0.43760999999999994  0.013409999999999998  0.63929  1.0000
  Si  Si5       1.0  0.56238  0.51341  0.1394  1.0000
  Si  Si6       1.0  0.93767  0.9866  0.1394  1.0000
  Si  Si7       1.0  0.9384  0.51336  0.36096999999999996  1.0000
  Si  Si8       1.0  0.5615699999999999  0.98664  0.36088  1.0000
  H   H1        1.0  0.2819  0.40923  0.89586  1.0000
  H   H2        1.0  0.27755  0.31161  0.9351199999999998  1.0000
  H   H3        1.0  0.5788099999999999  0.31025  0.9458  1.0000
  H   H4        1.0  0.58432  0.40819  0.9074699999999999  1.0000
  H   H5        1.0  0.63167  0.4644999999999999  0.82273  1.0000
  H   H6        1.0  0.7879999999999998  0.48798  0.86298  1.0000
  H   H7        1.0  0.65816  0.60811  0.97438  1.0000
  H   H8        1.0  0.50097  0.5806899999999999  0.93895  1.0000
  H   H9        1.0  0.29178  0.5596199999999999  0.80457  1.0000
  H   H10       1.0  0.15094  0.61071  0.84083  1.0000
  H   H11       1.0  0.21713  0.55613  0.00802  1.0000
  H   H12       1.0  0.35877  0.50652  0.97306  1.0000
  H   H13       1.0  0.35728  0.394  0.7912999999999998  1.0000
  H   H14       1.0  0.35396  0.37498  0.68877  1.0000
  H   H15       1.0  0.49869999999999987  0.53194  0.65802  1.0000
  H   H16       1.0  0.50542  0.55104  0.76061  1.0000
  H   H17       1.0  0.21812  0.09077  0.89586  1.0000
  H   H18       1.0  0.22247  0.18836999999999998  0.9351199999999998  1.0000
  H   H19       1.0  0.92119  0.18973999999999996  0.9458  1.0000
  H   H20       1.0  0.91569  0.0918  0.90746  1.0000
  H   H21       1.0  0.86834  0.03549  0.8227399999999999  1.0000
  H   H22       1.0  0.7120199999999999  0.01197  0.8629899999999998  1.0000
  H   H23       1.0  0.8418899999999999  0.8918299999999998  0.97435  1.0000
  H   H24       1.0  0.9990999999999999  0.91928  0.9389299999999998  1.0000
  H   H25       1.0  0.20823  0.94037  0.80454  1.0000
  H   H26       1.0  0.34906  0.88924  0.8408199999999998  1.0000
  H   H27       1.0  0.28289  0.94385  0.007999999999999998  1.0000
  H   H28       1.0  0.14126  0.99349  0.9730499999999999  1.0000
  H   H29       1.0  0.14274  0.106  0.7912999999999998  1.0000
  H   H30       1.0  0.14606  0.12501  0.6887599999999998  1.0000
  H   H31       1.0  0.00132  0.96805  0.65802  1.0000
  H   H32       1.0  0.9945999999999998  0.94895  0.76061  1.0000
  H   H33       1.0  0.21836  0.40913  0.60425  1.0000
  H   H34       1.0  0.22239999999999993  0.31159  0.56484  1.0000
  H   H35       1.0  0.92114  0.3105  0.55422  1.0000
  H   H36       1.0  0.91591  0.40844  0.59269  1.0000
  H   H37       1.0  0.86926  0.46479  0.6773999999999998  1.0000
  H   H38       1.0  0.71324  0.48878  0.63697  1.0000
  H   H39       1.0  0.84403  0.60881  0.52586  1.0000
  H   H40       1.0  0.00118  0.58086  0.56144  1.0000
  H   H41       1.0  0.20889  0.55954  0.6954899999999999  1.0000
  H   H42       1.0  0.34979  0.61051  0.6591  1.0000
  H   H43       1.0  0.28381  0.55544  0.4920299999999999  1.0000
  H   H44       1.0  0.14191  0.50602  0.52711  1.0000
  H   H45       1.0  0.14249  0.39391  0.70916  1.0000
  H   H46       1.0  0.14639  0.37509  0.8116799999999998  1.0000
  H   H47       1.0  0.00204  0.53216  0.84256  1.0000
  H   H48       1.0  0.99441  0.5509499999999999  0.7399499999999999  1.0000
  H   H49       1.0  0.28163999999999995  0.09086  0.60419  1.0000
  H   H50       1.0  0.27757  0.18842  0.56484  1.0000
  H   H51       1.0  0.57885  0.18953  0.55423  1.0000
  H   H52       1.0  0.5840699999999999  0.09156999999999997  0.59265  1.0000
  H   H53       1.0  0.6307  0.03522  0.67738  1.0000
  H   H54       1.0  0.78675  0.01123  0.63698  1.0000
  H   H55       1.0  0.65603  0.89118  0.52586  1.0000
  H   H56       1.0  0.49884999999999996  0.9191299999999999  0.5614099999999999  1.0000
  H   H57       1.0  0.29114  0.94045  0.69545  1.0000
  H   H58       1.0  0.15022  0.8894799999999999  0.6590799999999999  1.0000
  H   H59       1.0  0.21614  0.9445599999999997  0.49199999999999994  1.0000
  H   H60       1.0  0.35809  0.99397  0.52706  1.0000
  H   H61       1.0  0.35744  0.10612999999999999  0.7089099999999998  1.0000
  H   H62       1.0  0.35359  0.12505  0.8114699999999999  1.0000
  H   H63       1.0  0.4978899999999999  0.968  0.84244  1.0000
  H   H64       1.0  0.50554  0.94908  0.73984  1.0000
  H   H65       1.0  0.7183399999999999  0.59087  0.10424999999999997  1.0000
  H   H66       1.0  0.72237  0.6884  0.06484  1.0000
  H   H67       1.0  0.42113  0.68949  0.05422  1.0000
  H   H68       1.0  0.41590999999999995  0.59155  0.0927  1.0000
  H   H69       1.0  0.36926  0.53521  0.17740999999999996  1.0000
  H   H70       1.0  0.21325  0.51122  0.13698  1.0000
  H   H71       1.0  0.34402  0.3912  0.025869999999999997  1.0000
  H   H72       1.0  0.50116  0.41914  0.06143999999999999  1.0000
  H   H73       1.0  0.70889  0.4404499999999999  0.19547999999999996  1.0000
  H   H74       1.0  0.84977  0.38948999999999995  0.15909  1.0000
  H   H75       1.0  0.7838099999999999  0.44455  0.99204  1.0000
  H   H76       1.0  0.64191  0.49398  0.02712  1.0000
  H   H77       1.0  0.6424799999999998  0.60608  0.20917  1.0000
  H   H78       1.0  0.64638  0.6249  0.31169  1.0000
  H   H79       1.0  0.50203  0.46781999999999996  0.34257  1.0000
  H   H80       1.0  0.4944099999999999  0.4490399999999999  0.23995  1.0000
  H   H81       1.0  0.7816699999999999  0.90915  0.10422999999999999  1.0000
  H   H82       1.0  0.7775999999999998  0.81162  0.06484  1.0000
  H   H83       1.0  0.07886  0.8105  0.05422  1.0000
  H   H84       1.0  0.08411  0.9084399999999999  0.09269  1.0000
  H   H85       1.0  0.13082  0.9647599999999998  0.17740999999999996  1.0000
  H   H86       1.0  0.28683999999999993  0.98873  0.13698  1.0000
  H   H87       1.0  0.15608999999999998  0.10874999999999997  0.025849999999999995  1.0000
  H   H88       1.0  0.99894  0.08085  0.06141  1.0000
  H   H89       1.0  0.79113  0.05955999999999999  0.19544  1.0000
  H   H90       1.0  0.6501999999999998  0.11049  0.15906  1.0000
  H   H91       1.0  0.71622  0.05539999999999999  0.9919999999999998  1.0000
  H   H92       1.0  0.85817  0.00603  0.0271  1.0000
  H   H93       1.0  0.8575499999999998  0.8939199999999999  0.20917  1.0000
  H   H94       1.0  0.85363  0.8750999999999999  0.31168  1.0000
  H   H95       1.0  0.99799  0.03218  0.34257  1.0000
  H   H96       1.0  0.00563  0.05097  0.23995999999999995  1.0000
  H   H97       1.0  0.7818899999999999  0.5907699999999999  0.39586  1.0000
  H   H98       1.0  0.77755  0.68838  0.43512  1.0000
  H   H99       1.0  0.07881  0.6897499999999999  0.4457999999999999  1.0000
  H   H100      1.0  0.08432  0.5918099999999998  0.40747  1.0000
  H   H101      1.0  0.13168  0.5355  0.32272  1.0000
  H   H102      1.0  0.28801  0.51203  0.36298  1.0000
  H   H103      1.0  0.15816  0.39189  0.47438999999999987  1.0000
  H   H104      1.0  0.00096  0.41930999999999996  0.4389499999999999  1.0000
  H   H105      1.0  0.79177  0.44038  0.30456  1.0000
  H   H106      1.0  0.65093  0.38928  0.34083  1.0000
  H   H107      1.0  0.71714  0.44387999999999994  0.50803  1.0000
  H   H108      1.0  0.85879  0.49348  0.47306  1.0000
  H   H109      1.0  0.85729  0.60599  0.29129  1.0000
  H   H110      1.0  0.85397  0.62501  0.18877  1.0000
  H   H111      1.0  0.99871  0.4680499999999999  0.15801999999999997  1.0000
  H   H112      1.0  0.00542  0.44896  0.26061  1.0000
  H   H113      1.0  0.7181  0.9092399999999999  0.3958099999999999  1.0000
  H   H114      1.0  0.72247  0.8116599999999998  0.43512  1.0000
  H   H115      1.0  0.42119  0.8102699999999999  0.44581  1.0000
  H   H116      1.0  0.41567  0.90819  0.40741999999999995  1.0000
  H   H117      1.0  0.36824  0.9644699999999998  0.32272  1.0000
  H   H118      1.0  0.21194  0.98796  0.363  1.0000
  H   H119      1.0  0.34180999999999995  0.10809  0.47437999999999997  1.0000
  H   H120      1.0  0.4990199999999999  0.08067  0.43894  1.0000
  H   H121      1.0  0.70824  0.05963  0.30453  1.0000
  H   H122      1.0  0.8490899999999998  0.11073  0.34083  1.0000
  H   H123      1.0  0.78281  0.05609999999999999  0.50801  1.0000
  H   H124      1.0  0.64116  0.006499999999999999  0.47301999999999994  1.0000
  H   H125      1.0  0.64264  0.89407  0.29109999999999997  1.0000
  H   H126      1.0  0.64603  0.87511  0.18859999999999993  1.0000
  H   H127      1.0  0.50123  0.03211  0.15790999999999997  1.0000
  H   H128      1.0  0.49454  0.05109  0.26053  1.0000
  C   C1        1.0  0.43388  0.41558  0.8971999999999998  1.0000
  C   C2        1.0  0.34751  0.3878  0.90594  1.0000
  C   C3        1.0  0.34418  0.33292999999999995  0.92794  1.0000
  C   C4        1.0  0.42790999999999996  0.30478  0.94167  1.0000
  C   C5        1.0  0.51444  0.33232999999999996  0.93458  1.0000
  C   C6        1.0  0.5169  0.38721  0.91277  1.0000
  C   C7        1.0  0.4258299999999999  0.24546  0.96208  1.0000
  C   C8        1.0  0.55434  0.51936  0.8791799999999999  1.0000
  C   C9        1.0  0.63688  0.49520999999999993  0.85671  1.0000
  C   C10       1.0  0.72484  0.50853  0.87862  1.0000
  C   C11       1.0  0.73213  0.54845  0.92199  1.0000
  C   C12       1.0  0.6513599999999999  0.5760399999999999  0.9418799999999999  1.0000
  C   C13       1.0  0.56325  0.56068  0.9213899999999998  1.0000
  C   C14       1.0  0.8251  0.5601499999999999  0.9489499999999997  1.0000
  C   C15       1.0  0.3360299999999999  0.52965  0.88617  1.0000
  C   C16       1.0  0.2767  0.55965  0.84926  1.0000
  C   C17       1.0  0.19771  0.5881099999999999  0.86907  1.0000
  C   C18       1.0  0.17532  0.58582  0.9262799999999998  1.0000
  C   C19       1.0  0.23530999999999994  0.55767  0.9638799999999998  1.0000
  C   C20       1.0  0.31453999999999993  0.52982  0.94381  1.0000
  C   C21       1.0  0.08593  0.6111099999999999  0.9464799999999999  1.0000
  C   C22       1.0  0.4309  0.4741399999999999  0.78352  1.0000
  C   C23       1.0  0.38756  0.42471999999999993  0.76243  1.0000
  C   C24       1.0  0.38513  0.41377  0.7051599999999999  1.0000
  C   C25       1.0  0.42546  0.45255999999999996  0.66767  1.0000
  C   C26       1.0  0.46748  0.50253  0.6878199999999999  1.0000
  C   C27       1.0  0.47058  0.5129  0.7452299999999997  1.0000
  C   C28       1.0  0.42758999999999997  0.4399699999999999  0.6065  1.0000
  C   C29       1.0  0.06613  0.08442  0.8971899999999999  1.0000
  C   C30       1.0  0.15249999999999997  0.11218999999999997  0.90594  1.0000
  C   C31       1.0  0.15582  0.16706999999999997  0.9279499999999998  1.0000
  C   C32       1.0  0.0721  0.19523  0.9416799999999999  1.0000
  C   C33       1.0  0.98557  0.16767  0.9345899999999999  1.0000
  C   C34       1.0  0.98311  0.11279  0.91276  1.0000
  C   C35       1.0  0.07418  0.25454  0.9620699999999998  1.0000
  C   C36       1.0  0.9457  0.98062  0.87916  1.0000
  C   C37       1.0  0.86314  0.00475  0.85671  1.0000
  C   C38       1.0  0.77519  0.9914  0.87862  1.0000
  C   C39       1.0  0.76793  0.95146  0.9219699999999998  1.0000
  C   C40       1.0  0.84871  0.9238899999999999  0.94185  1.0000
  C   C41       1.0  0.93681  0.93928  0.9213599999999998  1.0000
  C   C42       1.0  0.67496  0.9397199999999998  0.94893  1.0000
  C   C43       1.0  0.16399  0.97035  0.8861599999999997  1.0000
  C   C44       1.0  0.22329  0.9403299999999998  0.84923  1.0000
  C   C45       1.0  0.30226  0.9118499999999998  0.86904  1.0000
  C   C46       1.0  0.32462  0.9141299999999999  0.9262499999999998  1.0000
  C   C47       1.0  0.26468  0.94231  0.96386  1.0000
  C   C48       1.0  0.18547  0.9701799999999999  0.9437999999999998  1.0000
  C   C49       1.0  0.41402  0.8888499999999998  0.9464299999999998  1.0000
  C   C50       1.0  0.06912  0.02586  0.78351  1.0000
  C   C51       1.0  0.11244  0.07528  0.76243  1.0000
  C   C52       1.0  0.11486  0.08624  0.7051599999999999  1.0000
  C   C53       1.0  0.07454  0.04743999999999999  0.6676599999999999  1.0000
  C   C54       1.0  0.03252  0.99748  0.6878199999999999  1.0000
  C   C55       1.0  0.029419999999999998  0.9870899999999999  0.7452299999999997  1.0000
  C   C56       1.0  0.07243  0.06001999999999999  0.6065  1.0000
  C   C57       1.0  0.06636  0.41557  0.6030999999999999  1.0000
  C   C58       1.0  0.15266  0.38778  0.59423  1.0000
  C   C59       1.0  0.15584  0.33296  0.57209  1.0000
  C   C60       1.0  0.07208  0.30489  0.55835  1.0000
  C   C61       1.0  0.98557  0.3325  0.5654799999999999  1.0000
  C   C62       1.0  0.98326  0.3873499999999999  0.58742  1.0000
  C   C63       1.0  0.07436  0.24556999999999998  0.5379  1.0000
  C   C64       1.0  0.947  0.51966  0.62107  1.0000
  C   C65       1.0  0.86435  0.49565999999999993  0.64353  1.0000
  C   C66       1.0  0.77661  0.5093299999999998  0.62163  1.0000
  C   C67       1.0  0.76981  0.54942  0.57837  1.0000
  C   C68       1.0  0.85066  0.57683  0.55848  1.0000
  C   C69       1.0  0.93861  0.5611  0.57894  1.0000
  C   C70       1.0  0.67702  0.56067  0.5511899999999998  1.0000
  C   C71       1.0  0.16476  0.5293499999999999  0.61397  1.0000
  C   C72       1.0  0.22402999999999995  0.55944  0.65081  1.0000
  C   C73       1.0  0.30306  0.5877899999999999  0.6309199999999999  1.0000
  C   C74       1.0  0.32548  0.58532  0.57373  1.0000
  C   C75       1.0  0.26556  0.55704  0.53617  1.0000
  C   C76       1.0  0.18622999999999995  0.52933  0.55631  1.0000
  C   C77       1.0  0.4147  0.6107899999999999  0.55351  1.0000
  C   C78       1.0  0.06932  0.4741799999999999  0.7169599999999999  1.0000
  C   C79       1.0  0.11253  0.42473  0.73806  1.0000
  C   C80       1.0  0.11532  0.41393  0.79536  1.0000
  C   C81       1.0  0.07552  0.45287  0.83298  1.0000
  C   C82       1.0  0.03321  0.50272  0.8127599999999998  1.0000
  C   C83       1.0  0.02961  0.51292  0.7552999999999999  1.0000
  C   C84       1.0  0.07424  0.44020999999999993  0.89419  1.0000
  C   C85       1.0  0.43363  0.08442  0.60302  1.0000
  C   C86       1.0  0.3473299999999999  0.11221999999999997  0.59417  1.0000
  C   C87       1.0  0.34414  0.16705  0.5720699999999999  1.0000
  C   C88       1.0  0.42790999999999996  0.19514  0.55833  1.0000
  C   C89       1.0  0.51441  0.16752  0.56546  1.0000
  C   C90       1.0  0.51673  0.11266  0.58737  1.0000
  C   C91       1.0  0.42568  0.25447  0.53791  1.0000
  C   C92       1.0  0.553  0.98033  0.62104  1.0000
  C   C93       1.0  0.63563  0.00434  0.64352  1.0000
  C   C94       1.0  0.7233899999999998  0.99067  0.6216399999999999  1.0000
  C   C95       1.0  0.73021  0.95057  0.5783799999999999  1.0000
  C   C96       1.0  0.64937  0.9231499999999998  0.55848  1.0000
  C   C97       1.0  0.56141  0.93888  0.57893  1.0000
  C   C98       1.0  0.823  0.93931  0.55118  1.0000
  C   C99       1.0  0.33526  0.97062  0.6139099999999998  1.0000
  C   C100      1.0  0.276  0.9405399999999998  0.65077  1.0000
  C   C101      1.0  0.19696  0.9122  0.6309  1.0000
  C   C102      1.0  0.17453  0.91468  0.57371  1.0000
  C   C103      1.0  0.23442  0.94295  0.53614  1.0000
  C   C104      1.0  0.31377  0.97065  0.55625  1.0000
  C   C105      1.0  0.0853  0.8892199999999999  0.55351  1.0000
  C   C106      1.0  0.43061  0.02586  0.7168  1.0000
  C   C107      1.0  0.3874099999999999  0.07535  0.7378499999999998  1.0000
  C   C108      1.0  0.38466999999999996  0.08622  0.7951299999999999  1.0000
  C   C109      1.0  0.4245  0.04729  0.83274  1.0000
  C   C110      1.0  0.46678  0.9974099999999999  0.81259  1.0000
  C   C111      1.0  0.47036  0.98714  0.75514  1.0000
  C   C112      1.0  0.42576  0.059879999999999996  0.8939499999999998  1.0000
  C   C113      1.0  0.56635  0.58442  0.10311  1.0000
  C   C114      1.0  0.65265  0.61222  0.09422999999999997  1.0000
  C   C115      1.0  0.65582  0.66703  0.07209999999999998  1.0000
  C   C116      1.0  0.57206  0.6951  0.05834999999999999  1.0000
  C   C117      1.0  0.48556  0.66749  0.06548  1.0000
  C   C118      1.0  0.48325  0.61264  0.08741999999999998  1.0000
  C   C119      1.0  0.57438  0.7544099999999999  0.03789  1.0000
  C   C120      1.0  0.447  0.48034  0.12108  1.0000
  C   C121      1.0  0.36435  0.50434  0.14353  1.0000
  C   C122      1.0  0.27661  0.49067  0.12164  1.0000
  C   C123      1.0  0.2698  0.45059  0.07837  1.0000
  C   C124      1.0  0.35064999999999996  0.42317999999999995  0.05847999999999999  1.0000
  C   C125      1.0  0.4386  0.4389  0.07894  1.0000
  C   C126      1.0  0.17702  0.43932999999999994  0.05119  1.0000
  C   C127      1.0  0.6647599999999999  0.47063999999999995  0.11397  1.0000
  C   C128      1.0  0.72404  0.44055  0.1508  1.0000
  C   C129      1.0  0.80306  0.41220999999999997  0.13092  1.0000
  C   C130      1.0  0.82548  0.41469  0.07373  1.0000
  C   C131      1.0  0.76557  0.4429499999999999  0.03618  1.0000
  C   C132      1.0  0.68624  0.47066  0.05631  1.0000
  C   C133      1.0  0.91468  0.38923  0.053509999999999995  1.0000
  C   C134      1.0  0.56931  0.52582  0.21696  1.0000
  C   C135      1.0  0.61252  0.57526  0.23806999999999998  1.0000
  C   C136      1.0  0.61532  0.58606  0.29537  1.0000
  C   C137      1.0  0.57552  0.5471199999999999  0.33299  1.0000
  C   C138      1.0  0.53321  0.49726999999999993  0.31277  1.0000
  C   C139      1.0  0.5296  0.48707  0.2553  1.0000
  C   C140      1.0  0.57424  0.55978  0.39420999999999995  1.0000
  C   C141      1.0  0.93367  0.9155799999999997  0.10309999999999998  1.0000
  C   C142      1.0  0.8473699999999997  0.8877899999999997  0.09422  1.0000
  C   C143      1.0  0.84418  0.83297  0.07209  1.0000
  C   C144      1.0  0.92793  0.8048799999999998  0.05834999999999999  1.0000
  C   C145      1.0  0.01443  0.8324999999999999  0.06548  1.0000
  C   C146      1.0  0.01676  0.88735  0.08741999999999998  1.0000
  C   C147      1.0  0.92567  0.7455599999999998  0.03791  1.0000
  C   C148      1.0  0.05307  0.01964  0.12108  1.0000
  C   C149      1.0  0.13572  0.9956299999999999  0.14353  1.0000
  C   C150      1.0  0.22348  0.00928  0.12163  1.0000
  C   C151      1.0  0.23029999999999995  0.04938  0.07837  1.0000
  C   C152      1.0  0.14944  0.07678  0.05847  1.0000
  C   C153      1.0  0.061479999999999986  0.061079999999999995  0.07893  1.0000
  C   C154      1.0  0.32308  0.06066999999999999  0.05113999999999999  1.0000
  C   C155      1.0  0.83531  0.02938  0.11393999999999997  1.0000
  C   C156      1.0  0.77599  0.05945999999999999  0.15077  1.0000
  C   C157      1.0  0.69693  0.08775999999999999  0.13089  1.0000
  C   C158      1.0  0.67449  0.08526  0.0737  1.0000
  C   C159      1.0  0.73446  0.05701  0.03614  1.0000
  C   C160      1.0  0.81383  0.02935  0.05627999999999998  1.0000
  C   C161      1.0  0.58529  0.11073  0.05346999999999999  1.0000
  C   C162      1.0  0.93072  0.97419  0.21696  1.0000
  C   C163      1.0  0.88751  0.9247499999999997  0.23806999999999998  1.0000
  C   C164      1.0  0.8847  0.91394  0.29537  1.0000
  C   C165      1.0  0.92449  0.95289  0.33299  1.0000
  C   C166      1.0  0.96681  0.00274  0.31277  1.0000
  C   C167      1.0  0.97043  0.01293  0.25531  1.0000
  C   C168      1.0  0.92577  0.94023  0.39420999999999995  1.0000
  C   C169      1.0  0.93388  0.58442  0.39719  1.0000
  C   C170      1.0  0.84751  0.61219  0.40593  1.0000
  C   C171      1.0  0.84418  0.66707  0.4279399999999999  1.0000
  C   C172      1.0  0.92789  0.69522  0.44168  1.0000
  C   C173      1.0  0.01443  0.66767  0.43459  1.0000
  C   C174      1.0  0.01689  0.6127899999999998  0.41277  1.0000
  C   C175      1.0  0.9257999999999998  0.75454  0.46208  1.0000
  C   C176      1.0  0.05433999999999999  0.4806399999999999  0.37918  1.0000
  C   C177      1.0  0.13688  0.5048  0.3567099999999999  1.0000
  C   C178      1.0  0.22484  0.49148  0.37862  1.0000
  C   C179      1.0  0.23213  0.45157  0.4219899999999999  1.0000
  C   C180      1.0  0.15136  0.42397  0.4418799999999999  1.0000
  C   C181      1.0  0.06325  0.43932999999999994  0.42138999999999993  1.0000
  C   C182      1.0  0.32511  0.43987  0.4489499999999999  1.0000
  C   C183      1.0  0.83603  0.47034999999999993  0.38616999999999996  1.0000
  C   C184      1.0  0.7767  0.44035  0.34925  1.0000
  C   C185      1.0  0.6977  0.41189  0.3690699999999999  1.0000
  C   C186      1.0  0.67531  0.41417999999999994  0.42627999999999994  1.0000
  C   C187      1.0  0.73532  0.44233  0.46389  1.0000
  C   C188      1.0  0.81455  0.4701799999999999  0.4438099999999999  1.0000
  C   C189      1.0  0.5858999999999999  0.3888799999999999  0.4464899999999999  1.0000
  C   C190      1.0  0.9309  0.52586  0.2835  1.0000
  C   C191      1.0  0.88757  0.57527  0.26242  1.0000
  C   C192      1.0  0.88513  0.58622  0.20513999999999993  1.0000
  C   C193      1.0  0.92545  0.54743  0.16764  1.0000
  C   C194      1.0  0.96747  0.4974699999999999  0.18781  1.0000
  C   C195      1.0  0.97058  0.48709  0.24520999999999996  1.0000
  C   C196      1.0  0.9276  0.56003  0.10648  1.0000
  C   C197      1.0  0.5661  0.9155799999999997  0.39712  1.0000
  C   C198      1.0  0.65248  0.8878099999999999  0.40589  1.0000
  C   C199      1.0  0.65582  0.83295  0.42793  1.0000
  C   C200      1.0  0.57211  0.80478  0.44166999999999995  1.0000
  C   C201      1.0  0.4855699999999999  0.83234  0.4345699999999999  1.0000
  C   C202      1.0  0.4830999999999999  0.88721  0.4127199999999999  1.0000
  C   C203      1.0  0.5742099999999999  0.74547  0.4620699999999999  1.0000
  C   C204      1.0  0.44562  0.01934  0.37914  1.0000
  C   C205      1.0  0.36306  0.99519  0.3567  1.0000
  C   C206      1.0  0.27511  0.00853  0.37862  1.0000
  C   C207      1.0  0.26785  0.04846999999999999  0.42197  1.0000
  C   C208      1.0  0.34863  0.07602999999999999  0.4418599999999999  1.0000
  C   C209      1.0  0.43674  0.06065999999999999  0.42135999999999996  1.0000
  C   C210      1.0  0.17489999999999994  0.06021  0.44897  1.0000
  C   C211      1.0  0.66393  0.02964  0.38612  1.0000
  C   C212      1.0  0.72329  0.05966  0.34922  1.0000
  C   C213      1.0  0.80229  0.08810999999999998  0.36906  1.0000
  C   C214      1.0  0.8246499999999998  0.08580999999999997  0.42626999999999987  1.0000
  C   C215      1.0  0.7646399999999999  0.05764999999999999  0.4638599999999999  1.0000
  C   C216      1.0  0.6854  0.029799999999999993  0.44377  1.0000
  C   C217      1.0  0.91404  0.1111  0.4464899999999999  1.0000
  C   C218      1.0  0.56902  0.97419  0.28338  1.0000
  C   C219      1.0  0.61235  0.9247999999999998  0.26222999999999996  1.0000
  C   C220      1.0  0.6148299999999999  0.91391  0.20493999999999996  1.0000
  C   C221      1.0  0.57455  0.95273  0.1674  1.0000
  C   C222      1.0  0.5325  0.00265  0.18765999999999997  1.0000
  C   C223      1.0  0.52935  0.01296  0.24509999999999996  1.0000
  C   C224      1.0  0.57239  0.9400799999999999  0.10618  1.0000
  O   O1        1.0  0.34962  0.22  0.97467  1.0000
  O   O2        1.0  0.50263  0.21688  0.9665199999999998  1.0000
  O   O3        1.0  0.88511  0.52038  0.9497699999999998  1.0000
  O   O4        1.0  0.8334  0.6101299999999998  0.9695399999999997  1.0000
  O   O5        1.0  0.0476  0.65156  0.92205  1.0000
  O   O6        1.0  0.04851999999999999  0.58903  0.9921799999999997  1.0000
  O   O7        1.0  0.41887  0.38828999999999997  0.5914899999999998  1.0000
  O   O8        1.0  0.43796  0.4826099999999999  0.57418  1.0000
  O   O9        1.0  0.15039  0.28001  0.97467  1.0000
  O   O10       1.0  0.99742  0.28313  0.9665199999999998  1.0000
  O   O11       1.0  0.61501  0.97953  0.9496699999999999  1.0000
  O   O12       1.0  0.6665899999999998  0.8897499999999999  0.9695399999999997  1.0000
  O   O13       1.0  0.4523999999999999  0.8483999999999999  0.9220299999999999  1.0000
  O   O14       1.0  0.45139  0.9109999999999998  0.9921099999999999  1.0000
  O   O15       1.0  0.08108  0.1117  0.5914899999999998  1.0000
  O   O16       1.0  0.06216  0.01738  0.57417  1.0000
  O   O17       1.0  0.15056999999999998  0.22014999999999998  0.52526  1.0000
  O   O18       1.0  0.99763  0.21691  0.53352  1.0000
  O   O19       1.0  0.61881  0.51999  0.5499999999999999  1.0000
  O   O20       1.0  0.66698  0.6106599999999999  0.53096  1.0000
  O   O21       1.0  0.45248  0.6515  0.5778999999999999  1.0000
  O   O22       1.0  0.45237  0.58869  0.50798  1.0000
  O   O23       1.0  0.08113  0.3882399999999999  0.9086099999999999  1.0000
  O   O24       1.0  0.0666  0.48252  0.9272099999999999  1.0000
  O   O25       1.0  0.34949  0.27992  0.52528  1.0000
  O   O26       1.0  0.50244  0.28309999999999996  0.5335299999999998  1.0000
  O   O27       1.0  0.8812199999999999  0.9799999999999998  0.54999  1.0000
  O   O28       1.0  0.83304  0.8893299999999998  0.53093  1.0000
  O   O29       1.0  0.04753  0.8484899999999997  0.5778999999999999  1.0000
  O   O30       1.0  0.04766  0.9113399999999999  0.50799  1.0000
  O   O31       1.0  0.41887  0.11177999999999999  0.90855  1.0000
  O   O32       1.0  0.43335  0.01742  0.92679  1.0000
  O   O33       1.0  0.6506  0.7798099999999998  0.02524  1.0000
  O   O34       1.0  0.49765  0.7830799999999998  0.03352  1.0000
  O   O35       1.0  0.1188  0.48001  0.04998999999999999  1.0000
  O   O36       1.0  0.16697  0.38935  0.03094  1.0000
  O   O37       1.0  0.95247  0.3485  0.0779  1.0000
  O   O38       1.0  0.95235  0.41131999999999996  0.00799  1.0000
  O   O39       1.0  0.58114  0.61176  0.40860999999999986  1.0000
  O   O40       1.0  0.5666099999999998  0.51747  0.42722999999999994  1.0000
  O   O41       1.0  0.84948  0.7201099999999999  0.02528  1.0000
  O   O42       1.0  0.00241  0.7168999999999998  0.03353  1.0000
  O   O43       1.0  0.38133  0.020009999999999997  0.0499  1.0000
  O   O44       1.0  0.33304  0.11066999999999999  0.030879999999999994  1.0000
  O   O45       1.0  0.54753  0.15147  0.07787999999999999  1.0000
  O   O46       1.0  0.54769  0.08867  0.00792  1.0000
  O   O47       1.0  0.91888  0.8882399999999998  0.40860999999999986  1.0000
  O   O48       1.0  0.9334099999999999  0.98254  0.42722999999999994  1.0000
  O   O49       1.0  0.84958  0.7799899999999999  0.4746799999999999  1.0000
  O   O50       1.0  0.0026  0.78312  0.46651999999999993  1.0000
  O   O51       1.0  0.38511  0.47963999999999996  0.44977999999999996  1.0000
  O   O52       1.0  0.33338  0.38988  0.46953  1.0000
  O   O53       1.0  0.54758  0.34843  0.42204  1.0000
  O   O54       1.0  0.5485  0.41097  0.49218999999999996  1.0000
  O   O55       1.0  0.91887  0.61171  0.09147999999999998  1.0000
  O   O56       1.0  0.93798  0.51741  0.07414  1.0000
  O   O57       1.0  0.65042  0.72001  0.47467  1.0000
  O   O58       1.0  0.4974599999999999  0.7168699999999998  0.46651999999999993  1.0000
  O   O59       1.0  0.11493  0.020419999999999997  0.4498299999999999  1.0000
  O   O60       1.0  0.1666  0.11021  0.4695399999999999  1.0000
  O   O61       1.0  0.9524  0.15156  0.4220499999999999  1.0000
  O   O62       1.0  0.9514  0.08901999999999999  0.4922  1.0000
  O   O63       1.0  0.58105  0.8883  0.09143999999999998  1.0000
  O   O64       1.0  0.5621199999999997  0.98249  0.07353  1.0000
