data_image0
_chemical_formula_structural       Cu12H120C264O48
_chemical_formula_sum              "Cu12 H120 C264 O48"
_cell_length_a       17.19445
_cell_length_b       25.78282
_cell_length_c       38.93471
_cell_angle_alpha    90.0
_cell_angle_beta     90.0
_cell_angle_gamma    101.16974

_symmetry_space_group_name_H-M    'P 1'
_symmetry_Int_Tables_number       1

loop_
  _symmetry_equiv_pos_as_xyz
  'x,y,z'

loop_
  _atom_site_type_symbol
  _atom_site_label
  _atom_site_symmetry_multiplicity
  _atom_site_fract_x
  _atom_site_fract_y
  _atom_site_fract_z
  _atom_site_occupancy
  Cu  Cu1       1.0  0.054490000000000004  0.79184  0.73426  1.0000
  Cu  Cu2       1.0  0.93277  0.72865  0.74695  1.0000
  Cu  Cu3       1.0  0.99447  0.50028  0.0312  1.0000
  Cu  Cu4       1.0  0.9455099999999999  0.70816  0.23425  1.0000
  Cu  Cu5       1.0  0.06722999999999998  0.77136  0.24695  1.0000
  Cu  Cu6       1.0  0.0055299999999999915  0.99973  0.5312  1.0000
  Cu  Cu7       1.0  0.9455099999999999  0.20816000000000004  0.26575  1.0000
  Cu  Cu8       1.0  0.06723  0.27135  0.25304999999999994  1.0000
  Cu  Cu9       1.0  0.0055300000000000175  0.4997200000000001  0.9688  1.0000
  Cu  Cu10      1.0  0.05449000000000001  0.29184  0.76575  1.0000
  Cu  Cu11      1.0  0.93277  0.22865  0.75305  1.0000
  Cu  Cu12      1.0  0.99447  0.00028  0.46879999999999994  1.0000
  H   H1        1.0  0.77642  0.52477  0.93549  1.0000
  H   H2        1.0  0.64187  0.54765  0.9308899999999999  1.0000
  H   H3        1.0  0.62515  0.54852  0.04134  1.0000
  H   H4        1.0  0.76007  0.52607  0.04539  1.0000
  H   H5        1.0  0.40226  0.58897  0.04037  1.0000
  H   H6        1.0  0.20234  0.63179  0.98836  1.0000
  H   H7        1.0  0.39962  0.5984300000000001  0.92968  1.0000
  H   H8        1.0  0.29651  0.69684  0.12358999999999999  1.0000
  H   H9        1.0  0.22922000000000003  0.7278100000000001  0.17444999999999997  1.0000
  H   H10       1.0  0.01401000000000001  0.6202400000000001  0.14879  1.0000
  H   H11       1.0  0.08019000000000003  0.5895  0.09724  1.0000
  H   H12       1.0  0.06893  0.61473  0.8857199999999998  1.0000
  H   H13       1.0  4.9999999999999596e-05  0.64824  0.83609  1.0000
  H   H14       1.0  0.2223400000000001  0.7369100000000002  0.80009  1.0000
  H   H15       1.0  0.29233  0.7027300000000001  0.84895  1.0000
  H   H16       1.0  0.93224  0.33478  0.05531  1.0000
  H   H17       1.0  0.90826  0.23628000000000005  0.0558  1.0000
  H   H18       1.0  0.90939  0.23582000000000003  0.94495  1.0000
  H   H19       1.0  0.93415  0.33422  0.9449599999999999  1.0000
  H   H20       1.0  0.8998  0.0687  0.94228  1.0000
  H   H21       1.0  0.89754  0.91987  0.99325  1.0000
  H   H22       1.0  0.89886  0.06077  0.053079999999999995  1.0000
  H   H23       1.0  0.026080000000000006  0.9664400000000001  0.8600099999999999  1.0000
  H   H24       1.0  0.047980000000000064  0.91314  0.80847  1.0000
  H   H25       1.0  0.83364  0.8022500000000001  0.8304999999999999  1.0000
  H   H26       1.0  0.8107799999999998  0.85499  0.8822  1.0000
  H   H27       1.0  0.03157000000000002  0.95178  0.12543999999999997  1.0000
  H   H28       1.0  0.05776999999999999  0.89516  0.17479  1.0000
  H   H29       1.0  0.8434100000000001  0.7844300000000002  0.15246  1.0000
  H   H30       1.0  0.8159700000000001  0.84072  0.10326  1.0000
  H   H31       1.0  0.22358  0.97523  0.43549  1.0000
  H   H32       1.0  0.35813000000000006  0.9523600000000001  0.43088999999999994  1.0000
  H   H33       1.0  0.37485  0.95149  0.54134  1.0000
  H   H34       1.0  0.23993  0.97393  0.54539  1.0000
  H   H35       1.0  0.59774  0.9110300000000002  0.54037  1.0000
  H   H36       1.0  0.7976599999999999  0.86821  0.48835999999999996  1.0000
  H   H37       1.0  0.60038  0.90157  0.42966999999999994  1.0000
  H   H38       1.0  0.70349  0.8031600000000001  0.62359  1.0000
  H   H39       1.0  0.7707900000000001  0.7721900000000003  0.67445  1.0000
  H   H40       1.0  0.9859900000000001  0.87977  0.6488  1.0000
  H   H41       1.0  0.9198100000000001  0.9105000000000002  0.59724  1.0000
  H   H42       1.0  0.93107  0.88527  0.38572  1.0000
  H   H43       1.0  0.99995  0.85176  0.33609  1.0000
  H   H44       1.0  0.77767  0.7630900000000002  0.30009  1.0000
  H   H45       1.0  0.70767  0.7972800000000001  0.34895  1.0000
  H   H46       1.0  0.06776  0.16522  0.55532  1.0000
  H   H47       1.0  0.09174  0.26372  0.5558  1.0000
  H   H48       1.0  0.09061  0.26419  0.44495  1.0000
  H   H49       1.0  0.06585  0.16578  0.44496  1.0000
  H   H50       1.0  0.1002  0.4313  0.44228  1.0000
  H   H51       1.0  0.10246000000000002  0.58014  0.49324  1.0000
  H   H52       1.0  0.10114000000000002  0.43923  0.55308  1.0000
  H   H53       1.0  0.97392  0.53357  0.36001  1.0000
  H   H54       1.0  0.95202  0.58687  0.30846999999999997  1.0000
  H   H55       1.0  0.16636  0.69776  0.3305  1.0000
  H   H56       1.0  0.18922000000000003  0.6450100000000001  0.3822  1.0000
  H   H57       1.0  0.96843  0.54822  0.62544  1.0000
  H   H58       1.0  0.9422299999999999  0.6048400000000002  0.6747899999999999  1.0000
  H   H59       1.0  0.15659  0.71558  0.65246  1.0000
  H   H60       1.0  0.18403  0.65928  0.60326  1.0000
  H   H61       1.0  0.22358000000000003  0.4752300000000001  0.06451  1.0000
  H   H62       1.0  0.35813  0.45235  0.06911  1.0000
  H   H63       1.0  0.37485  0.45149  0.9586599999999998  1.0000
  H   H64       1.0  0.23993000000000006  0.47393000000000013  0.95461  1.0000
  H   H65       1.0  0.59774  0.4110300000000001  0.95963  1.0000
  H   H66       1.0  0.79766  0.36821  0.01164  1.0000
  H   H67       1.0  0.60038  0.40157  0.07033  1.0000
  H   H68       1.0  0.70349  0.30316  0.87641  1.0000
  H   H69       1.0  0.77079  0.27219  0.82556  1.0000
  H   H70       1.0  0.9859900000000001  0.37977000000000005  0.8512099999999999  1.0000
  H   H71       1.0  0.91981  0.41050000000000003  0.90277  1.0000
  H   H72       1.0  0.93107  0.3852700000000001  0.11427999999999999  1.0000
  H   H73       1.0  0.99995  0.35176000000000013  0.16391  1.0000
  H   H74       1.0  0.77767  0.26309  0.19991  1.0000
  H   H75       1.0  0.70767  0.29727  0.15106  1.0000
  H   H76       1.0  0.06776000000000007  0.6652200000000003  0.94469  1.0000
  H   H77       1.0  0.09174000000000002  0.76372  0.94421  1.0000
  H   H78       1.0  0.09060999999999998  0.76419  0.05505  1.0000
  H   H79       1.0  0.06585000000000006  0.6657800000000003  0.05505  1.0000
  H   H80       1.0  0.10019999999999994  0.9313  0.05772999999999999  1.0000
  H   H81       1.0  0.10246  0.08013  0.0067599999999999995  1.0000
  H   H82       1.0  0.10114  0.93923  0.94692  1.0000
  H   H83       1.0  0.97392  0.03357  0.14  1.0000
  H   H84       1.0  0.95202  0.08687  0.19152999999999998  1.0000
  H   H85       1.0  0.16636  0.19776  0.1695  1.0000
  H   H86       1.0  0.18921999999999997  0.14501  0.1178  1.0000
  H   H87       1.0  0.96843  0.04822  0.87457  1.0000
  H   H88       1.0  0.9422299999999999  0.10484  0.8252199999999998  1.0000
  H   H89       1.0  0.15659000000000003  0.21558000000000002  0.84755  1.0000
  H   H90       1.0  0.18403000000000003  0.15928000000000006  0.89675  1.0000
  H   H91       1.0  0.77642  0.02477  0.56451  1.0000
  H   H92       1.0  0.64187  0.047650000000000005  0.56911  1.0000
  H   H93       1.0  0.62515  0.04851  0.45866  1.0000
  H   H94       1.0  0.76007  0.026070000000000006  0.45461  1.0000
  H   H95       1.0  0.40226  0.08897000000000001  0.45963  1.0000
  H   H96       1.0  0.20234  0.13179  0.51165  1.0000
  H   H97       1.0  0.39962  0.09843  0.57033  1.0000
  H   H98       1.0  0.29651  0.19684  0.37641  1.0000
  H   H99       1.0  0.22922  0.22781000000000007  0.32556  1.0000
  H   H100      1.0  0.014010000000000009  0.12024000000000001  0.35121  1.0000
  H   H101      1.0  0.08019000000000001  0.08950000000000002  0.40276999999999996  1.0000
  H   H102      1.0  0.06893  0.11473  0.61428  1.0000
  H   H103      1.0  4.9999999999999596e-05  0.14824  0.66392  1.0000
  H   H104      1.0  0.22234  0.23691  0.69991  1.0000
  H   H105      1.0  0.29233  0.20273  0.65106  1.0000
  H   H106      1.0  0.93224  0.8347800000000002  0.44469  1.0000
  H   H107      1.0  0.90826  0.73628  0.4442  1.0000
  H   H108      1.0  0.90939  0.7358200000000001  0.55505  1.0000
  H   H109      1.0  0.93415  0.8342200000000002  0.55505  1.0000
  H   H110      1.0  0.8998  0.5687  0.55773  1.0000
  H   H111      1.0  0.89754  0.41987000000000013  0.50676  1.0000
  H   H112      1.0  0.89886  0.56077  0.44691999999999993  1.0000
  H   H113      1.0  0.02608000000000002  0.46644000000000013  0.64  1.0000
  H   H114      1.0  0.04798000000000002  0.4131400000000001  0.69153  1.0000
  H   H115      1.0  0.83364  0.30224000000000006  0.6695  1.0000
  H   H116      1.0  0.81078  0.35499  0.6178  1.0000
  H   H117      1.0  0.031570000000000036  0.45178000000000007  0.37456  1.0000
  H   H118      1.0  0.05776999999999999  0.39516  0.32522  1.0000
  H   H119      1.0  0.8434100000000001  0.28443  0.34754  1.0000
  H   H120      1.0  0.81597  0.34072  0.39674  1.0000
  C   C1        1.0  0.8576  0.51322  0.9935499999999999  1.0000
  C   C2        1.0  0.77628  0.52457  0.99072  1.0000
  C   C3        1.0  0.7427  0.53026  0.9583699999999999  1.0000
  C   C4        1.0  0.6678100000000001  0.5427800000000002  0.9558799999999998  1.0000
  C   C5        1.0  0.62471  0.5499400000000001  0.98587  1.0000
  C   C6        1.0  0.6585800000000002  0.5434500000000001  0.0183  1.0000
  C   C7        1.0  0.73339  0.53096  0.02059  1.0000
  C   C8        1.0  0.54915  0.56382  0.98407  1.0000
  C   C9        1.0  0.4844  0.5766500000000001  0.98396  1.0000
  C   C10       1.0  0.40928  0.59147  0.98488  1.0000
  C   C11       1.0  0.37259  0.59642  0.01676  1.0000
  C   C12       1.0  0.29788000000000003  0.6108900000000002  0.018149999999999996  1.0000
  C   C13       1.0  0.25959  0.62001  0.98744  1.0000
  C   C14       1.0  0.29616  0.61584  0.9554799999999999  1.0000
  C   C15       1.0  0.37103  0.60154  0.95429  1.0000
  C   C16       1.0  0.26154  0.61803  0.05008  1.0000
  C   C17       1.0  0.22926999999999997  0.62704  0.07676  1.0000
  C   C18       1.0  0.19252000000000005  0.6414000000000001  0.10696  1.0000
  C   C19       1.0  0.23485999999999999  0.68009  0.12929  1.0000
  C   C20       1.0  0.19754  0.69732  0.15755  1.0000
  C   C21       1.0  0.11754000000000002  0.67603  0.16449  1.0000
  C   C22       1.0  0.07573999999999997  0.63652  0.14297  1.0000
  C   C23       1.0  0.11252000000000001  0.6193200000000001  0.11447  1.0000
  C   C24       1.0  0.07676  0.69696  0.19366  1.0000
  C   C25       1.0  0.25785  0.62771  0.92501  1.0000
  C   C26       1.0  0.22405999999999998  0.6401  0.89958  1.0000
  C   C27       1.0  0.18514  0.65691  0.87077  1.0000
  C   C28       1.0  0.10215  0.64127  0.86681  1.0000
  C   C29       1.0  0.06386  0.65989  0.8392799999999999  1.0000
  C   C30       1.0  0.10709000000000003  0.69486  0.8153299999999999  1.0000
  C   C31       1.0  0.18968  0.7099400000000001  0.8188499999999999  1.0000
  C   C32       1.0  0.22847000000000003  0.6909500000000001  0.84603  1.0000
  C   C33       1.0  0.06547000000000006  0.7172300000000001  0.78702  1.0000
  C   C34       1.0  0.95659  0.39919  4e-05  1.0000
  C   C35       1.0  0.9364099999999999  0.34048000000000006  0.00014  1.0000
  C   C36       1.0  0.92746  0.31268  0.03139  1.0000
  C   C37       1.0  0.91382  0.25778  0.03162  1.0000
  C   C38       1.0  0.90883  0.22933  0.00037  1.0000
  C   C39       1.0  0.91457  0.25756  0.96902  1.0000
  C   C40       1.0  0.9285  0.31243  0.969  1.0000
  C   C41       1.0  0.90108  0.17371000000000006  0.00019  1.0000
  C   C42       1.0  0.89863  0.12604  0.99935  1.0000
  C   C43       1.0  0.8975  0.07101  0.99786  1.0000
  C   C44       1.0  0.89817  0.04576000000000001  0.96577  1.0000
  C   C45       1.0  0.89774  0.9912500000000001  0.96399  1.0000
  C   C46       1.0  0.8966900000000001  0.9618400000000001  0.9944999999999999  1.0000
  C   C47       1.0  0.8974300000000001  0.98685  0.02665  1.0000
  C   C48       1.0  0.89767  0.04137  0.02826  1.0000
  C   C49       1.0  0.90154  0.96578  0.93188  1.0000
  C   C50       1.0  0.90747  0.9423  0.9050699999999999  1.0000
  C   C51       1.0  0.91731  0.9139500000000002  0.8746899999999999  1.0000
  C   C52       1.0  0.98396  0.9306700000000001  0.85335  1.0000
  C   C53       1.0  0.9961599999999999  0.90109  0.82469  1.0000
  C   C54       1.0  0.94219  0.8544600000000002  0.8166  1.0000
  C   C55       1.0  0.8748499999999999  0.83834  0.8372199999999999  1.0000
  C   C56       1.0  0.86237  0.86762  0.8659599999999998  1.0000
  C   C57       1.0  0.95811  0.8209100000000003  0.7873  1.0000
  C   C58       1.0  0.90166  0.9572  0.05703  1.0000
  C   C59       1.0  0.9091700000000001  0.9307700000000002  0.08239  1.0000
  C   C60       1.0  0.92208  0.8998200000000002  0.11112  1.0000
  C   C61       1.0  0.9903600000000001  0.91537  0.1317  1.0000
  C   C62       1.0  0.005049999999999985  0.88389  0.15901  1.0000
  C   C63       1.0  0.9522700000000001  0.83645  0.16644  1.0000
  C   C64       1.0  0.88376  0.8211900000000001  0.14637  1.0000
  C   C65       1.0  0.86859  0.8524600000000002  0.11904  1.0000
  C   C66       1.0  0.9705  0.8017  0.19466  1.0000
  C   C67       1.0  0.14240000000000003  0.9867900000000001  0.49354999999999993  1.0000
  C   C68       1.0  0.22372000000000006  0.9754300000000002  0.49071999999999993  1.0000
  C   C69       1.0  0.2573000000000001  0.9697400000000003  0.45837  1.0000
  C   C70       1.0  0.3321900000000001  0.9572200000000002  0.45587999999999995  1.0000
  C   C71       1.0  0.37529  0.9500600000000001  0.48587  1.0000
  C   C72       1.0  0.34142  0.95656  0.5183  1.0000
  C   C73       1.0  0.26661  0.96904  0.5206  1.0000
  C   C74       1.0  0.45085  0.93619  0.48407  1.0000
  C   C75       1.0  0.51561  0.9233500000000001  0.48395999999999995  1.0000
  C   C76       1.0  0.59072  0.9085300000000001  0.4848799999999999  1.0000
  C   C77       1.0  0.62741  0.90359  0.51676  1.0000
  C   C78       1.0  0.7021200000000001  0.8891100000000001  0.51815  1.0000
  C   C79       1.0  0.74041  0.8800000000000001  0.48744  1.0000
  C   C80       1.0  0.70384  0.88416  0.45548  1.0000
  C   C81       1.0  0.62897  0.89847  0.45428  1.0000
  C   C82       1.0  0.73846  0.8819800000000001  0.55008  1.0000
  C   C83       1.0  0.77073  0.87296  0.57676  1.0000
  C   C84       1.0  0.80748  0.8586100000000001  0.60696  1.0000
  C   C85       1.0  0.76514  0.81992  0.62929  1.0000
  C   C86       1.0  0.80246  0.8026800000000001  0.65755  1.0000
  C   C87       1.0  0.8824600000000001  0.82397  0.6645  1.0000
  C   C88       1.0  0.9242600000000001  0.86348  0.64297  1.0000
  C   C89       1.0  0.88748  0.88068  0.61447  1.0000
  C   C90       1.0  0.92324  0.80304  0.69366  1.0000
  C   C91       1.0  0.74215  0.87229  0.42501  1.0000
  C   C92       1.0  0.7759499999999998  0.8599  0.39958  1.0000
  C   C93       1.0  0.81487  0.8430900000000001  0.37076999999999993  1.0000
  C   C94       1.0  0.89785  0.8587400000000002  0.36681  1.0000
  C   C95       1.0  0.93614  0.8401200000000002  0.33928  1.0000
  C   C96       1.0  0.8929100000000001  0.8051500000000003  0.31533  1.0000
  C   C97       1.0  0.81032  0.79007  0.31885  1.0000
  C   C98       1.0  0.77153  0.8090500000000003  0.34603  1.0000
  C   C99       1.0  0.9345300000000001  0.78278  0.28702  1.0000
  C   C100      1.0  0.04341  0.10081  0.50003  1.0000
  C   C101      1.0  0.06359  0.15952  0.50014  1.0000
  C   C102      1.0  0.07254  0.18732000000000004  0.5313899999999999  1.0000
  C   C103      1.0  0.08618  0.24223000000000003  0.53162  1.0000
  C   C104      1.0  0.09117  0.27067  0.50038  1.0000
  C   C105      1.0  0.08543  0.24244  0.46902  1.0000
  C   C106      1.0  0.07151  0.18757  0.4689999999999999  1.0000
  C   C107      1.0  0.09892  0.32629  0.50018  1.0000
  C   C108      1.0  0.10137000000000002  0.37396000000000007  0.49933999999999995  1.0000
  C   C109      1.0  0.1025  0.42899  0.49786  1.0000
  C   C110      1.0  0.10183000000000005  0.45424000000000003  0.46576999999999996  1.0000
  C   C111      1.0  0.10226  0.50875  0.46399  1.0000
  C   C112      1.0  0.10331  0.53816  0.49449999999999994  1.0000
  C   C113      1.0  0.10257  0.51315  0.52665  1.0000
  C   C114      1.0  0.10233000000000003  0.4586300000000001  0.52826  1.0000
  C   C115      1.0  0.09846000000000006  0.5342200000000001  0.43188  1.0000
  C   C116      1.0  0.09253000000000004  0.5577000000000001  0.40506  1.0000
  C   C117      1.0  0.08269  0.58605  0.37468  1.0000
  C   C118      1.0  0.016040000000000006  0.56934  0.35335  1.0000
  C   C119      1.0  0.0038400000000000257  0.5989100000000002  0.32469  1.0000
  C   C120      1.0  0.05781000000000005  0.6455400000000001  0.31659999999999994  1.0000
  C   C121      1.0  0.12515  0.66166  0.33722  1.0000
  C   C122      1.0  0.13763  0.63238  0.36596  1.0000
  C   C123      1.0  0.04189000000000003  0.6790900000000001  0.28729  1.0000
  C   C124      1.0  0.09833999999999997  0.5428  0.55703  1.0000
  C   C125      1.0  0.09083000000000004  0.5692400000000001  0.58239  1.0000
  C   C126      1.0  0.07792000000000004  0.6001800000000002  0.61113  1.0000
  C   C127      1.0  0.009649999999999999  0.58463  0.63171  1.0000
  C   C128      1.0  0.99495  0.61612  0.65901  1.0000
  C   C129      1.0  0.047730000000000015  0.66356  0.6664399999999999  1.0000
  C   C130      1.0  0.11624  0.67881  0.64637  1.0000
  C   C131      1.0  0.13141000000000008  0.6475400000000002  0.61904  1.0000
  C   C132      1.0  0.029499999999999995  0.6983  0.69466  1.0000
  C   C133      1.0  0.14240000000000003  0.4867800000000001  0.00645  1.0000
  C   C134      1.0  0.22372  0.4754300000000001  0.00928  1.0000
  C   C135      1.0  0.25730000000000003  0.4697400000000001  0.04163  1.0000
  C   C136      1.0  0.33219  0.45722  0.044129999999999996  1.0000
  C   C137      1.0  0.37529  0.45006  0.01413  1.0000
  C   C138      1.0  0.34142  0.4565600000000001  0.9817  1.0000
  C   C139      1.0  0.26661  0.46904  0.9794099999999999  1.0000
  C   C140      1.0  0.45085  0.43618000000000007  0.01593  1.0000
  C   C141      1.0  0.51561  0.42335  0.01605  1.0000
  C   C142      1.0  0.59072  0.40853  0.01512  1.0000
  C   C143      1.0  0.62741  0.40359  0.9832399999999999  1.0000
  C   C144      1.0  0.7021199999999999  0.38911  0.9818499999999999  1.0000
  C   C145      1.0  0.74041  0.37999  0.01256  1.0000
  C   C146      1.0  0.70384  0.3841600000000001  0.04452  1.0000
  C   C147      1.0  0.62897  0.39846  0.04572  1.0000
  C   C148      1.0  0.73846  0.38197  0.94992  1.0000
  C   C149      1.0  0.77073  0.37296  0.9232399999999998  1.0000
  C   C150      1.0  0.80748  0.35861  0.89304  1.0000
  C   C151      1.0  0.76514  0.3199100000000001  0.87071  1.0000
  C   C152      1.0  0.80246  0.30268  0.84245  1.0000
  C   C153      1.0  0.88246  0.3239700000000001  0.83551  1.0000
  C   C154      1.0  0.92426  0.36348  0.8570399999999999  1.0000
  C   C155      1.0  0.8874800000000002  0.38068  0.88554  1.0000
  C   C156      1.0  0.92324  0.30304  0.8063399999999998  1.0000
  C   C157      1.0  0.74215  0.37229000000000007  0.07499  1.0000
  C   C158      1.0  0.77595  0.3599  0.10042  1.0000
  C   C159      1.0  0.81487  0.34309  0.12923  1.0000
  C   C160      1.0  0.89785  0.35874  0.13319  1.0000
  C   C161      1.0  0.93614  0.34011  0.16072  1.0000
  C   C162      1.0  0.89291  0.30514  0.18466999999999997  1.0000
  C   C163      1.0  0.81032  0.29007  0.18115  1.0000
  C   C164      1.0  0.77153  0.30905  0.15396999999999997  1.0000
  C   C165      1.0  0.9345300000000001  0.28278  0.21298  1.0000
  C   C166      1.0  0.04341000000000003  0.6008100000000001  0.99997  1.0000
  C   C167      1.0  0.06359000000000001  0.65952  0.99986  1.0000
  C   C168      1.0  0.07254  0.68733  0.96862  1.0000
  C   C169      1.0  0.08618000000000003  0.7422300000000002  0.9683799999999999  1.0000
  C   C170      1.0  0.09117  0.77067  0.9996299999999999  1.0000
  C   C171      1.0  0.08543000000000008  0.7424400000000002  0.03098  1.0000
  C   C172      1.0  0.07150999999999999  0.68757  0.030999999999999996  1.0000
  C   C173      1.0  0.09891999999999997  0.8262900000000001  0.9998199999999999  1.0000
  C   C174      1.0  0.10137000000000007  0.8739600000000002  0.00066  1.0000
  C   C175      1.0  0.10250000000000002  0.9289900000000001  0.00214  1.0000
  C   C176      1.0  0.10183000000000002  0.95424  0.03423  1.0000
  C   C177      1.0  0.10226  0.00875  0.03601  1.0000
  C   C178      1.0  0.10331  0.038160000000000006  0.005499999999999999  1.0000
  C   C179      1.0  0.10257  0.01315  0.9733499999999999  1.0000
  C   C180      1.0  0.10233000000000003  0.9586300000000002  0.9717499999999999  1.0000
  C   C181      1.0  0.09846  0.03422  0.06812  1.0000
  C   C182      1.0  0.09253  0.0577  0.09493999999999998  1.0000
  C   C183      1.0  0.08269  0.08605  0.12532  1.0000
  C   C184      1.0  0.016040000000000002  0.06933000000000002  0.14665  1.0000
  C   C185      1.0  0.00384  0.09891  0.17531  1.0000
  C   C186      1.0  0.05781  0.14554  0.1834  1.0000
  C   C187      1.0  0.12515  0.16166  0.16278  1.0000
  C   C188      1.0  0.13763  0.13238000000000003  0.13404  1.0000
  C   C189      1.0  0.04188999999999999  0.17909  0.21270999999999998  1.0000
  C   C190      1.0  0.09834  0.04280000000000001  0.9429799999999999  1.0000
  C   C191      1.0  0.09083  0.06924  0.91762  1.0000
  C   C192      1.0  0.07792  0.10018000000000003  0.88888  1.0000
  C   C193      1.0  0.009650000000000002  0.08463  0.8683  1.0000
  C   C194      1.0  0.99495  0.11612000000000001  0.84099  1.0000
  C   C195      1.0  0.04773  0.16355  0.83357  1.0000
  C   C196      1.0  0.11624  0.17881  0.8536299999999999  1.0000
  C   C197      1.0  0.13141  0.14754  0.8809699999999999  1.0000
  C   C198      1.0  0.029500000000000002  0.1983  0.80535  1.0000
  C   C199      1.0  0.8576  0.013220000000000003  0.50645  1.0000
  C   C200      1.0  0.7762800000000001  0.02457000000000001  0.50928  1.0000
  C   C201      1.0  0.7427  0.03026  0.54163  1.0000
  C   C202      1.0  0.66781  0.04278000000000001  0.54413  1.0000
  C   C203      1.0  0.62471  0.04994000000000001  0.51413  1.0000
  C   C204      1.0  0.6585799999999999  0.04345  0.4817  1.0000
  C   C205      1.0  0.73339  0.03096  0.47940999999999995  1.0000
  C   C206      1.0  0.54915  0.06382  0.51593  1.0000
  C   C207      1.0  0.4844  0.07665  0.51605  1.0000
  C   C208      1.0  0.40928  0.09147000000000001  0.51512  1.0000
  C   C209      1.0  0.37259  0.09641  0.48323999999999995  1.0000
  C   C210      1.0  0.29788000000000003  0.11089  0.48184999999999995  1.0000
  C   C211      1.0  0.25959  0.12001  0.51257  1.0000
  C   C212      1.0  0.29616000000000003  0.11584000000000001  0.54453  1.0000
  C   C213      1.0  0.37103  0.10154  0.5457199999999999  1.0000
  C   C214      1.0  0.26154  0.11803000000000001  0.44992  1.0000
  C   C215      1.0  0.22927  0.12704  0.42323999999999995  1.0000
  C   C216      1.0  0.19252  0.14139  0.39304  1.0000
  C   C217      1.0  0.23485999999999999  0.18009  0.37071  1.0000
  C   C218      1.0  0.19754  0.19732  0.34245  1.0000
  C   C219      1.0  0.11754000000000002  0.17603000000000002  0.33551  1.0000
  C   C220      1.0  0.07574000000000002  0.13652000000000003  0.35703  1.0000
  C   C221      1.0  0.11252000000000001  0.11932  0.38553999999999994  1.0000
  C   C222      1.0  0.07676  0.19696  0.30634  1.0000
  C   C223      1.0  0.25785  0.12771  0.57499  1.0000
  C   C224      1.0  0.22406  0.1401  0.60042  1.0000
  C   C225      1.0  0.18514  0.15691000000000002  0.62923  1.0000
  C   C226      1.0  0.10215  0.14126  0.63319  1.0000
  C   C227      1.0  0.06386  0.15989  0.66073  1.0000
  C   C228      1.0  0.10709000000000002  0.19486000000000003  0.68467  1.0000
  C   C229      1.0  0.18968  0.20993000000000003  0.68115  1.0000
  C   C230      1.0  0.22847  0.19095  0.6539699999999999  1.0000
  C   C231      1.0  0.06547  0.21723  0.7129899999999999  1.0000
  C   C232      1.0  0.95659  0.89919  0.49997  1.0000
  C   C233      1.0  0.9364099999999999  0.84048  0.49985999999999997  1.0000
  C   C234      1.0  0.9274600000000001  0.81268  0.46862  1.0000
  C   C235      1.0  0.91382  0.75778  0.46837999999999996  1.0000
  C   C236      1.0  0.90883  0.7293300000000001  0.49962999999999996  1.0000
  C   C237      1.0  0.91457  0.75757  0.53098  1.0000
  C   C238      1.0  0.9284999999999999  0.81243  0.531  1.0000
  C   C239      1.0  0.90108  0.67371  0.49981999999999993  1.0000
  C   C240      1.0  0.89863  0.62604  0.50066  1.0000
  C   C241      1.0  0.8975  0.57101  0.50214  1.0000
  C   C242      1.0  0.89817  0.54576  0.53423  1.0000
  C   C243      1.0  0.89774  0.49125  0.53601  1.0000
  C   C244      1.0  0.89669  0.46184  0.5055  1.0000
  C   C245      1.0  0.89743  0.48685000000000006  0.47334999999999994  1.0000
  C   C246      1.0  0.89767  0.54137  0.47173999999999994  1.0000
  C   C247      1.0  0.90154  0.46578  0.56812  1.0000
  C   C248      1.0  0.90747  0.4423  0.59494  1.0000
  C   C249      1.0  0.91731  0.41395  0.62532  1.0000
  C   C250      1.0  0.98396  0.43067  0.64665  1.0000
  C   C251      1.0  0.9961599999999999  0.40109  0.67531  1.0000
  C   C252      1.0  0.94219  0.3544600000000001  0.6834  1.0000
  C   C253      1.0  0.87485  0.3383400000000001  0.66278  1.0000
  C   C254      1.0  0.86237  0.36762  0.63404  1.0000
  C   C255      1.0  0.95811  0.32091  0.71271  1.0000
  C   C256      1.0  0.9016600000000001  0.4572000000000001  0.44297  1.0000
  C   C257      1.0  0.90917  0.4307700000000001  0.4176099999999999  1.0000
  C   C258      1.0  0.92208  0.39982  0.38888  1.0000
  C   C259      1.0  0.9903600000000001  0.41537000000000013  0.36829999999999996  1.0000
  C   C260      1.0  0.005049999999999998  0.38389  0.34099  1.0000
  C   C261      1.0  0.9522700000000001  0.33645  0.33357  1.0000
  C   C262      1.0  0.88376  0.32119  0.35363  1.0000
  C   C263      1.0  0.86859  0.35246000000000005  0.38096  1.0000
  C   C264      1.0  0.9705  0.3017  0.30535  1.0000
  O   O1        1.0  0.8852200000000001  0.51015  0.023979999999999998  1.0000
  O   O2        1.0  0.11685000000000001  0.7364600000000001  0.21007  1.0000
  O   O3        1.0  0.00465000000000004  0.6747300000000002  0.19978  1.0000
  O   O4        1.0  0.10647  0.7546  0.76917  1.0000
  O   O5        1.0  0.9915300000000001  0.69798  0.7829299999999999  1.0000
  O   O6        1.0  0.96089  0.42246  0.029329999999999995  1.0000
  O   O7        1.0  0.02319000000000005  0.8361200000000001  0.7708799999999999  1.0000
  O   O8        1.0  0.90644  0.77889  0.7811799999999999  1.0000
  O   O9        1.0  0.92182  0.75784  0.19929  1.0000
  O   O10       1.0  0.03409000000000009  0.8179200000000002  0.21191  1.0000
  O   O11       1.0  0.89443  0.50807  0.9654599999999999  1.0000
  O   O12       1.0  0.96898  0.42207  0.97072  1.0000
  O   O13       1.0  0.11478000000000003  0.9898500000000002  0.52398  1.0000
  O   O14       1.0  0.8831500000000001  0.7635500000000001  0.7100699999999999  1.0000
  O   O15       1.0  0.99535  0.8252700000000002  0.69978  1.0000
  O   O16       1.0  0.89353  0.7454100000000001  0.26917  1.0000
  O   O17       1.0  0.008479999999999994  0.80202  0.28293  1.0000
  O   O18       1.0  0.03911  0.07754  0.52933  1.0000
  O   O19       1.0  0.97681  0.66388  0.27088  1.0000
  O   O20       1.0  0.09356  0.72112  0.28118  1.0000
  O   O21       1.0  0.07818  0.74216  0.69929  1.0000
  O   O22       1.0  0.9659100000000002  0.6820800000000001  0.71191  1.0000
  O   O23       1.0  0.10556999999999994  0.99193  0.46545999999999993  1.0000
  O   O24       1.0  0.03102  0.07793  0.47072  1.0000
  O   O25       1.0  0.11478000000000002  0.4898500000000001  0.97602  1.0000
  O   O26       1.0  0.88315  0.26355  0.78994  1.0000
  O   O27       1.0  0.99535  0.32527  0.80022  1.0000
  O   O28       1.0  0.89353  0.24541  0.23082999999999998  1.0000
  O   O29       1.0  0.008480000000000007  0.30202000000000007  0.21708  1.0000
  O   O30       1.0  0.03910999999999999  0.57754  0.97067  1.0000
  O   O31       1.0  0.97681  0.16388  0.22911999999999996  1.0000
  O   O32       1.0  0.09356000000000002  0.22111  0.21882  1.0000
  O   O33       1.0  0.07818  0.24216  0.8007099999999999  1.0000
  O   O34       1.0  0.9659100000000002  0.18208  0.7880899999999998  1.0000
  O   O35       1.0  0.10557  0.49193  0.03454  1.0000
  O   O36       1.0  0.031020000000000023  0.5779300000000002  0.02928  1.0000
  O   O37       1.0  0.88522  0.010150000000000003  0.47601999999999994  1.0000
  O   O38       1.0  0.11684999999999998  0.23645  0.28993  1.0000
  O   O39       1.0  0.004650000000000001  0.17473  0.30022  1.0000
  O   O40       1.0  0.10646999999999998  0.2546  0.73083  1.0000
  O   O41       1.0  0.9915300000000001  0.19798  0.71708  1.0000
  O   O42       1.0  0.96089  0.92246  0.47067  1.0000
  O   O43       1.0  0.02319  0.33612  0.72912  1.0000
  O   O44       1.0  0.90644  0.27889  0.71882  1.0000
  O   O45       1.0  0.92182  0.25784  0.3007099999999999  1.0000
  O   O46       1.0  0.03409000000000003  0.3179200000000001  0.28809  1.0000
  O   O47       1.0  0.89443  0.00807  0.53454  1.0000
  O   O48       1.0  0.96898  0.9220700000000002  0.52928  1.0000
