data_image0
_chemical_formula_structural       Zn16H192C152N16O56
_chemical_formula_sum              "Zn16 H192 C152 N16 O56"
_cell_length_a       13.26268
_cell_length_b       20.238380000000003
_cell_length_c       20.23564
_cell_angle_alpha    83.81456
_cell_angle_beta     70.83157
_cell_angle_gamma    70.83664

_symmetry_space_group_name_H-M    'P 1'
_symmetry_Int_Tables_number       1

loop_
  _symmetry_equiv_pos_as_xyz
  'x,y,z'

loop_
  _atom_site_type_symbol
  _atom_site_label
  _atom_site_symmetry_multiplicity
  _atom_site_fract_x
  _atom_site_fract_y
  _atom_site_fract_z
  _atom_site_occupancy
  Zn  Zn1       1.0  0.45110000000000006  0.8405999999999999  0.11194999999999998  1.0000
  Zn  Zn2       1.0  0.20751000000000003  0.88832  0.3412899999999999  1.0000
  Zn  Zn3       1.0  0.73023  0.4725599999999999  0.80112  1.0000
  Zn  Zn4       1.0  0.2979300000000003  0.19844  0.9728999999999999  1.0000
  Zn  Zn5       1.0  0.5489000000000002  0.15939  0.88805  1.0000
  Zn  Zn6       1.0  0.40370999999999996  0.65971  0.38813  1.0000
  Zn  Zn7       1.0  0.53116  0.69837  0.47284  1.0000
  Zn  Zn8       1.0  0.79249  0.11167  0.6587099999999999  1.0000
  Zn  Zn9       1.0  0.4688400000000002  0.30162  0.5271599999999999  1.0000
  Zn  Zn10      1.0  0.0039200000000000875  0.027410000000000004  0.6983599999999999  1.0000
  Zn  Zn11      1.0  0.43715  0.61183  0.1592  1.0000
  Zn  Zn12      1.0  0.5962900000000002  0.34029  0.61187  1.0000
  Zn  Zn13      1.0  0.7020700000000001  0.8015499999999999  0.0271  1.0000
  Zn  Zn14      1.0  0.56285  0.38817  0.8408  1.0000
  Zn  Zn15      1.0  0.9960800000000003  0.9725899999999998  0.30164  1.0000
  Zn  Zn16      1.0  0.2697599999999999  0.52744  0.19887999999999997  1.0000
  H   H1        1.0  0.14970999999999998  0.25139  0.4108  1.0000
  H   H2        1.0  0.47509999999999997  0.9789  0.8255  1.0000
  H   H3        1.0  0.85387  0.36746  0.64172  1.0000
  H   H4        1.0  0.5868100000000004  0.5412899999999999  0.24634999999999999  1.0000
  H   H5        1.0  0.7375800000000001  0.19107  0.99122  1.0000
  H   H6        1.0  0.2292800000000001  0.45881  0.9346099999999999  1.0000
  H   H7        1.0  0.17268000000000006  0.98224  0.15588  1.0000
  H   H8        1.0  0.27889  0.48059  0.057409999999999996  1.0000
  H   H9        1.0  0.7652600000000002  0.21767  0.85938  1.0000
  H   H10       1.0  0.41319000000000017  0.45871  0.7536499999999998  1.0000
  H   H11       1.0  0.83897  0.71563  0.67478  1.0000
  H   H12       1.0  0.16697000000000012  0.10527999999999998  0.48439  1.0000
  H   H13       1.0  0.47628999999999994  0.59041  0.61082  1.0000
  H   H14       1.0  0.64716  0.6682799999999999  0.8852  1.0000
  H   H15       1.0  0.13203000000000006  0.43093  0.18427999999999994  1.0000
  H   H16       1.0  0.3773000000000001  0.95907  0.4343099999999999  1.0000
  H   H17       1.0  0.3711500000000001  0.75365  0.04142  1.0000
  H   H18       1.0  0.6833900000000005  0.68425  0.56872  1.0000
  H   H19       1.0  0.86453  0.26698  0.15207  1.0000
  H   H20       1.0  0.71865  0.47912999999999994  0.32573  1.0000
  H   H21       1.0  0.6773  0.90956  0.88918  1.0000
  H   H22       1.0  0.5605500000000002  0.08929  0.25165  1.0000
  H   H23       1.0  0.8019300000000008  0.5764699999999999  0.9246499999999997  1.0000
  H   H24       1.0  0.25082000000000004  0.6846899999999999  0.72255  1.0000
  H   H25       1.0  0.34600000000000014  0.8447299999999999  0.48218  1.0000
  H   H26       1.0  0.6314200000000002  0.15203  0.23335  1.0000
  H   H27       1.0  0.20466000000000004  0.2283  0.17376  1.0000
  H   H28       1.0  0.5321900000000002  0.61481  0.66858  1.0000
  H   H29       1.0  0.5237100000000001  0.40959  0.38918  1.0000
  H   H30       1.0  0.8424900000000004  0.28236  0.64051  1.0000
  H   H31       1.0  0.4825800000000002  0.8600099999999999  0.28221  1.0000
  H   H32       1.0  0.16102000000000005  0.28436  0.32521999999999995  1.0000
  H   H33       1.0  0.41564000000000006  0.52312  0.37659  1.0000
  H   H34       1.0  0.8502800000000004  0.7486099999999999  0.5891999999999997  1.0000
  H   H35       1.0  0.31661  0.31575  0.43127999999999994  1.0000
  H   H36       1.0  0.18297000000000016  0.9804799999999999  0.55715  1.0000
  H   H37       1.0  0.6288399999999995  0.24634000000000003  0.95858  1.0000
  H   H38       1.0  0.27174000000000015  0.4915999999999999  0.8089199999999998  1.0000
  H   H39       1.0  0.72176  0.64105  0.13266  1.0000
  H   H40       1.0  0.30065  0.67435  0.9794599999999999  1.0000
  H   H41       1.0  0.05039000000000006  0.6551499999999999  0.60659  1.0000
  H   H42       1.0  0.27327  0.42479999999999996  0.42308999999999997  1.0000
  H   H43       1.0  0.7655800000000001  0.72254  0.9043299999999999  1.0000
  H   H44       1.0  0.7725800000000004  0.48417  0.39446999999999993  1.0000
  H   H45       1.0  0.68419  0.02303  0.87661  1.0000
  H   H46       1.0  0.6970000000000001  0.07626999999999999  0.42465  1.0000
  H   H47       1.0  0.2523599999999999  0.93105  0.68434  1.0000
  H   H48       1.0  0.79534  0.77169  0.82624  1.0000
  H   H49       1.0  0.20811000000000002  0.8764099999999999  0.47705999999999993  1.0000
  H   H50       1.0  0.67184  0.65543  0.01761  1.0000
  H   H51       1.0  0.74089  0.94277  0.98017  1.0000
  H   H52       1.0  0.62269  0.04092  0.56569  1.0000
  H   H53       1.0  0.18451999999999993  0.11490999999999998  0.16857  1.0000
  H   H54       1.0  0.8121100000000001  0.24838  0.08945  1.0000
  H   H55       1.0  0.9363100000000002  0.81583  0.931  1.0000
  H   H56       1.0  0.23441999999999993  0.27745  0.09567  1.0000
  H   H57       1.0  0.13547  0.73302  0.8479299999999999  1.0000
  H   H58       1.0  0.37764000000000003  0.32642  0.22865999999999997  1.0000
  H   H59       1.0  0.6645199999999999  0.50684  0.0637  1.0000
  H   H60       1.0  0.19806000000000007  0.42352999999999996  0.07535  1.0000
  H   H61       1.0  0.28134000000000026  0.5208699999999999  0.6742699999999999  1.0000
  H   H62       1.0  0.50442  0.14099  0.6327499999999999  1.0000
  H   H63       1.0  0.7574499999999998  0.395  0.01434  1.0000
  H   H64       1.0  0.9520100000000001  0.76577  0.85916  1.0000
  H   H65       1.0  0.33593000000000023  0.44278  0.4802599999999999  1.0000
  H   H66       1.0  0.012119999999999999  0.09553  0.2227  1.0000
  H   H67       1.0  0.39248999999999995  0.77731  0.5953  1.0000
  H   H68       1.0  0.7991600000000002  0.16842  0.38546999999999987  1.0000
  H   H69       1.0  0.9733600000000001  0.77721  0.68479  1.0000
  H   H70       1.0  0.77068  0.21584  0.17521  1.0000
  H   H71       1.0  0.9200699999999996  0.30863  0.5083399999999999  1.0000
  H   H72       1.0  0.6246000000000002  0.64007  0.21776  1.0000
  H   H73       1.0  0.05430999999999989  0.67505  0.78433  1.0000
  H   H74       1.0  0.24255000000000032  0.605  0.9856699999999999  1.0000
  H   H75       1.0  0.9456800000000004  0.32495  0.21566999999999997  1.0000
  H   H76       1.0  0.32815999999999995  0.34457  0.9824  1.0000
  H   H77       1.0  0.57721  0.73406  0.64074  1.0000
  H   H78       1.0  0.23474  0.78233  0.14063  1.0000
  H   H79       1.0  0.93267  0.17373999999999998  0.27161  1.0000
  H   H80       1.0  0.9130900000000002  0.11059  0.40959999999999996  1.0000
  H   H81       1.0  0.8123900000000001  0.06518  0.95846  1.0000
  H   H82       1.0  0.6882300000000002  0.15506  0.1065  1.0000
  H   H83       1.0  0.18761000000000005  0.93482  0.04154  1.0000
  H   H84       1.0  0.7282500000000002  0.50839  0.19107999999999997  1.0000
  H   H85       1.0  0.6702300000000002  0.5953799999999999  0.7224699999999997  1.0000
  H   H86       1.0  0.46781  0.3851899999999999  0.33141999999999994  1.0000
  H   H87       1.0  0.04798999999999999  0.23423  0.14084  1.0000
  H   H88       1.0  0.32270000000000004  0.09044  0.11083  1.0000
  H   H89       1.0  0.69016  0.48197  0.6554999999999999  1.0000
  H   H90       1.0  0.30299999999999994  0.9237299999999999  0.57535  1.0000
  H   H91       1.0  0.16626999999999995  0.74644  0.45871  1.0000
  H   H92       1.0  0.016730000000000002  0.34793  0.26669  1.0000
  H   H93       1.0  0.65941  0.96576  0.18114  1.0000
  H   H94       1.0  0.62549  0.04126  0.74635  1.0000
  H   H95       1.0  0.16353000000000012  0.56547  0.4591199999999999  1.0000
  H   H96       1.0  0.43902000000000013  0.37681  0.97719  1.0000
  H   H97       1.0  0.2782400000000001  0.35894999999999994  0.8673399999999999  1.0000
  H   H98       1.0  0.7211000000000001  0.51941  0.9426  1.0000
  H   H99       1.0  0.09850000000000005  0.58937  0.75167  1.0000
  H   H100      1.0  0.34059  0.03423  0.8188599999999998  1.0000
  H   H101      1.0  0.7651  0.00686  0.5635999999999999  1.0000
  H   H102      1.0  0.7476300000000001  0.06895  0.31566  1.0000
  H   H103      1.0  0.39313000000000003  0.72861  0.67361  1.0000
  H   H104      1.0  0.2624200000000001  0.80892  0.008779999999999998  1.0000
  H   H105      1.0  0.12124000000000001  0.07528  0.07712  1.0000
  H   H106      1.0  0.18864999999999996  0.35906999999999994  0.23419  1.0000
  H   H107      1.0  0.78216  0.14086  0.26585  1.0000
  H   H108      1.0  0.8056500000000001  0.5337599999999999  0.31862999999999997  1.0000
  H   H109      1.0  0.28339999999999993  0.23333999999999996  0.34793999999999997  1.0000
  H   H110      1.0  0.8337200000000001  0.25355  0.5413  1.0000
  H   H111      1.0  0.65786  0.81552  0.77745  1.0000
  H   H112      1.0  0.08690000000000007  0.8894  0.5904  1.0000
  H   H113      1.0  0.72673  0.57519  0.57691  1.0000
  H   H114      1.0  0.8679600000000004  0.56907  0.81572  1.0000
  H   H115      1.0  0.51373  0.8249899999999999  0.71574  1.0000
  H   H116      1.0  0.34327  0.10642999999999998  0.34456999999999993  1.0000
  H   H117      1.0  0.57201  0.00862  0.6910299999999999  1.0000
  H   H118      1.0  0.3158100000000002  0.9769699999999999  0.12339  1.0000
  H   H119      1.0  0.19435  0.46623000000000003  0.68137  1.0000
  H   H120      1.0  0.52489  0.0211  0.17449999999999996  1.0000
  H   H121      1.0  0.8330299999999997  0.89471  0.51561  1.0000
  H   H122      1.0  0.6640700000000005  0.55721  0.51974  1.0000
  H   H123      1.0  0.6523900000000002  0.015  0.10514  1.0000
  H   H124      1.0  0.7165900000000003  0.76666  0.65206  1.0000
  H   H125      1.0  0.06368  0.18417  0.069  1.0000
  H   H126      1.0  0.874890000000001  0.81864  0.46661  1.0000
  H   H127      1.0  0.65672  0.89356  0.65544  1.0000
  H   H128      1.0  0.33548000000000006  0.49316  0.9362999999999998  1.0000
  H   H129      1.0  0.83647  0.43451999999999996  0.54089  1.0000
  H   H130      1.0  0.3754  0.35993  0.78224  1.0000
  H   H131      1.0  0.7707200000000001  0.54119  0.06539  1.0000
  H   H132      1.0  0.12510000000000002  0.18136  0.53339  1.0000
  H   H133      1.0  0.51742  0.13999  0.71779  1.0000
  H   H134      1.0  0.21783000000000002  0.85913  0.73415  1.0000
  H   H135      1.0  0.15751  0.7176399999999998  0.35949  1.0000
  H   H136      1.0  0.7491700000000001  0.31529999999999997  0.27745  1.0000
  H   H137      1.0  0.9547700000000005  0.82591  0.52119  1.0000
  H   H138      1.0  0.25911  0.05722  0.01983  1.0000
  H   H139      1.0  0.4394500000000002  0.91071  0.7483499999999998  1.0000
  H   H140      1.0  0.9496000000000004  0.34485  0.39342  1.0000
  H   H141      1.0  0.60751  0.22268  0.4047  1.0000
  H   H142      1.0  0.14612999999999998  0.63253  0.35828  1.0000
  H   H143      1.0  0.07992000000000002  0.69136  0.49166  1.0000
  H   H144      1.0  0.8170199999999999  0.01952  0.44284999999999997  1.0000
  H   H145      1.0  0.6068700000000002  0.27137999999999995  0.32639  1.0000
  H   H146      1.0  0.43316  0.38946  0.09069999999999999  1.0000
  H   H147      1.0  0.654  0.15527  0.51783  1.0000
  H   H148      1.0  0.43559  0.72261  0.81532  1.0000
  H   H149      1.0  0.3117600000000001  0.8449299999999998  0.8935099999999999  1.0000
  H   H150      1.0  0.34214000000000006  0.18448  0.22254999999999997  1.0000
  H   H151      1.0  0.32977  0.40462  0.27753  1.0000
  H   H152      1.0  0.37450000000000006  0.95874  0.25365  1.0000
  H   H153      1.0  0.4862600000000001  0.17501  0.28426  1.0000
  H   H154      1.0  0.06733000000000013  0.8262599999999999  0.72839  1.0000
  H   H155      1.0  0.42278000000000004  0.26594  0.35926  1.0000
  H   H156      1.0  0.20591000000000007  0.60648  0.84471  1.0000
  H   H157      1.0  0.7282300000000002  0.43627  0.50694  1.0000
  H   H158      1.0  0.69935  0.32564  0.020549999999999995  1.0000
  H   H159      1.0  0.9015000000000003  0.41062  0.24832999999999997  1.0000
  H   H160      1.0  0.84112  0.3186  0.96587  1.0000
  H   H161      1.0  0.22931000000000004  0.78416  0.82479  1.0000
  H   H162      1.0  0.5668299999999998  0.61053  0.90931  1.0000
  H   H163      1.0  0.15887999999999997  0.6814  0.03414  1.0000
  H   H164      1.0  0.34760000000000024  0.98499  0.8948599999999999  1.0000
  H   H165      1.0  0.6223600000000001  0.67357  0.77134  1.0000
  H   H166      1.0  0.4279899999999999  0.9913800000000001  0.30897  1.0000
  H   H167      1.0  0.5843600000000001  0.47686999999999996  0.62341  1.0000
  H   H168      1.0  0.3098399999999999  0.51803  0.34449999999999986  1.0000
  H   H169      1.0  0.04523000000000001  0.17409  0.47881999999999997  1.0000
  H   H170      1.0  0.20083000000000004  0.83158  0.6145299999999999  1.0000
  H   H171      1.0  0.8154700000000005  0.88509  0.8314299999999999  1.0000
  H   H172      1.0  0.02664  0.22278  0.31521  1.0000
  H   H173      1.0  0.18789000000000008  0.7516099999999999  0.91055  1.0000
  H   H174      1.0  0.9832600000000005  0.65206  0.7333099999999999  1.0000
  H   H175      1.0  0.2274200000000001  0.51583  0.6055299999999998  1.0000
  H   H176      1.0  0.13665999999999998  0.86769  0.14211999999999997  1.0000
  H   H177      1.0  0.82731  0.01775  0.84413  1.0000
  H   H178      1.0  0.8113499999999999  0.64092  0.76581  1.0000
  H   H179      1.0  0.67177  0.06367  0.99289  1.0000
  H   H180      1.0  0.32822000000000023  0.93632  0.00711  1.0000
  H   H181      1.0  0.87876  0.92471  0.9228899999999999  1.0000
  H   H182      1.0  0.56441  0.27738  0.18468  1.0000
  H   H183      1.0  0.4955800000000002  0.859  0.36725  1.0000
  H   H184      1.0  0.7940900000000002  0.39351  0.15529  1.0000
  H   H185      1.0  0.8633299999999999  0.13231  0.85788  1.0000
  H   H186      1.0  0.35283999999999993  0.33172  0.11479999999999999  1.0000
  H   H187      1.0  0.5609700000000002  0.62318  0.022809999999999997  1.0000
  H   H188      1.0  0.27176000000000006  0.56373  0.49306  1.0000
  H   H189      1.0  0.3685700000000001  0.8479699999999999  0.76665  1.0000
  H   H190      1.0  0.7918800000000005  0.12358  0.52294  1.0000
  H   H191      1.0  0.23489000000000002  0.9931299999999998  0.4364  1.0000
  H   H192      1.0  0.9878800000000001  0.90446  0.7772999999999999  1.0000
  C   C1        1.0  0.35431  0.97938  0.3061399999999999  1.0000
  C   C2        1.0  0.5810200000000002  0.32688999999999996  0.1828  1.0000
  C   C3        1.0  0.3927700000000001  0.014390000000000002  0.8535299999999999  1.0000
  C   C4        1.0  0.8704500000000002  0.03957  0.21479  1.0000
  C   C5        1.0  0.8021399999999999  0.31746  0.45439  1.0000
  C   C6        1.0  0.07529000000000001  0.11201999999999998  0.30227  1.0000
  C   C7        1.0  0.25503000000000003  0.22446999999999998  0.11795  1.0000
  C   C8        1.0  0.31265  0.6977599999999999  0.61183  1.0000
  C   C9        1.0  0.71513  0.57492  0.94121  1.0000
  C   C10       1.0  0.24049000000000018  0.98548  0.10793999999999998  1.0000
  C   C11       1.0  0.8157500000000002  0.5864  0.7809099999999998  1.0000
  C   C12       1.0  0.36363000000000023  0.42524  0.6145699999999997  1.0000
  C   C13       1.0  0.7903000000000001  0.94129  0.9246199999999999  1.0000
  C   C14       1.0  0.02074000000000004  0.88202  0.72437  1.0000
  C   C15       1.0  0.42562000000000016  0.8175799999999999  0.95449  1.0000
  C   C16       1.0  0.41897  0.67311  0.8172  1.0000
  C   C17       1.0  0.29745  0.69378  0.54647  1.0000
  C   C18       1.0  0.3192200000000003  0.44493  0.9294999999999999  1.0000
  C   C19       1.0  0.70048  0.35197  0.7096599999999998  1.0000
  C   C20       1.0  0.5916500000000001  0.8172599999999999  0.8269399999999998  1.0000
  C   C21       1.0  0.8444300000000001  0.11252000000000001  0.38973  1.0000
  C   C22       1.0  0.24580000000000002  0.64664  0.01489  1.0000
  C   C23       1.0  0.6807700000000002  0.55507  0.07049999999999998  1.0000
  C   C24       1.0  0.40362000000000003  0.28091  0.41377  1.0000
  C   C25       1.0  0.41000000000000014  0.21474  0.46048  1.0000
  C   C26       1.0  0.7437500000000004  0.9543  0.68244  1.0000
  C   C27       1.0  0.4026999999999999  0.72443  0.61782  1.0000
  C   C28       1.0  0.59  0.7852599999999998  0.53953  1.0000
  C   C29       1.0  0.30643999999999993  0.94499  0.42943  1.0000
  C   C30       1.0  0.7621699999999999  0.14817  0.79004  1.0000
  C   C31       1.0  0.6221  0.8021  0.88818  1.0000
  C   C32       1.0  0.9016700000000002  0.7809099999999999  0.9136499999999999  1.0000
  C   C33       1.0  0.7685500000000001  0.07496  0.44131999999999993  1.0000
  C   C34       1.0  0.5197400000000002  0.16493  0.17260999999999999  1.0000
  C   C35       1.0  0.3482400000000002  0.39242  0.9855899999999999  1.0000
  C   C36       1.0  0.7362500000000003  0.0705  0.9445999999999999  1.0000
  C   C37       1.0  0.23144000000000012  0.92503  0.5586899999999999  1.0000
  C   C38       1.0  0.40329999999999994  0.07487  0.88535  1.0000
  C   C39       1.0  0.38075000000000003  0.5456  0.8175399999999998  1.0000
  C   C40       1.0  0.2913400000000001  0.6080299999999998  0.8333099999999999  1.0000
  C   C41       1.0  0.57438  0.18241999999999997  0.04552  1.0000
  C   C42       1.0  0.5374000000000001  0.8061999999999999  0.9535699999999998  1.0000
  C   C43       1.0  0.7658300000000002  0.8895799999999999  0.88732  1.0000
  C   C44       1.0  0.2744500000000001  0.89237  0.48549999999999993  1.0000
  C   C45       1.0  0.22317000000000017  0.83864  0.14159999999999998  1.0000
  C   C46       1.0  0.18263000000000026  0.91366  0.7190599999999998  1.0000
  C   C47       1.0  0.5891700000000002  0.20944999999999997  0.6479  1.0000
  C   C48       1.0  0.90918  0.82675  0.6827799999999998  1.0000
  C   C49       1.0  0.7324700000000004  0.89191  0.66671  1.0000
  C   C50       1.0  0.25624  0.04569  0.31756  1.0000
  C   C51       1.0  0.18425  0.41359  0.21908999999999998  1.0000
  C   C52       1.0  0.3080600000000002  0.67261  0.8350299999999998  1.0000
  C   C53       1.0  0.7966800000000002  0.33863999999999994  0.64129  1.0000
  C   C54       1.0  0.34652000000000005  0.38759  0.1105  1.0000
  C   C55       1.0  0.7086500000000001  0.39196  0.16668999999999998  1.0000
  C   C56       1.0  0.2675200000000001  0.10809  0.33329  1.0000
  C   C57       1.0  0.7387100000000002  0.51403  0.35358999999999996  1.0000
  C   C58       1.0  0.3333500000000002  0.51463  0.39227  1.0000
  C   C59       1.0  0.48026000000000024  0.8350599999999999  0.82739  1.0000
  C   C60       1.0  0.8173600000000002  0.08634  0.28093999999999997  1.0000
  C   C61       1.0  0.4626000000000001  0.19379  0.04643  1.0000
  C   C62       1.0  0.6534800000000003  0.61241  0.88951  1.0000
  C   C63       1.0  0.18446  0.17271  0.33498999999999995  1.0000
  C   C64       1.0  0.7516300000000001  0.42937  0.55506  1.0000
  C   C65       1.0  0.15556000000000025  0.8874699999999999  0.61027  1.0000
  C   C66       1.0  0.66665  0.48537  0.60773  1.0000
  C   C67       1.0  0.7025500000000002  0.30622  0.45353  1.0000
  C   C68       1.0  0.7124700000000002  0.38457  0.92427  1.0000
  C   C69       1.0  0.4569900000000004  0.38967  0.38731  1.0000
  C   C70       1.0  0.6456900000000002  0.02062  0.6938599999999998  1.0000
  C   C71       1.0  0.6935600000000003  0.055  0.5705799999999998  1.0000
  C   C72       1.0  0.63971  0.52062  0.19385999999999995  1.0000
  C   C73       1.0  0.9792500000000002  0.11798  0.27563  1.0000
  C   C74       1.0  0.6611400000000003  0.19382  0.9791499999999997  1.0000
  C   C75       1.0  0.28751999999999994  0.61543  0.07573  1.0000
  C   C76       1.0  0.5967  0.92513  0.11465  1.0000
  C   C77       1.0  0.6192400000000001  0.4544  0.18246  1.0000
  C   C78       1.0  0.36029000000000017  0.47937  0.80614  1.0000
  C   C79       1.0  0.09081000000000004  0.17325  0.31721999999999995  1.0000
  C   C80       1.0  0.33885000000000004  0.80617  0.02085  1.0000
  C   C81       1.0  0.26129  0.48595999999999995  0.64641  1.0000
  C   C82       1.0  0.09833  0.21908  0.08635  1.0000
  C   C83       1.0  0.9345100000000001  0.35503  0.26099  1.0000
  C   C84       1.0  0.87567  0.33331  0.3919  1.0000
  C   C85       1.0  0.2483700000000001  0.57063  0.4449399999999999  1.0000
  C   C86       1.0  0.8341600000000002  0.30602  0.52064  1.0000
  C   C87       1.0  0.7595000000000002  0.01451  0.8920599999999999  1.0000
  C   C88       1.0  0.19542999999999996  0.23896  0.35514  1.0000
  C   C89       1.0  0.48925  0.3881299999999999  0.19791  1.0000
  C   C90       1.0  0.3778900000000001  0.1979  0.11182  1.0000
  C   C91       1.0  0.90744  0.8535099999999999  0.48587  1.0000
  C   C92       1.0  0.9247  0.88798  0.69773  1.0000
  C   C93       1.0  0.39877999999999986  0.83338  0.8919999999999999  1.0000
  C   C94       1.0  0.7542  0.35335  0.9851099999999999  1.0000
  C   C95       1.0  0.23416000000000003  0.11040999999999998  0.11268  1.0000
  C   C96       1.0  0.55064  0.14488  0.23896999999999996  1.0000
  C   C97       1.0  0.6565699999999998  0.55862  0.5752599999999999  1.0000
  C   C98       1.0  0.6355  0.64099  0.16141  1.0000
  C   C99       1.0  0.5084100000000003  0.45351  0.19381999999999994  1.0000
  C   C100      1.0  0.8155300000000001  0.82728  0.66501  1.0000
  C   C101      1.0  0.68735  0.30223  0.38816999999999996  1.0000
  C   C102      1.0  0.97827  0.88527  0.42519  1.0000
  C   C103      1.0  0.20331000000000002  0.66136  0.35872  1.0000
  C   C104      1.0  0.2097  0.05870999999999999  0.07538  1.0000
  C   C105      1.0  0.8442000000000002  0.9533899999999998  0.6936899999999998  1.0000
  C   C106      1.0  0.59637  0.71909  0.58624  1.0000
  C   C107      1.0  0.85715  0.33504  0.32732  1.0000
  C   C108      1.0  0.36449000000000026  0.35900999999999994  0.8386  1.0000
  C   C109      1.0  0.15579000000000004  0.0466  0.30630999999999997  1.0000
  C   C110      1.0  0.8761499999999999  0.53969  0.71481  1.0000
  C   C111      1.0  0.65176  0.60758  0.014409999999999997  1.0000
  C   C112      1.0  0.4379500000000001  0.8590499999999999  0.3385599999999999  1.0000
  C   C113      1.0  0.21054000000000017  0.73885  0.85498  1.0000
  C   C114      1.0  0.06549000000000024  0.6449599999999999  0.7390099999999997  1.0000
  C   C115      1.0  0.74497  0.7755299999999999  0.88205  1.0000
  C   C116      1.0  0.08487000000000001  0.28512  0.03952  1.0000
  C   C117      1.0  0.5972900000000002  0.2755699999999999  0.3821799999999999  1.0000
  C   C118      1.0  0.6072300000000004  0.98561  0.14647  1.0000
  C   C119      1.0  0.12385000000000009  0.46031  0.28518999999999994  1.0000
  C   C120      1.0  0.44669000000000003  0.29044  0.8520199999999999  1.0000
  C   C121      1.0  0.2848700000000001  0.42508  0.05879  1.0000
  C   C122      1.0  0.80457  0.76104  0.64486  1.0000
  C   C123      1.0  0.19786000000000004  0.68253  0.54561  1.0000
  C   C124      1.0  0.78945  0.26114  0.14503  1.0000
  C   C125      1.0  0.29951000000000005  0.6480199999999999  0.29034  1.0000
  C   C126      1.0  0.4108300000000001  0.79055  0.3520999999999999  1.0000
  C   C127      1.0  0.34343000000000007  0.44137  0.42474  1.0000
  C   C128      1.0  0.16583999999999996  0.69397  0.47935999999999995  1.0000
  C   C129      1.0  0.9151299999999998  0.71487  0.96048  1.0000
  C   C130      1.0  0.44935000000000014  0.85511  0.76103  1.0000
  C   C131      1.0  0.63636  0.57476  0.38543  1.0000
  C   C132      1.0  0.6012200000000001  0.16662  0.108  1.0000
  C   C133      1.0  0.23782000000000011  0.85182  0.20996999999999993  1.0000
  C   C134      1.0  0.6275300000000001  0.61783  0.7754  1.0000
  C   C135      1.0  0.7255400000000001  0.10763  0.5145  1.0000
  C   C136      1.0  0.23595999999999995  0.68275  0.6731  1.0000
  C   C137      1.0  0.14283999999999997  0.66495  0.67268  1.0000
  C   C138      1.0  0.5430100000000003  0.61033  0.6126899999999997  1.0000
  C   C139      1.0  0.2637400000000001  0.9294899999999999  0.055409999999999994  1.0000
  C   C140      1.0  0.021730000000000024  0.11472  0.57481  1.0000
  C   C141      1.0  0.77683  0.16135  0.8584099999999999  1.0000
  C   C142      1.0  0.6919400000000001  0.32738  0.16497  1.0000
  C   C143      1.0  0.12955000000000017  0.9604199999999999  0.7852099999999999  1.0000
  C   C144      1.0  0.76403  0.31725  0.32689999999999997  1.0000
  C   C145      1.0  0.5107500000000004  0.61187  0.80209  1.0000
  C   C146      1.0  0.12433000000000004  0.66669  0.6081  1.0000
  C   C147      1.0  0.5533100000000001  0.70956  0.14798999999999998  1.0000
  C   C148      1.0  0.40835000000000027  0.18274  0.17306  1.0000
  C   C149      1.0  0.56204  0.14094  0.66144  1.0000
  C   C150      1.0  0.49158  0.54649  0.80619  1.0000
  C   C151      1.0  0.37246000000000007  0.38217  0.22459999999999997  1.0000
  C   C152      1.0  0.09255000000000004  0.14648  0.51413  1.0000
  N   N1        1.0  0.3077800000000001  0.8562899999999999  0.07927  1.0000
  N   N2        1.0  0.7024200000000002  0.58093  0.81836  1.0000
  N   N3        1.0  0.10162000000000011  0.91898  0.6814199999999999  1.0000
  N   N4        1.0  0.89838  0.08101  0.31858  1.0000
  N   N5        1.0  0.7829400000000005  0.81847  0.91893  1.0000
  N   N6        1.0  0.21704999999999997  0.18153  0.08106999999999999  1.0000
  N   N7        1.0  0.24322000000000019  0.64378  0.42099  1.0000
  N   N8        1.0  0.38732000000000005  0.42099999999999993  0.8563299999999999  1.0000
  N   N9        1.0  0.29757  0.41907  0.18163999999999997  1.0000
  N   N10       1.0  0.3353  0.92106  0.3563299999999999  1.0000
  N   N11       1.0  0.47939  0.31855  0.41896  1.0000
  N   N12       1.0  0.5206100000000002  0.68144  0.58104  1.0000
  N   N13       1.0  0.6922200000000003  0.1437  0.92073  1.0000
  N   N14       1.0  0.66469  0.07894  0.6436699999999999  1.0000
  N   N15       1.0  0.61267  0.579  0.14366999999999996  1.0000
  N   N16       1.0  0.7567800000000002  0.35622  0.5790099999999999  1.0000
  O   O1        1.0  0.8479600000000006  0.48318999999999995  0.7160599999999998  1.0000
  O   O2        1.0  0.15204000000000004  0.5168  0.28394  1.0000
  O   O3        1.0  0.3306600000000001  0.8570599999999999  0.21004  1.0000
  O   O4        1.0  0.5424600000000002  0.5761099999999999  0.37997  1.0000
  O   O5        1.0  0.27731  0.6434899999999999  0.23451999999999998  1.0000
  O   O6        1.0  0.6022500000000001  0.35718  0.7098399999999998  1.0000
  O   O7        1.0  0.1699700000000001  0.2838  0.9831699999999999  1.0000
  O   O8        1.0  0.15529999999999997  0.8562  0.26589  1.0000
  O   O9        1.0  0.66934  0.14294  0.78996  1.0000
  O   O10       1.0  0.9479200000000002  0.5571799999999999  0.6662299999999999  1.0000
  O   O11       1.0  0.31280000000000024  0.7901  0.35752  1.0000
  O   O12       1.0  0.58078  0.7651399999999999  0.14323  1.0000
  O   O13       1.0  0.4354900000000001  0.21659999999999996  0.5173799999999998  1.0000
  O   O14       1.0  0.4986700000000001  0.9240000000000002  0.11992  1.0000
  O   O15       1.0  0.9345700000000001  0.9137399999999999  0.37725  1.0000
  O   O16       1.0  0.48929999999999996  0.73488  0.3565199999999999  1.0000
  O   O17       1.0  0.82979  0.05693  0.16621999999999998  1.0000
  O   O18       1.0  0.00446000000000003  0.66633  0.94307  1.0000
  O   O19       1.0  0.05206999999999997  0.44282000000000005  0.33376999999999996  1.0000
  O   O20       1.0  0.45754000000000034  0.42389000000000004  0.62003  1.0000
  O   O21       1.0  0.6512400000000006  0.62083  0.41662  1.0000
  O   O22       1.0  0.38884000000000013  0.16553  0.44262999999999997  1.0000
  O   O23       1.0  0.42353000000000013  0.5143  0.2036  1.0000
  O   O24       1.0  0.5400800000000002  0.28991  0.8568599999999998  1.0000
  O   O25       1.0  0.45990999999999993  0.71008  0.14314  1.0000
  O   O26       1.0  0.9245700000000002  0.11717  0.5740999999999999  1.0000
  O   O27       1.0  0.7226900000000004  0.3565  0.7654799999999998  1.0000
  O   O28       1.0  0.57646  0.48569  0.7964  1.0000
  O   O29       1.0  0.34875000000000006  0.37917  0.58338  1.0000
  O   O30       1.0  0.6189200000000005  0.37992  0.92393  1.0000
  O   O31       1.0  0.77389  0.41484  0.8772499999999999  1.0000
  O   O32       1.0  0.62733  0.29639  0.51431  1.0000
  O   O33       1.0  0.38107000000000013  0.6200699999999999  0.07608  1.0000
  O   O34       1.0  0.07543000000000001  0.8828299999999999  0.42591  1.0000
  O   O35       1.0  0.50132  0.07599  0.88008  1.0000
  O   O36       1.0  0.1702  0.9430699999999999  0.83378  1.0000
  O   O37       1.0  0.9955400000000001  0.33367  0.056929999999999994  1.0000
  O   O38       1.0  0.83002  0.71619  0.01683  1.0000
  O   O39       1.0  0.8584  0.014179999999999998  0.70358  1.0000
  O   O40       1.0  0.5614200000000003  0.79644  0.014379999999999997  1.0000
  O   O41       1.0  0.3726600000000002  0.7035999999999999  0.48568999999999996  1.0000
  O   O42       1.0  0.045639999999999986  0.01671  0.78395  1.0000
  O   O43       1.0  0.68871  0.8789699999999999  0.08327  1.0000
  O   O44       1.0  0.06542000000000005  0.08626  0.62276  1.0000
  O   O45       1.0  0.6871900000000004  0.20989  0.64248  1.0000
  O   O46       1.0  0.3112900000000001  0.12102999999999998  0.9167299999999998  1.0000
  O   O47       1.0  0.3977500000000001  0.64282  0.29016  1.0000
  O   O48       1.0  0.61115  0.83446  0.5573699999999999  1.0000
  O   O49       1.0  0.84469  0.14379  0.73412  1.0000
  O   O50       1.0  0.9543500000000001  0.98329  0.21604999999999996  1.0000
  O   O51       1.0  0.4192100000000002  0.23484999999999998  0.85677  1.0000
  O   O52       1.0  0.2261100000000001  0.58515  0.12274999999999998  1.0000
  O   O53       1.0  0.5106900000000001  0.26511  0.6434799999999998  1.0000
  O   O54       1.0  0.1416  0.9858199999999999  0.29642  1.0000
  O   O55       1.0  0.43858000000000014  0.20355  0.9856199999999999  1.0000
  O   O56       1.0  0.5645000000000002  0.7834  0.4826199999999999  1.0000
