data_image0
_chemical_formula_structural       Mn10H190C260N50O40
_chemical_formula_sum              "Mn10 H190 C260 N50 O40"
_cell_length_a       17.34414
_cell_length_b       19.35359
_cell_length_c       20.65326
_cell_angle_alpha    106.24376999999998
_cell_angle_beta     90.05064
_cell_angle_gamma    116.63144

_symmetry_space_group_name_H-M    'P 1'
_symmetry_Int_Tables_number       1

loop_
  _symmetry_equiv_pos_as_xyz
  'x,y,z'

loop_
  _atom_site_type_symbol
  _atom_site_label
  _atom_site_symmetry_multiplicity
  _atom_site_fract_x
  _atom_site_fract_y
  _atom_site_fract_z
  _atom_site_occupancy
  Mn  Mn1       1.0  0.54406  0.88609  0.9814  1.0000
  Mn  Mn2       1.0  0.34172999999999987  0.8862299999999997  0.48137  1.0000
  Mn  Mn3       1.0  0.99085  0.17116  0.9206699999999999  1.0000
  Mn  Mn4       1.0  0.18124999999999997  0.17084  0.42083  1.0000
  Mn  Mn5       1.0  0.7143899999999999  0.21575999999999992  0.7377699999999999  1.0000
  Mn  Mn6       1.0  0.5014199999999999  0.21583999999999992  0.23781  1.0000
  Mn  Mn7       1.0  0.99567  0.79509  0.63677  1.0000
  Mn  Mn8       1.0  0.80005  0.7945099999999998  0.13667  1.0000
  Mn  Mn9       1.0  0.35016  0.51502  0.19222999999999998  1.0000
  Mn  Mn10      1.0  0.16350000000000003  0.51454  0.69237  1.0000
  H   H1        1.0  0.5212299999999999  0.9957999999999999  0.81766  1.0000
  H   H2        1.0  0.3488099999999999  0.7380899999999998  0.75678  1.0000
  H   H3        1.0  0.32255  0.73956  0.63896  1.0000
  H   H4        1.0  0.47940999999999995  0.6988199999999999  0.8956699999999999  1.0000
  H   H5        1.0  0.7398  0.8849599999999999  0.9372899999999997  1.0000
  H   H6        1.0  0.73458  0.74286  0.85531  1.0000
  H   H7        1.0  0.68412  0.60806  0.83445  1.0000
  H   H8        1.0  0.62258  0.46353  0.76782  1.0000
  H   H9        1.0  0.36832  0.45001  0.7449  1.0000
  H   H10       1.0  0.43043999999999993  0.59422  0.80453  1.0000
  H   H11       1.0  0.5626599999999999  0.33946999999999994  0.73858  1.0000
  H   H12       1.0  0.49365  0.19294999999999998  0.6791399999999999  1.0000
  H   H13       1.0  0.26101  0.19884999999999997  0.61519  1.0000
  H   H14       1.0  0.32701  0.3439299999999999  0.67571  1.0000
  H   H15       1.0  0.43743999999999994  0.08329999999999996  0.5682  1.0000
  H   H16       1.0  0.19942  0.06749  0.63207  1.0000
  H   H17       1.0  0.17196  0.9147  0.55403  1.0000
  H   H18       1.0  0.5483  0.06449999999999996  0.73687  1.0000
  H   H19       1.0  0.50071  0.016210000000000006  0.65133  1.0000
  H   H20       1.0  0.4748899999999999  0.99537  0.31765  1.0000
  H   H21       1.0  0.3894999999999999  0.73759  0.25619999999999993  1.0000
  H   H22       1.0  0.41715999999999986  0.73956  0.13844  1.0000
  H   H23       1.0  0.21892  0.69864  0.39603  1.0000
  H   H24       1.0  0.14471  0.88464  0.43742  1.0000
  H   H25       1.0  0.00796000000000001  0.7426  0.35515  1.0000
  H   H26       1.0  0.9235999999999999  0.60773  0.33462  1.0000
  H   H27       1.0  0.8405199999999999  0.46313  0.268  1.0000
  H   H28       1.0  0.08147  0.45007  0.24503  1.0000
  H   H29       1.0  0.16354  0.59431  0.3046  1.0000
  H   H30       1.0  0.7764699999999999  0.339  0.23860999999999996  1.0000
  H   H31       1.0  0.6990199999999998  0.19255999999999998  0.17894  1.0000
  H   H32       1.0  0.93783  0.19889999999999994  0.11544999999999998  1.0000
  H   H33       1.0  0.016780000000000007  0.34388  0.17608  1.0000
  H   H34       1.0  0.6456  0.08333999999999997  0.0683  1.0000
  H   H35       1.0  0.86769  0.0671  0.13202  1.0000
  H   H36       1.0  0.74137  0.91421  0.05444  1.0000
  H   H37       1.0  0.51657  0.06444999999999998  0.23688999999999996  1.0000
  H   H38       1.0  0.51502  0.01608999999999999  0.15132  1.0000
  H   H39       1.0  0.12014  0.28191  0.76033  1.0000
  H   H40       1.0  0.007459999999999992  0.020939999999999983  0.68898  1.0000
  H   H41       1.0  0.03276999999999999  0.02616999999999997  0.5708399999999999  1.0000
  H   H42       1.0  0.8835499999999998  0.9959199999999999  0.80517  1.0000
  H   H43       1.0  0.77882  0.11722999999999996  0.9503  1.0000
  H   H44       1.0  0.64401  0.9698399999999999  0.8751199999999999  1.0000
  H   H45       1.0  0.5773999999999999  0.8657499999999999  0.79091  1.0000
  H   H46       1.0  0.5000099999999997  0.7251199999999997  0.7201799999999999  1.0000
  H   H47       1.0  0.7455  0.73138  0.67277  1.0000
  H   H48       1.0  0.82282  0.86962  0.74863  1.0000
  H   H49       1.0  0.44042999999999993  0.6245299999999999  0.6437099999999999  1.0000
  H   H50       1.0  0.36067  0.48342  0.57162  1.0000
  H   H51       1.0  0.5979  0.46315  0.56792  1.0000
  H   H52       1.0  0.67919  0.60554  0.64124  1.0000
  H   H53       1.0  0.29546  0.34975  0.54191  1.0000
  H   H54       1.0  0.53001  0.36896  0.46713999999999994  1.0000
  H   H55       1.0  0.39169  0.22024  0.39451  1.0000
  H   H56       1.0  0.17028999999999997  0.35611  0.68208  1.0000
  H   H57       1.0  0.16502  0.30737  0.59493  1.0000
  H   H58       1.0  0.16315  0.28247  0.26034  1.0000
  H   H59       1.0  0.015189999999999995  0.021559999999999985  0.18895  1.0000
  H   H60       1.0  0.9945699999999998  0.026779999999999998  0.07084  1.0000
  H   H61       1.0  0.11287  0.99567  0.3053  1.0000
  H   H62       1.0  0.33999  0.11703  0.4497  1.0000
  H   H63       1.0  0.32665  0.96941  0.37459999999999993  1.0000
  H   H64       1.0  0.28829999999999995  0.8651199999999999  0.29118  1.0000
  H   H65       1.0  0.22482  0.72439  0.22063  1.0000
  H   H66       1.0  0.98576  0.7308899999999998  0.17278  1.0000
  H   H67       1.0  0.04699999999999989  0.8692399999999998  0.24845  1.0000
  H   H68       1.0  0.18405  0.62412  0.14365  1.0000
  H   H69       1.0  0.12249999999999993  0.48308999999999996  0.07152  1.0000
  H   H70       1.0  0.8650099999999997  0.4627299999999999  0.06746  1.0000
  H   H71       1.0  0.9262  0.60504  0.14084  1.0000
  H   H72       1.0  0.05487999999999999  0.34974  0.04086  1.0000
  H   H73       1.0  0.8383099999999998  0.3682  0.96716  1.0000
  H   H74       1.0  0.8282400000000001  0.21992000000000003  0.89394  1.0000
  H   H75       1.0  0.18523  0.35664  0.18275  1.0000
  H   H76       1.0  0.14222999999999997  0.30823  0.09547  1.0000
  H   H77       1.0  0.68696  0.34836999999999996  0.5948399999999999  1.0000
  H   H78       1.0  0.54266  0.08800999999999996  0.51071  1.0000
  H   H79       1.0  0.51727  0.10204  0.39728  1.0000
  H   H80       1.0  0.65707  0.04679  0.60641  1.0000
  H   H81       1.0  0.8558299999999998  0.15236999999999995  0.77475  1.0000
  H   H82       1.0  0.84177  0.0032399999999999925  0.69942  1.0000
  H   H83       1.0  0.5736999999999999  0.9084799999999998  0.58087  1.0000
  H   H84       1.0  0.5091099999999997  0.7666299999999997  0.50514  1.0000
  H   H85       1.0  0.75877  0.77053  0.5239499999999999  1.0000
  H   H86       1.0  0.8256399999999998  0.9148699999999997  0.59477  1.0000
  H   H87       1.0  0.46913  0.63518  0.50731  1.0000
  H   H88       1.0  0.40278  0.49241999999999997  0.43237  1.0000
  H   H89       1.0  0.6316299999999998  0.5479899999999998  0.33285  1.0000
  H   H90       1.0  0.69991  0.69021  0.41045999999999994  1.0000
  H   H91       1.0  0.58322  0.40241  0.33952  1.0000
  H   H92       1.0  0.34425999999999995  0.40675  0.3053  1.0000
  H   H93       1.0  0.32573  0.25478  0.23588  1.0000
  H   H94       1.0  0.6749899999999998  0.3795499999999999  0.43027  1.0000
  H   H95       1.0  0.72274  0.42528  0.51544  1.0000
  H   H96       1.0  0.6613  0.34867999999999993  0.09461  1.0000
  H   H97       1.0  0.5453  0.08824  0.01072  1.0000
  H   H98       1.0  0.58558  0.10226000000000003  0.89755  1.0000
  H   H99       1.0  0.38937  0.04659999999999999  0.10673  1.0000
  H   H100      1.0  0.29647  0.15227999999999997  0.27494  1.0000
  H   H101      1.0  0.16119  0.0032000000000000075  0.19959  1.0000
  H   H102      1.0  0.33467  0.90872  0.08114999999999999  1.0000
  H   H103      1.0  0.2575700000000001  0.76687  0.005519999999999999  1.0000
  H   H104      1.0  0.011529999999999877  0.7699899999999997  0.02419  1.0000
  H   H105      1.0  0.08874  0.9144  0.09498999999999999  1.0000
  H   H106      1.0  0.16636000000000006  0.63521  0.00751  1.0000
  H   H107      1.0  0.08980000000000003  0.49241999999999997  0.93253  1.0000
  H   H108      1.0  0.91569  0.54768  0.83344  1.0000
  H   H109      1.0  0.98981  0.6899  0.9109899999999999  1.0000
  H   H110      1.0  0.8190399999999999  0.40215999999999985  0.83974  1.0000
  H   H111      1.0  0.06244000000000001  0.40699  0.80535  1.0000
  H   H112      1.0  0.9288899999999999  0.25527  0.73524  1.0000
  H   H113      1.0  0.70425  0.37953000000000003  0.9301799999999999  1.0000
  H   H114      1.0  0.70339  0.42573  0.01546  1.0000
  H   H115      1.0  0.9968999999999997  0.9251199999999999  0.48122999999999994  1.0000
  H   H116      1.0  0.83054  0.66682  0.41359  1.0000
  H   H117      1.0  0.8101699999999997  0.6721899999999998  0.29399  1.0000
  H   H118      1.0  0.9140399999999996  0.5978799999999996  0.5557099999999999  1.0000
  H   H119      1.0  0.17354999999999998  0.77735  0.57108  1.0000
  H   H120      1.0  0.15668  0.63055  0.49043999999999993  1.0000
  H   H121      1.0  0.10925  0.50172  0.46677  1.0000
  H   H122      1.0  0.045079999999999947  0.35726999999999987  0.40362  1.0000
  H   H123      1.0  0.7878  0.33694999999999997  0.4141699999999999  1.0000
  H   H124      1.0  0.85283  0.48404  0.47169  1.0000
  H   H125      1.0  0.98297  0.23331  0.40057  1.0000
  H   H126      1.0  0.9197399999999998  0.08741999999999997  0.33917  1.0000
  H   H127      1.0  0.6862299999999999  0.08781999999999997  0.26675  1.0000
  H   H128      1.0  0.7498899999999998  0.23442999999999997  0.32852  1.0000
  H   H129      1.0  0.87792  0.98569  0.23067  1.0000
  H   H130      1.0  0.62559  0.9525599999999999  0.26947  1.0000
  H   H131      1.0  0.61334  0.8074  0.18757999999999997  1.0000
  H   H132      1.0  0.96877  0.95174  0.31747  1.0000
  H   H133      1.0  0.014759999999999995  0.0003799999999999909  0.4047299999999999  1.0000
  H   H134      1.0  0.92821  0.92222  0.9814799999999999  1.0000
  H   H135      1.0  0.83486  0.66396  0.9115499999999999  1.0000
  H   H136      1.0  0.86111  0.67083  0.79237  1.0000
  H   H137      1.0  0.68338  0.59796  0.055909999999999994  1.0000
  H   H138      1.0  0.6033499999999998  0.7773099999999998  0.07123  1.0000
  H   H139      1.0  0.47368999999999983  0.6306799999999998  0.99009  1.0000
  H   H140      1.0  0.39195  0.50143  0.96687  1.0000
  H   H141      1.0  0.31189  0.35697  0.9036  1.0000
  H   H142      1.0  0.54942  0.33753  0.9138299999999999  1.0000
  H   H143      1.0  0.63124  0.48458  0.97143  1.0000
  H   H144      1.0  0.25043  0.23304  0.90045  1.0000
  H   H145      1.0  0.16807  0.08704  0.83938  1.0000
  H   H146      1.0  0.40207999999999994  0.08811999999999989  0.7669799999999999  1.0000
  H   H147      1.0  0.48484  0.23475999999999997  0.82862  1.0000
  H   H148      1.0  0.10816  0.98519  0.73071  1.0000
  H   H149      1.0  0.32782000000000006  0.9527999999999999  0.76986  1.0000
  H   H150      1.0  0.19494999999999996  0.80751  0.6877  1.0000
  H   H151      1.0  0.9825299999999998  0.9506299999999999  0.8178299999999998  1.0000
  H   H152      1.0  0.9851799999999998  0.99891  0.90521  1.0000
  H   H153      1.0  0.33845999999999987  0.6374199999999998  0.0374  1.0000
  H   H154      1.0  0.18275  0.37715  0.96321  1.0000
  H   H155      1.0  0.17217  0.38382  0.8454  1.0000
  H   H156      1.0  0.28368  0.33389  0.07354  1.0000
  H   H157      1.0  0.5251099999999999  0.47794999999999993  0.203  1.0000
  H   H158      1.0  0.51508  0.32872  0.13307  1.0000
  H   H159      1.0  0.46792000000000006  0.23897  0.0008699999999999999  1.0000
  H   H160      1.0  0.40582  0.09333  0.93476  1.0000
  H   H161      1.0  0.16804999999999995  0.04560999999999999  0.02142  1.0000
  H   H162      1.0  0.23124000000000003  0.19066  0.08892  1.0000
  H   H163      1.0  0.3657999999999999  0.9636499999999999  0.9409099999999999  1.0000
  H   H164      1.0  0.30258  0.8203100000000001  0.86897  1.0000
  H   H165      1.0  0.05086999999999993  0.8105599999999998  0.8474399999999999  1.0000
  H   H166      1.0  0.11385999999999996  0.95435  0.91628  1.0000
  H   H167      1.0  0.21670999999999999  0.67854  0.83754  1.0000
  H   H168      1.0  0.040679999999999966  0.72856  0.73976  1.0000
  H   H169      1.0  0.031909999999999904  0.5834099999999999  0.6617  1.0000
  H   H170      1.0  0.37222999999999995  0.7129499999999999  0.9606199999999999  1.0000
  H   H171      1.0  0.33585  0.66721  0.87212  1.0000
  H   H172      1.0  0.29765  0.63682  0.53735  1.0000
  H   H173      1.0  0.19420999999999997  0.37656999999999996  0.46251999999999993  1.0000
  H   H174      1.0  0.21230999999999994  0.38394999999999996  0.34492999999999996  1.0000
  H   H175      1.0  0.049359999999999994  0.33362  0.5742  1.0000
  H   H176      1.0  0.9515199999999999  0.47748  0.70281  1.0000
  H   H177      1.0  0.81242  0.32821  0.63248  1.0000
  H   H178      1.0  0.7701  0.2384  0.50066  1.0000
  H   H179      1.0  0.6868299999999998  0.09272  0.43443  1.0000
  H   H180      1.0  0.87743  0.04565999999999997  0.52131  1.0000
  H   H181      1.0  0.9590899999999999  0.19075  0.58889  1.0000
  H   H182      1.0  0.59755  0.9632999999999999  0.44072  1.0000
  H   H183      1.0  0.51733  0.82001  0.36878  1.0000
  H   H184      1.0  0.7594299999999997  0.8104299999999998  0.34741  1.0000
  H   H185      1.0  0.8402599999999999  0.9542  0.41633  1.0000
  H   H186      1.0  0.46148999999999996  0.6786699999999999  0.33707999999999994  1.0000
  H   H187      1.0  0.68765  0.72822  0.23965  1.0000
  H   H188      1.0  0.55083  0.58333  0.16146  1.0000
  H   H189      1.0  0.34031  0.71276  0.46093999999999996  1.0000
  H   H190      1.0  0.33121999999999996  0.6675199999999999  0.3725399999999999  1.0000
  C   C1        1.0  0.40862999999999994  0.8673599999999999  0.6598599999999999  1.0000
  C   C2        1.0  0.46374  0.94235  0.71165  1.0000
  C   C3        1.0  0.47734000000000004  0.93985  0.7782399999999999  1.0000
  C   C4        1.0  0.43762000000000006  0.8677900000000001  0.79454  1.0000
  C   C5        1.0  0.38019999999999987  0.7945199999999998  0.7442  1.0000
  C   C6        1.0  0.36669  0.79566  0.67826  1.0000
  C   C7        1.0  0.39289999999999997  0.86388  0.58817  1.0000
  C   C8        1.0  0.4605899999999999  0.86798  0.86448  1.0000
  C   C9        1.0  0.5489899999999998  0.7310099999999998  0.89598  1.0000
  C   C10       1.0  0.68463  0.8249299999999999  0.9172  1.0000
  C   C11       1.0  0.68335  0.75481  0.87682  1.0000
  C   C12       1.0  0.56176  0.6112799999999998  0.8250299999999999  1.0000
  C   C13       1.0  0.61508  0.57342  0.8139599999999999  1.0000
  C   C14       1.0  0.57937  0.49103  0.77683  1.0000
  C   C15       1.0  0.48981  0.44343  0.7511  1.0000
  C   C16       1.0  0.4379099999999999  0.48334999999999995  0.7633  1.0000
  C   C17       1.0  0.47295  0.56593  0.79862  1.0000
  C   C18       1.0  0.45103  0.35534  0.71308  1.0000
  C   C19       1.0  0.49673999999999996  0.31036  0.71145  1.0000
  C   C20       1.0  0.45827999999999997  0.22689999999999994  0.67759  1.0000
  C   C21       1.0  0.37279999999999996  0.18638999999999994  0.6435799999999999  1.0000
  C   C22       1.0  0.32671  0.22974  0.64292  1.0000
  C   C23       1.0  0.36539999999999984  0.3127799999999999  0.6775  1.0000
  C   C24       1.0  0.36896  0.05652999999999999  0.57357  1.0000
  C   C25       1.0  0.24342999999999998  0.047219999999999984  0.60639  1.0000
  C   C26       1.0  0.2314  0.97205  0.5674  1.0000
  C   C27       1.0  0.4589599999999998  0.8673899999999998  0.15974  1.0000
  C   C28       1.0  0.47869999999999996  0.9421799999999999  0.21166  1.0000
  C   C29       1.0  0.46245999999999987  0.9393999999999999  0.27817  1.0000
  C   C30       1.0  0.4299699999999999  0.86721  0.29438  1.0000
  C   C31       1.0  0.41424  0.79413  0.24381  1.0000
  C   C32       1.0  0.4290499999999999  0.7955099999999998  0.17792  1.0000
  C   C33       1.0  0.47130999999999984  0.8642199999999998  0.08811999999999999  1.0000
  C   C34       1.0  0.4069799999999999  0.8674899999999998  0.36437  1.0000
  C   C35       1.0  0.18162000000000003  0.73085  0.39628  1.0000
  C   C36       1.0  0.13988999999999996  0.82466  0.41733  1.0000
  C   C37       1.0  0.07109999999999995  0.7545499999999999  0.37681999999999993  1.0000
  C   C38       1.0  0.04917999999999991  0.6110699999999998  0.32516  1.0000
  C   C39       1.0  0.95797  0.57312  0.31412  1.0000
  C   C40       1.0  0.9112699999999997  0.4907099999999999  0.27701  1.0000
  C   C41       1.0  0.9532899999999999  0.4432299999999999  0.25129  1.0000
  C   C42       1.0  0.045159999999999936  0.48328999999999994  0.26345  1.0000
  C   C43       1.0  0.09269999999999999  0.5658699999999999  0.29875  1.0000
  C   C44       1.0  0.90405  0.35514  0.21321  1.0000
  C   C45       1.0  0.81333  0.3100499999999999  0.21145  1.0000
  C   C46       1.0  0.76836  0.22661999999999993  0.17748  1.0000
  C   C47       1.0  0.81341  0.18623  0.14356  1.0000
  C   C48       1.0  0.90289  0.22966  0.14306  1.0000
  C   C49       1.0  0.9471900000000001  0.3127  0.17769999999999997  1.0000
  C   C50       1.0  0.68721  0.05647999999999999  0.07361  1.0000
  C   C51       1.0  0.80335  0.04693999999999999  0.1064  1.0000
  C   C52       1.0  0.7398699999999999  0.97179  0.06761  1.0000
  C   C53       1.0  0.09066999999999997  0.15632  0.59834  1.0000
  C   C54       1.0  0.11817999999999998  0.23098  0.65257  1.0000
  C   C55       1.0  0.10147999999999999  0.22618  0.71849  1.0000
  C   C56       1.0  0.06301  0.15218  0.73141  1.0000
  C   C57       1.0  0.03767000000000002  0.07858000000000004  0.67825  1.0000
  C   C58       1.0  0.051309999999999995  0.08184  0.61285  1.0000
  C   C59       1.0  0.10705999999999996  0.15493999999999988  0.5280999999999999  1.0000
  C   C60       1.0  0.04683999999999997  0.15164999999999995  0.80211  1.0000
  C   C61       1.0  0.83716  0.00900000000000002  0.83388  1.0000
  C   C62       1.0  0.78052  0.07013999999999997  0.90811  1.0000
  C   C63       1.0  0.7129199999999998  0.99674  0.8711399999999999  1.0000
  C   C64       1.0  0.70553  0.8777099999999999  0.77664  1.0000
  C   C65       1.0  0.6145499999999999  0.8360599999999999  0.76639  1.0000
  C   C66       1.0  0.57071  0.75566  0.72491  1.0000
  C   C67       1.0  0.61553  0.7143399999999998  0.69085  1.0000
  C   C68       1.0  0.7071699999999999  0.7588999999999998  0.69949  1.0000
  C   C69       1.0  0.75196  0.83913  0.74212  1.0000
  C   C70       1.0  0.5673499999999998  0.6280599999999997  0.6481399999999999  1.0000
  C   C71       1.0  0.4764599999999999  0.5903699999999997  0.62843  1.0000
  C   C72       1.0  0.4303  0.50993  0.5873  1.0000
  C   C73       1.0  0.4741  0.46431  0.56426  1.0000
  C   C74       1.0  0.56395  0.49912999999999996  0.58437  1.0000
  C   C75       1.0  0.6095099999999998  0.5799199999999999  0.6257099999999999  1.0000
  C   C76       1.0  0.33911999999999987  0.33370999999999995  0.5112499999999999  1.0000
  C   C77       1.0  0.46116000000000007  0.34244  0.47107999999999994  1.0000
  C   C78       1.0  0.39194  0.26909999999999995  0.43600999999999995  1.0000
  C   C79       1.0  0.06646  0.15695  0.09834  1.0000
  C   C80       1.0  0.11310999999999997  0.23160999999999998  0.15272  1.0000
  C   C81       1.0  0.12587  0.22677  0.2185  1.0000
  C   C82       1.0  0.09091999999999999  0.15282999999999997  0.23138999999999998  1.0000
  C   C83       1.0  0.042389999999999976  0.07922  0.17826  1.0000
  C   C84       1.0  0.031659999999999994  0.08247999999999998  0.11285999999999999  1.0000
  C   C85       1.0  0.049699999999999994  0.15563  0.027879999999999995  1.0000
  C   C86       1.0  0.1073  0.15267  0.30211  1.0000
  C   C87       1.0  0.17258  0.008760000000000007  0.33377  1.0000
  C   C88       1.0  0.29092999999999997  0.06996  0.40759  1.0000
  C   C89       1.0  0.2847399999999998  0.9964099999999999  0.37068  1.0000
  C   C90       1.0  0.1723399999999999  0.8772099999999998  0.27664  1.0000
  C   C91       1.0  0.22144999999999995  0.83542  0.26658  1.0000
  C   C92       1.0  0.18476999999999993  0.755  0.22516  1.0000
  C   C93       1.0  0.09866  0.71381  0.19089999999999996  1.0000
  C   C94       1.0  0.051670000000000015  0.75842  0.19949999999999998  1.0000
  C   C95       1.0  0.08727  0.83868  0.24209  1.0000
  C   C96       1.0  0.06057  0.6276  0.14801  1.0000
  C   C97       1.0  0.11381000000000004  0.59  0.12832  1.0000
  C   C98       1.0  0.07941999999999996  0.50957  0.08714  1.0000
  C   C99       1.0  0.98999  0.46387999999999996  0.06394  1.0000
  C   C100      1.0  0.93498  0.49867  0.08399  1.0000
  C   C101      1.0  0.9702600000000001  0.57944  0.12539  1.0000
  C   C102      1.0  0.9949999999999999  0.33369999999999994  0.01034  1.0000
  C   C103      1.0  0.8809699999999999  0.3418999999999999  0.9707399999999999  1.0000
  C   C104      1.0  0.8771299999999999  0.26881999999999984  0.9353299999999999  1.0000
  C   C105      1.0  0.5917299999999999  0.23209999999999992  0.43010999999999994  1.0000
  C   C106      1.0  0.6393199999999999  0.3035699999999999  0.48672999999999994  1.0000
  C   C107      1.0  0.6504399999999998  0.2947999999999999  0.55087  1.0000
  C   C108      1.0  0.61641  0.21815999999999997  0.55959  1.0000
  C   C109      1.0  0.56755  0.14772999999999994  0.50412  1.0000
  C   C110      1.0  0.55516  0.15566  0.44073  1.0000
  C   C111      1.0  0.5801399999999999  0.2364  0.36024999999999996  1.0000
  C   C112      1.0  0.63694  0.21156999999999998  0.62706  1.0000
  C   C113      1.0  0.70874  0.05584000000000001  0.64236  1.0000
  C   C114      1.0  0.81298  0.10892999999999997  0.72819  1.0000
  C   C115      1.0  0.80693  0.035279999999999916  0.6919399999999999  1.0000
  C   C116      1.0  0.7035899999999999  0.9203399999999998  0.59262  1.0000
  C   C117      1.0  0.61445  0.87868  0.56783  1.0000
  C   C118      1.0  0.5780199999999998  0.7983099999999996  0.52598  1.0000
  C   C119      1.0  0.62911  0.75821  0.50923  1.0000
  C   C120      1.0  0.7185599999999999  0.8011799999999999  0.5349299999999999  1.0000
  C   C121      1.0  0.75611  0.88214  0.57591  1.0000
  C   C122      1.0  0.58952  0.6730599999999999  0.46456  1.0000
  C   C123      1.0  0.5048899999999998  0.61671  0.46898  1.0000
  C   C124      1.0  0.46708999999999984  0.5362399999999999  0.42692  1.0000
  C   C125      1.0  0.51352  0.5117  0.37853  1.0000
  C   C126      1.0  0.59737  0.567  0.37236  1.0000
  C   C127      1.0  0.63519  0.64688  0.41575  1.0000
  C   C128      1.0  0.51639  0.38228999999999996  0.31969  1.0000
  C   C129      1.0  0.38937  0.3819499999999999  0.3037  1.0000
  C   C130      1.0  0.3819499999999999  0.30731  0.26874  1.0000
  C   C131      1.0  0.6409399999999998  0.23233999999999996  0.9301699999999999  1.0000
  C   C132      1.0  0.6646999999999998  0.3038399999999999  0.98672  1.0000
  C   C133      1.0  0.64465  0.29509  0.05081  1.0000
  C   C134      1.0  0.60173  0.21845  0.05942999999999999  1.0000
  C   C135      1.0  0.58043  0.14798  0.00414  1.0000
  C   C136      1.0  0.6011799999999999  0.15592  0.9408799999999999  1.0000
  C   C137      1.0  0.65684  0.23659000000000005  0.86032  1.0000
  C   C138      1.0  0.5737599999999998  0.21137999999999998  0.12643999999999997  1.0000
  C   C139      1.0  0.34685  0.05570999999999999  0.14267  1.0000
  C   C140      1.0  0.29581999999999997  0.10881999999999997  0.22842  1.0000
  C   C141      1.0  0.22808999999999993  0.03517999999999999  0.19214  1.0000
  C   C142      1.0  0.21647  0.92026  0.09285999999999998  1.0000
  C   C143      1.0  0.26408  0.87879  0.06809  1.0000
  C   C144      1.0  0.22024  0.7984  0.02629  1.0000
  C   C145      1.0  0.12901  0.75809  0.00952  1.0000
  C   C146      1.0  0.08239999999999999  0.80087  0.03522  1.0000
  C   C147      1.0  0.12568999999999986  0.8818699999999998  0.07616  1.0000
  C   C148      1.0  0.08347000000000003  0.67293  0.9649099999999999  1.0000
  C   C149      1.0  0.11192999999999996  0.61668  0.96927  1.0000
  C   C150      1.0  0.06922  0.53622  0.92718  1.0000
  C   C151      1.0  0.99804  0.51163  0.87887  1.0000
  C   C152      1.0  0.96921  0.56678  0.8728499999999999  1.0000
  C   C153      1.0  0.01135000000000002  0.64665  0.91623  1.0000
  C   C154      1.0  0.86577  0.38221  0.8198099999999999  1.0000
  C   C155      1.0  0.99251  0.38215  0.8037  1.0000
  C   C156      1.0  0.9252599999999996  0.3075999999999998  0.7684499999999999  1.0000
  C   C157      1.0  0.89049  0.80071  0.32063  1.0000
  C   C158      1.0  0.94196  0.8748899999999997  0.37449  1.0000
  C   C159      1.0  0.9550199999999999  0.8697999999999998  0.44034999999999996  1.0000
  C   C160      1.0  0.915  0.79634  0.45402999999999993  1.0000
  C   C161      1.0  0.8612699999999999  0.72358  0.40153  1.0000
  C   C162      1.0  0.85072  0.72683  0.336  1.0000
  C   C163      1.0  0.8723999999999998  0.80046  0.25056  1.0000
  C   C164      1.0  0.9314  0.7946800000000002  0.52447  1.0000
  C   C165      1.0  0.98197  0.6272999999999997  0.54964  1.0000
  C   C166      1.0  0.11650999999999995  0.7182699999999999  0.55661  1.0000
  C   C167      1.0  0.10945999999999996  0.64575  0.51598  1.0000
  C   C168      1.0  0.9855399999999996  0.5029999999999998  0.47468  1.0000
  C   C169      1.0  0.03883999999999994  0.46633999999999987  0.45475999999999994  1.0000
  C   C170      1.0  0.001700000000000014  0.38345  0.41971  1.0000
  C   C171      1.0  0.9107999999999998  0.33428999999999987  0.40463  1.0000
  C   C172      1.0  0.8583799999999999  0.37256  0.42485  1.0000
  C   C173      1.0  0.89488  0.45577  0.45854999999999996  1.0000
  C   C174      1.0  0.872  0.24605999999999997  0.36872  1.0000
  C   C175      1.0  0.91855  0.20265999999999998  0.37055  1.0000
  C   C176      1.0  0.88274  0.11966  0.33627  1.0000
  C   C177      1.0  0.79898  0.07851  0.2989  1.0000
  C   C178      1.0  0.7507299999999998  0.11977  0.29698  1.0000
  C   C179      1.0  0.7872199999999999  0.20268  0.33189  1.0000
  C   C180      1.0  0.8079400000000001  0.9555299999999999  0.22927999999999998  1.0000
  C   C181      1.0  0.6749899999999999  0.93771  0.2478  1.0000
  C   C182      1.0  0.67033  0.86612  0.20744999999999997  1.0000
  C   C183      1.0  0.9097799999999999  0.7994999999999999  0.8200599999999999  1.0000
  C   C184      1.0  0.9322  0.87324  0.8743199999999999  1.0000
  C   C185      1.0  0.91433  0.86732  0.94  1.0000
  C   C186      1.0  0.8802599999999999  0.7934  0.9529199999999999  1.0000
  C   C187      1.0  0.86107  0.72102  0.89994  1.0000
  C   C188      1.0  0.8753500000000001  0.72517  0.83473  1.0000
  C   C189      1.0  0.9289500000000002  0.8001600000000001  0.75043  1.0000
  C   C190      1.0  0.86176  0.79079  0.02307  1.0000
  C   C191      1.0  0.64484  0.62739  0.04999  1.0000
  C   C192      1.0  0.60135  0.7182799999999999  0.056839999999999995  1.0000
  C   C193      1.0  0.5359399999999997  0.6458099999999998  0.01595  1.0000
  C   C194      1.0  0.5171999999999998  0.5031099999999997  0.97464  1.0000
  C   C195      1.0  0.42716  0.46624  0.95478  1.0000
  C   C196      1.0  0.38153999999999993  0.38334999999999997  0.9196499999999999  1.0000
  C   C197      1.0  0.42349  0.33442  0.9044999999999999  1.0000
  C   C198      1.0  0.51428  0.37294  0.92461  1.0000
  C   C199      1.0  0.56085  0.4561399999999999  0.95838  1.0000
  C   C200      1.0  0.37422999999999995  0.2461599999999999  0.8686499999999999  1.0000
  C   C201      1.0  0.2843  0.20254  0.87049  1.0000
  C   C202      1.0  0.23725999999999997  0.11947  0.83639  1.0000
  C   C203      1.0  0.28  0.0785  0.79911  1.0000
  C   C204      1.0  0.36947  0.11996999999999994  0.79715  1.0000
  C   C205      1.0  0.41575  0.20292000000000002  0.83194  1.0000
  C   C206      1.0  0.14823999999999996  0.95533  0.72937  1.0000
  C   C207      1.0  0.26355  0.9378399999999999  0.7480799999999999  1.0000
  C   C208      1.0  0.1966899999999999  0.8661899999999998  0.70762  1.0000
  C   C209      1.0  0.24933  0.51394  0.8732599999999999  1.0000
  C   C210      1.0  0.29621  0.58783  0.92845  1.0000
  C   C211      1.0  0.3013  0.58225  0.99489  1.0000
  C   C212      1.0  0.26166  0.50775  0.00714  1.0000
  C   C213      1.0  0.21328999999999992  0.43515999999999994  0.9531899999999999  1.0000
  C   C214      1.0  0.20859999999999998  0.4394799999999999  0.8875399999999999  1.0000
  C   C215      1.0  0.23657999999999998  0.51469  0.8027899999999999  1.0000
  C   C216      1.0  0.27763  0.50476  0.07703  1.0000
  C   C217      1.0  0.34757999999999983  0.3538999999999999  0.09988  1.0000
  C   C218      1.0  0.47413  0.42667999999999995  0.16449  1.0000
  C   C219      1.0  0.4708800000000001  0.35365  0.12974  1.0000
  C   C220      1.0  0.35354  0.22370999999999994  0.04907  1.0000
  C   C221      1.0  0.40301  0.19617999999999997  0.00621  1.0000
  C   C222      1.0  0.36763999999999997  0.11387  0.9692  1.0000
  C   C223      1.0  0.28252999999999995  0.05798999999999997  0.97338  1.0000
  C   C224      1.0  0.23358999999999996  0.08746999999999999  0.016199999999999996  1.0000
  C   C225      1.0  0.26878  0.16937999999999995  0.054279999999999995  1.0000
  C   C226      1.0  0.24518000000000012  0.97101  0.93319  1.0000
  C   C227      1.0  0.2969499999999999  0.93117  0.91969  1.0000
  C   C228      1.0  0.2616299999999998  0.8499699999999998  0.87945  1.0000
  C   C229      1.0  0.17348  0.8073  0.85187  1.0000
  C   C230      1.0  0.12002999999999998  0.84446  0.86695  1.0000
  C   C231      1.0  0.1558799999999999  0.92562  0.9069899999999999  1.0000
  C   C232      1.0  0.16851999999999995  0.6717  0.7996899999999999  1.0000
  C   C233      1.0  0.07571999999999998  0.69684  0.7480499999999999  1.0000
  C   C234      1.0  0.07087999999999997  0.62417  0.7104499999999999  1.0000
  C   C235      1.0  0.26494  0.51403  0.37322  1.0000
  C   C236      1.0  0.29164  0.5877  0.42857  1.0000
  C   C237      1.0  0.28011  0.58174  0.49484  1.0000
  C   C238      1.0  0.24465999999999996  0.50694  0.50667  1.0000
  C   C239      1.0  0.22155999999999998  0.43468999999999997  0.4526899999999999  1.0000
  C   C240      1.0  0.23129  0.43941  0.38722  1.0000
  C   C241      1.0  0.27814  0.51492  0.30277  1.0000
  C   C242      1.0  0.22403999999999988  0.5032199999999998  0.57609  1.0000
  C   C243      1.0  0.005360000000000016  0.35362  0.6002  1.0000
  C   C244      1.0  0.95132  0.42626  0.66437  1.0000
  C   C245      1.0  0.8816199999999998  0.3532499999999999  0.62936  1.0000
  C   C246      1.0  0.86947  0.22343  0.54893  1.0000
  C   C247      1.0  0.7924199999999999  0.19573  0.50594  1.0000
  C   C248      1.0  0.7456599999999999  0.11341999999999998  0.46888  1.0000
  C   C249      1.0  0.77511  0.05772999999999997  0.47314999999999996  1.0000
  C   C250      1.0  0.85365  0.08741  0.51601  1.0000
  C   C251      1.0  0.90022  0.16932  0.55415  1.0000
  C   C252      1.0  0.72554  0.97073  0.43306  1.0000
  C   C253      1.0  0.6339  0.93084  0.41953999999999997  1.0000
  C   C254      1.0  0.58798  0.8496599999999999  0.37928999999999996  1.0000
  C   C255      1.0  0.63352  0.80709  0.35174  1.0000
  C   C256      1.0  0.7241599999999999  0.84427  0.36691999999999997  1.0000
  C   C257      1.0  0.76948  0.92541  0.407  1.0000
  C   C258      1.0  0.5028199999999999  0.6717199999999999  0.29932  1.0000
  C   C259      1.0  0.62082  0.69665  0.24791  1.0000
  C   C260      1.0  0.55279  0.62411  0.21021  1.0000
  N   N1        1.0  0.50008  0.016299999999999995  0.70069  1.0000
  N   N2        1.0  0.6003399999999998  0.8095499999999998  0.9289  1.0000
  N   N3        1.0  0.59658  0.69508  0.8635399999999999  1.0000
  N   N4        1.0  0.33124  0.10068999999999996  0.6100999999999999  1.0000
  N   N5        1.0  0.30996  0.9785199999999998  0.54658  1.0000
  N   N6        1.0  0.51635  0.01619999999999999  0.2007  1.0000
  N   N7        1.0  0.20881000000000005  0.80936  0.42922  1.0000
  N   N8        1.0  0.09813999999999999  0.69488  0.36367  1.0000
  N   N9        1.0  0.76923  0.10053999999999996  0.11003999999999999  1.0000
  N   N10       1.0  0.66789  0.9784  0.04676  1.0000
  N   N11       1.0  0.16119  0.30547  0.64366  1.0000
  N   N12       1.0  0.85785  0.07764000000000001  0.88417  1.0000
  N   N13       1.0  0.74968  0.95771  0.8239699999999999  1.0000
  N   N14       1.0  0.42703  0.38349  0.51883  1.0000
  N   N15       1.0  0.3161699999999999  0.26393  0.46161  1.0000
  N   N16       1.0  0.14351  0.30619  0.14419  1.0000
  N   N17       1.0  0.221  0.07750999999999997  0.38386  1.0000
  N   N18       1.0  0.2085799999999999  0.9573499999999999  0.32378  1.0000
  N   N19       1.0  0.9564  0.38314  0.01836  1.0000
  N   N20       1.0  0.94823  0.26398999999999995  0.9605799999999999  1.0000
  N   N21       1.0  0.6710899999999999  0.38075999999999993  0.48023  1.0000
  N   N22       1.0  0.7517599999999999  0.12160999999999998  0.69666  1.0000
  N   N23       1.0  0.73989  0.0014499999999999869  0.63801  1.0000
  N   N24       1.0  0.47524  0.42933999999999994  0.33551  1.0000
  N   N25       1.0  0.46126  0.3077  0.27939  1.0000
  N   N26       1.0  0.7101300000000001  0.38104000000000005  0.98017  1.0000
  N   N27       1.0  0.36972  0.12148999999999999  0.19696999999999998  1.0000
  N   N28       1.0  0.26126999999999995  0.0013599999999999984  0.13826  1.0000
  N   N29       1.0  0.9539999999999998  0.4293199999999999  0.8357399999999999  1.0000
  N   N30       1.0  0.84632  0.30781  0.77921  1.0000
  N   N31       1.0  0.9754099999999999  0.9492199999999998  0.36561  1.0000
  N   N32       1.0  0.03676999999999991  0.7061599999999998  0.57778  1.0000
  N   N33       1.0  0.023289999999999957  0.58771  0.51133  1.0000
  N   N34       1.0  0.7628  0.99432  0.26152  1.0000
  N   N35       1.0  0.75355  0.8777  0.19590999999999997  1.0000
  N   N36       1.0  0.9721299999999998  0.9477199999999999  0.86573  1.0000
  N   N37       1.0  0.66891  0.7062  0.07826  1.0000
  N   N38       1.0  0.56405  0.58779  0.011409999999999998  1.0000
  N   N39       1.0  0.23216999999999993  0.9942799999999999  0.76178  1.0000
  N   N40       1.0  0.12499  0.87761  0.69597  1.0000
  N   N41       1.0  0.33482  0.6629  0.92017  1.0000
  N   N42       1.0  0.39723  0.42676  0.14546  1.0000
  N   N43       1.0  0.38967  0.30742  0.08917  1.0000
  N   N44       1.0  0.13880999999999993  0.72728  0.80443  1.0000
  N   N45       1.0  0.12839  0.60841  0.74315  1.0000
  N   N46       1.0  0.3282899999999999  0.6629099999999998  0.42049999999999993  1.0000
  N   N47       1.0  0.02842  0.42638  0.64577  1.0000
  N   N48       1.0  0.91677  0.3071  0.58908  1.0000
  N   N49       1.0  0.58821  0.72713  0.30423  1.0000
  N   N50       1.0  0.4794999999999999  0.60848  0.24274999999999997  1.0000
  O   O1        1.0  0.32975  0.80124  0.54554  1.0000
  O   O2        1.0  0.44138  0.9258  0.56863  1.0000
  O   O3        1.0  0.52219  0.9344699999999999  0.90628  1.0000
  O   O4        1.0  0.42282  0.80372  0.88104  1.0000
  O   O5        1.0  0.47285  0.8020399999999998  0.04562999999999999  1.0000
  O   O6        1.0  0.4838199999999999  0.92583  0.06846  1.0000
  O   O7        1.0  0.41298  0.93437  0.40625999999999995  1.0000
  O   O8        1.0  0.37915  0.80307  0.38086  1.0000
  O   O9        1.0  0.09351999999999998  0.08860999999999997  0.48288999999999993  1.0000
  O   O10       1.0  0.14056999999999994  0.22228999999999993  0.51282  1.0000
  O   O11       1.0  0.05411000000000001  0.21795000000000006  0.84523  1.0000
  O   O12       1.0  0.02362999999999998  0.08706999999999995  0.81804  1.0000
  O   O13       1.0  0.99861  0.08915  0.98197  1.0000
  O   O14       1.0  0.08283999999999997  0.22321999999999995  0.013  1.0000
  O   O15       1.0  0.16768999999999995  0.21853  0.34468  1.0000
  O   O16       1.0  0.06486999999999997  0.08860999999999995  0.31856  1.0000
  O   O17       1.0  0.52369  0.17130999999999993  0.31376  1.0000
  O   O18       1.0  0.62339  0.30284  0.34698999999999997  1.0000
  O   O19       1.0  0.69513  0.27608  0.67229  1.0000
  O   O20       1.0  0.60062  0.14378999999999992  0.6389499999999999  1.0000
  O   O21       1.0  0.6489899999999998  0.1717199999999999  0.81402  1.0000
  O   O22       1.0  0.6793  0.30284  0.84693  1.0000
  O   O23       1.0  0.5809999999999998  0.27581  0.1724  1.0000
  O   O24       1.0  0.5407599999999999  0.14279999999999995  0.13684  1.0000
  O   O25       1.0  0.8107899999999999  0.7355699999999997  0.20767  1.0000
  O   O26       1.0  0.9143199999999999  0.86451  0.23286  1.0000
  O   O27       1.0  0.9973400000000001  0.85675  0.5657  1.0000
  O   O28       1.0  0.88291  0.73268  0.54201  1.0000
  O   O29       1.0  0.92603  0.73555  0.70752  1.0000
  O   O30       1.0  0.9519599999999999  0.8646  0.73313  1.0000
  O   O31       1.0  0.86208  0.85424  0.06579  1.0000
  O   O32       1.0  0.8440699999999998  0.7269799999999997  0.03894  1.0000
  O   O33       1.0  0.17829999999999996  0.44922999999999996  0.75754  1.0000
  O   O34       1.0  0.2773399999999998  0.5797999999999998  0.78657  1.0000
  O   O35       1.0  0.3388199999999999  0.5690099999999998  0.12025  1.0000
  O   O36       1.0  0.23441999999999996  0.43938  0.09149  1.0000
  O   O37       1.0  0.27116  0.44955999999999996  0.25752  1.0000
  O   O38       1.0  0.30176  0.57988  0.28647  1.0000
  O   O39       1.0  0.2234  0.56632  0.6180799999999999  1.0000
  O   O40       1.0  0.20464999999999994  0.4388199999999999  0.59142  1.0000
