data_image0
_chemical_formula_structural       Cu12H160C180N36O32
_chemical_formula_sum              "Cu12 H160 C180 N36 O32"
_cell_length_a       14.79918
_cell_length_b       19.86344
_cell_length_c       21.638540000000003
_cell_angle_alpha    116.87028
_cell_angle_beta     98.45934000000001
_cell_angle_gamma    90.26974

_symmetry_space_group_name_H-M    'P 1'
_symmetry_Int_Tables_number       1

loop_
  _symmetry_equiv_pos_as_xyz
  'x,y,z'

loop_
  _atom_site_type_symbol
  _atom_site_label
  _atom_site_symmetry_multiplicity
  _atom_site_fract_x
  _atom_site_fract_y
  _atom_site_fract_z
  _atom_site_occupancy
  Cu  Cu1       1.0  0.8797799999999998  0.28967  0.2018  1.0000
  Cu  Cu2       1.0  0.36968  0.38112999999999997  0.30335  1.0000
  Cu  Cu3       1.0  0.58512  0.18542999999999996  0.28712  1.0000
  Cu  Cu4       1.0  0.6297799999999998  0.09111999999999995  0.80073  1.0000
  Cu  Cu5       1.0  0.13625  0.08350000000000003  0.69927  1.0000
  Cu  Cu6       1.0  0.9192300000000001  0.90183  0.71159  1.0000
  Cu  Cu7       1.0  0.12437  0.7103299999999998  0.79919  1.0000
  Cu  Cu8       1.0  0.6303299999999997  0.61707  0.69538  1.0000
  Cu  Cu9       1.0  0.4174799999999999  0.81392  0.71152  1.0000
  Cu  Cu10      1.0  0.3723  0.9084999999999999  0.19946  1.0000
  Cu  Cu11      1.0  0.86385  0.91585  0.30036  1.0000
  Cu  Cu12      1.0  0.08231  0.09638  0.2874  1.0000
  H   H1        1.0  0.79323  0.53152  0.65674  1.0000
  H   H2        1.0  0.8699099999999999  0.4696899999999999  0.55231  1.0000
  H   H3        1.0  0.6600699999999999  0.54443  0.44110999999999995  1.0000
  H   H4        1.0  0.59172  0.60207  0.55001  1.0000
  H   H5        1.0  0.93409  0.30888  0.34209  1.0000
  H   H6        1.0  0.88966  0.38487999999999994  0.45497  1.0000
  H   H7        1.0  0.74868  0.5212699999999999  0.36618  1.0000
  H   H8        1.0  0.80376  0.43971999999999994  0.25575  1.0000
  H   H9        1.0  0.781  0.7570699999999999  0.21221999999999996  1.0000
  H   H10       1.0  0.81529  0.62781  0.19531  1.0000
  H   H11       1.0  0.012230000000000001  0.7337599999999997  0.38791  1.0000
  H   H12       1.0  0.97009  0.8588999999999999  0.39569  1.0000
  H   H13       1.0  0.9838899999999999  0.42293  0.14329  1.0000
  H   H14       1.0  0.92347  0.54607  0.16231  1.0000
  H   H15       1.0  0.98738  0.61797  0.38612  1.0000
  H   H16       1.0  0.0409  0.4902399999999999  0.35617  1.0000
  H   H17       1.0  0.96342  0.13635999999999993  0.74718  1.0000
  H   H18       1.0  0.90099  0.19049  0.85762  1.0000
  H   H19       1.0  0.17047  0.18270000000000003  0.9639  1.0000
  H   H20       1.0  0.22154  0.13074000000000008  0.8477700000000001  1.0000
  H   H21       1.0  0.44654  0.05468999999999999  0.19287  1.0000
  H   H22       1.0  0.41508999999999996  0.9651099999999999  0.06805  1.0000
  H   H23       1.0  0.6004  0.10935  0.03277  1.0000
  H   H24       1.0  0.6232899999999999  0.19391  0.16029  1.0000
  H   H25       1.0  0.7969499999999999  0.23526  0.05592  1.0000
  H   H26       1.0  0.85069  0.19437999999999997  0.94284  1.0000
  H   H27       1.0  0.12771  0.25752  0.059649999999999995  1.0000
  H   H28       1.0  0.06333  0.29906  0.16781  1.0000
  H   H29       1.0  0.79869  0.12887  0.37422  1.0000
  H   H30       1.0  0.6832600000000001  0.11998  0.38489  1.0000
  H   H31       1.0  0.77483  0.25803999999999994  0.38346  1.0000
  H   H32       1.0  0.75604  0.2527  0.45989  1.0000
  H   H33       1.0  0.6371399999999999  0.37539  0.45321  1.0000
  H   H34       1.0  0.68848  0.3418799999999999  0.37599  1.0000
  H   H35       1.0  0.53731  0.29375  0.46076  1.0000
  H   H36       1.0  0.61602  0.23715999999999995  0.48014999999999997  1.0000
  H   H37       1.0  0.5984  0.035299999999999984  0.28158  1.0000
  H   H38       1.0  0.62866  0.01909999999999999  0.20067  1.0000
  H   H39       1.0  0.8371999999999999  0.12418  0.27746  1.0000
  H   H40       1.0  0.76055  0.07585  0.19822  1.0000
  H   H41       1.0  0.70785  0.86661  0.34541  1.0000
  H   H42       1.0  0.6339  0.9116399999999998  0.45125  1.0000
  H   H43       1.0  0.83153  0.10711999999999999  0.54882  1.0000
  H   H44       1.0  0.8979099999999999  0.05257999999999997  0.4393099999999999  1.0000
  H   H45       1.0  0.5708899999999999  0.9712399999999999  0.66285  1.0000
  H   H46       1.0  0.6089  0.9327099999999999  0.54788  1.0000
  H   H47       1.0  0.75473  0.15472999999999995  0.62899  1.0000
  H   H48       1.0  0.70641  0.18532999999999997  0.7423  1.0000
  H   H49       1.0  0.71417  0.54682  0.7831  1.0000
  H   H50       1.0  0.68472  0.43191  0.7981  1.0000
  H   H51       1.0  0.48135  0.34891  0.6091  1.0000
  H   H52       1.0  0.51968  0.46836  0.60275  1.0000
  H   H53       1.0  0.52608  0.2736999999999998  0.8509999999999999  1.0000
  H   H54       1.0  0.58082  0.38027  0.83216  1.0000
  H   H55       1.0  0.51059  0.23361  0.60819  1.0000
  H   H56       1.0  0.46327000000000007  0.13305  0.63788  1.0000
  H   H57       1.0  0.54217  0.38823999999999986  0.25435  1.0000
  H   H58       1.0  0.60534  0.33247  0.14443  1.0000
  H   H59       1.0  0.33697  0.21556999999999998  0.03841  1.0000
  H   H60       1.0  0.28512  0.27915  0.15404  1.0000
  H   H61       1.0  0.05172  0.8578899999999999  0.8049  1.0000
  H   H62       1.0  0.08192999999999999  0.8913799999999998  0.92994  1.0000
  H   H63       1.0  0.91133  0.07842999999999992  0.96578  1.0000
  H   H64       1.0  0.8890699999999999  0.03671000000000003  0.83826  1.0000
  H   H65       1.0  0.7118  0.18379  0.94734  1.0000
  H   H66       1.0  0.6568799999999998  0.25311999999999996  0.05981  1.0000
  H   H67       1.0  0.3804  0.19481000000000007  0.9419500000000001  1.0000
  H   H68       1.0  0.44577  0.13143999999999992  0.8343  1.0000
  H   H69       1.0  0.70382  0.75737  0.6202  1.0000
  H   H70       1.0  0.81981  0.7394099999999999  0.61103  1.0000
  H   H71       1.0  0.72993  0.8799199999999999  0.61528  1.0000
  H   H72       1.0  0.74837  0.80084  0.53782  1.0000
  H   H73       1.0  0.8678  0.9296099999999999  0.54586  1.0000
  H   H74       1.0  0.81625  0.97167  0.62295  1.0000
  H   H75       1.0  0.97005  0.84204  0.54053  1.0000
  H   H76       1.0  0.88896  0.7661399999999999  0.51738  1.0000
  H   H77       1.0  0.8993399999999999  0.7529499999999999  0.71387  1.0000
  H   H78       1.0  0.87032  0.8165599999999998  0.79505  1.0000
  H   H79       1.0  0.66363  0.8501099999999999  0.71542  1.0000
  H   H80       1.0  0.73535  0.87378  0.79567  1.0000
  H   H81       1.0  0.20817  0.46671999999999997  0.3429  1.0000
  H   H82       1.0  0.13301  0.5301799999999999  0.44791  1.0000
  H   H83       1.0  0.34227  0.45441  0.55863  1.0000
  H   H84       1.0  0.40941  0.3954799999999999  0.44922  1.0000
  H   H85       1.0  0.06848  0.69091  0.65757  1.0000
  H   H86       1.0  0.11299999999999999  0.61459  0.54491  1.0000
  H   H87       1.0  0.25338  0.47834999999999994  0.63406  1.0000
  H   H88       1.0  0.1979  0.55987  0.74423  1.0000
  H   H89       1.0  0.21992  0.24142  0.78682  1.0000
  H   H90       1.0  0.18570999999999996  0.37093  0.80432  1.0000
  H   H91       1.0  0.98667  0.26581999999999995  0.61286  1.0000
  H   H92       1.0  0.028910000000000012  0.14041000000000006  0.6044  1.0000
  H   H93       1.0  0.02115  0.5773299999999998  0.8578599999999998  1.0000
  H   H94       1.0  0.07953  0.4533499999999999  0.83818  1.0000
  H   H95       1.0  0.011640000000000003  0.38134999999999986  0.61456  1.0000
  H   H96       1.0  0.95994  0.5098  0.64509  1.0000
  H   H97       1.0  0.03575  0.85974  0.25219  1.0000
  H   H98       1.0  0.09816999999999998  0.80417  0.14182  1.0000
  H   H99       1.0  0.83111  0.8172899999999997  0.03564  1.0000
  H   H100      1.0  0.7797499999999998  0.8703099999999999  0.15159  1.0000
  H   H101      1.0  0.55598  0.94468  0.80542  1.0000
  H   H102      1.0  0.58722  0.03444000000000009  0.9302100000000001  1.0000
  H   H103      1.0  0.40269  0.8898099999999999  0.96565  1.0000
  H   H104      1.0  0.38061  0.80486  0.83845  1.0000
  H   H105      1.0  0.20475  0.75872  0.94417  1.0000
  H   H106      1.0  0.15036  0.79842  0.05666  1.0000
  H   H107      1.0  0.87336  0.7433  0.93959  1.0000
  H   H108      1.0  0.9383199999999999  0.70249  0.8319  1.0000
  H   H109      1.0  0.20223  0.87043  0.62512  1.0000
  H   H110      1.0  0.31732  0.88012  0.61419  1.0000
  H   H111      1.0  0.22720999999999994  0.7416  0.61595  1.0000
  H   H112      1.0  0.24466  0.7470099999999998  0.5393  1.0000
  H   H113      1.0  0.36426  0.62408  0.54468  1.0000
  H   H114      1.0  0.3130199999999999  0.65736  0.62197  1.0000
  H   H115      1.0  0.46132  0.7054399999999998  0.535  1.0000
  H   H116      1.0  0.38421  0.7654499999999999  0.51958  1.0000
  H   H117      1.0  0.40212  0.9647999999999999  0.7172  1.0000
  H   H118      1.0  0.37308999999999987  0.9806599999999998  0.79833  1.0000
  H   H119      1.0  0.16438  0.87193  0.72058  1.0000
  H   H120      1.0  0.23931999999999995  0.92385  0.80021  1.0000
  H   H121      1.0  0.29034999999999994  0.13306999999999994  0.65291  1.0000
  H   H122      1.0  0.36464  0.08732000000000001  0.54744  1.0000
  H   H123      1.0  0.17093  0.88928  0.45215  1.0000
  H   H124      1.0  0.10395  0.9446299999999999  0.56124  1.0000
  H   H125      1.0  0.43208  0.027070000000000004  0.33815  1.0000
  H   H126      1.0  0.39371  0.06463999999999999  0.45277  1.0000
  H   H127      1.0  0.24272  0.84425  0.36895  1.0000
  H   H128      1.0  0.29192  0.8143899999999997  0.25617  1.0000
  H   H129      1.0  0.28357  0.4530199999999999  0.21721  1.0000
  H   H130      1.0  0.31317  0.56748  0.20149  1.0000
  H   H131      1.0  0.51839  0.65024  0.38937  1.0000
  H   H132      1.0  0.48006  0.5312  0.39641  1.0000
  H   H133      1.0  0.4735499999999999  0.7236299999999998  0.14658  1.0000
  H   H134      1.0  0.4183  0.61773  0.16624  1.0000
  H   H135      1.0  0.48862  0.7657  0.38996  1.0000
  H   H136      1.0  0.53624  0.8655499999999999  0.35944  1.0000
  H   H137      1.0  0.45669999999999994  0.61299  0.74468  1.0000
  H   H138      1.0  0.39411  0.66846  0.85493  1.0000
  H   H139      1.0  0.66314  0.78386  0.96068  1.0000
  H   H140      1.0  0.71462  0.7204899999999997  0.8448799999999999  1.0000
  H   H141      1.0  0.95245  0.13959999999999997  0.19293  1.0000
  H   H142      1.0  0.92507  0.10639999999999997  0.06799  1.0000
  H   H143      1.0  0.09127999999999999  0.9170599999999998  0.03313  1.0000
  H   H144      1.0  0.11315  0.95978  0.16098  1.0000
  H   H145      1.0  0.28976  0.8193599999999999  0.053239999999999996  1.0000
  H   H146      1.0  0.34364  0.74965  0.94015  1.0000
  H   H147      1.0  0.62047  0.8026099999999999  0.05712  1.0000
  H   H148      1.0  0.5560199999999997  0.8662699999999999  0.16528  1.0000
  H   H149      1.0  0.29856  0.23958999999999997  0.3774  1.0000
  H   H150      1.0  0.18317  0.25923  0.3873  1.0000
  H   H151      1.0  0.2716  0.11843999999999998  0.38384  1.0000
  H   H152      1.0  0.25259  0.19807999999999995  0.46082  1.0000
  H   H153      1.0  0.13369  0.06932  0.45311  1.0000
  H   H154      1.0  0.18429999999999996  0.02652999999999999  0.37542  1.0000
  H   H155      1.0  0.03216999999999999  0.15664  0.45879  1.0000
  H   H156      1.0  0.11244  0.23288999999999996  0.4809  1.0000
  H   H157      1.0  0.10144  0.24539  0.28532  1.0000
  H   H158      1.0  0.12971  0.18211  0.20374  1.0000
  H   H159      1.0  0.33703999999999995  0.14858999999999994  0.28064  1.0000
  H   H160      1.0  0.26265  0.12275999999999998  0.20096  1.0000
  C   C1        1.0  0.76579  0.53208  0.60749  1.0000
  C   C2        1.0  0.80864  0.49864  0.54924  1.0000
  C   C3        1.0  0.7728  0.50152  0.48635  1.0000
  C   C4        1.0  0.6936  0.54128  0.4878  1.0000
  C   C5        1.0  0.65407  0.5729799999999999  0.54791  1.0000
  C   C6        1.0  0.89518  0.35774999999999996  0.34971  1.0000
  C   C7        1.0  0.86896  0.40178  0.41399  1.0000
  C   C8        1.0  0.81182  0.4610599999999999  0.42234  1.0000
  C   C9        1.0  0.78936  0.4749  0.36355  1.0000
  C   C10       1.0  0.81963  0.42935999999999996  0.30128  1.0000
  C   C11       1.0  0.8323  0.74889  0.24929  1.0000
  C   C12       1.0  0.85237  0.6772199999999998  0.24013  1.0000
  C   C13       1.0  0.9203399999999999  0.66887  0.28871  1.0000
  C   C14       1.0  0.96061  0.7359999999999999  0.3476  1.0000
  C   C15       1.0  0.93741  0.8058399999999999  0.35276  1.0000
  C   C16       1.0  0.98311  0.46745999999999993  0.19644  1.0000
  C   C17       1.0  0.94847  0.5362699999999999  0.2072  1.0000
  C   C18       1.0  0.95057  0.59409  0.27629  1.0000
  C   C19       1.0  0.9855  0.5770100000000001  0.33127  1.0000
  C   C20       1.0  0.01663  0.50562  0.31458  1.0000
  C   C21       1.0  0.00660999999999998  0.14832999999999993  0.79677  1.0000
  C   C22       1.0  0.97257  0.17827999999999994  0.8590899999999999  1.0000
  C   C23       1.0  0.029799999999999993  0.19215999999999986  0.9229599999999999  1.0000
  C   C24       1.0  0.12207000000000001  0.17498000000000005  0.9178000000000001  1.0000
  C   C25       1.0  0.1513  0.14498  0.8534299999999999  1.0000
  C   C26       1.0  0.4805399999999999  0.0644  0.15593  1.0000
  C   C27       1.0  0.4630499999999999  0.014079999999999999  0.08472  1.0000
  C   C28       1.0  0.50764  0.02646  0.03693  1.0000
  C   C29       1.0  0.56521  0.09382999999999998  0.06564  1.0000
  C   C30       1.0  0.5787699999999999  0.14197  0.13716  1.0000
  C   C31       1.0  0.86956  0.24015999999999998  0.05418  1.0000
  C   C32       1.0  0.90044  0.21744999999999995  0.99117  1.0000
  C   C33       1.0  0.99559  0.22039  0.98901  1.0000
  C   C34       1.0  0.05373  0.25068  0.05537999999999999  1.0000
  C   C35       1.0  0.01821  0.27431  0.11689  1.0000
  C   C36       1.0  0.72965  0.14612999999999993  0.36525  1.0000
  C   C37       1.0  0.72953  0.2319  0.40358  1.0000
  C   C38       1.0  0.63142  0.3315199999999999  0.39852  1.0000
  C   C39       1.0  0.54332  0.33512  0.35374  1.0000
  C   C40       1.0  0.57429  0.24291000000000004  0.4366300000000001  1.0000
  C   C41       1.0  0.50131  0.17468  0.39927  1.0000
  C   C42       1.0  0.65678  0.036590000000000004  0.25602  1.0000
  C   C43       1.0  0.72015  0.9767899999999999  0.25832  1.0000
  C   C44       1.0  0.76847  0.12488  0.25036  1.0000
  C   C45       1.0  0.76779  0.19566999999999998  0.23916  1.0000
  C   C46       1.0  0.73336  0.9190699999999999  0.39216  1.0000
  C   C47       1.0  0.69178  0.9453999999999999  0.45119000000000004  1.0000
  C   C48       1.0  0.72519  0.014420000000000002  0.5108  1.0000
  C   C49       1.0  0.80027  0.054240000000000024  0.50509  1.0000
  C   C50       1.0  0.8387800000000001  0.024089999999999993  0.44450000000000006  1.0000
  C   C51       1.0  0.60953  0.011489999999999997  0.65321  1.0000
  C   C52       1.0  0.6320499999999999  0.99028  0.58748  1.0000
  C   C53       1.0  0.68865  0.03965999999999998  0.57615  1.0000
  C   C54       1.0  0.71399  0.11206999999999999  0.63363  1.0000
  C   C55       1.0  0.68767  0.12974999999999995  0.69763  1.0000
  C   C56       1.0  0.66269  0.5016899999999999  0.74641  1.0000
  C   C57       1.0  0.64535  0.43778  0.75448  1.0000
  C   C58       1.0  0.57713  0.38104  0.70636  1.0000
  C   C59       1.0  0.53356  0.39104999999999995  0.64888  1.0000
  C   C60       1.0  0.55433  0.45694  0.64463  1.0000
  C   C61       1.0  0.52422  0.26671  0.79784  1.0000
  C   C62       1.0  0.55569  0.32618  0.78719  1.0000
  C   C63       1.0  0.55005  0.31716  0.71821  1.0000
  C   C64       1.0  0.51518  0.24576999999999993  0.66306  1.0000
  C   C65       1.0  0.48758  0.18946999999999992  0.67961  1.0000
  C   C66       1.0  0.4992399999999999  0.35011  0.20499  1.0000
  C   C67       1.0  0.53383  0.31798  0.14288  1.0000
  C   C68       1.0  0.4772599999999999  0.26742  0.07911  1.0000
  C   C69       1.0  0.38506  0.25439  0.08431  1.0000
  C   C70       1.0  0.3553399999999999  0.28856  0.14855  1.0000
  C   C71       1.0  0.020380000000000027  0.9055999999999998  0.8421100000000001  1.0000
  C   C72       1.0  0.03734999999999998  0.92563  0.9134  1.0000
  C   C73       1.0  0.99659  0.98756  0.9614300000000001  1.0000
  C   C74       1.0  0.94354  0.02872000000000004  0.9328900000000001  1.0000
  C   C75       1.0  0.9303599999999997  0.006140000000000013  0.86135  1.0000
  C   C76       1.0  0.63895  0.18850000000000006  0.9485900000000002  1.0000
  C   C77       1.0  0.60736  0.22734  0.01136  1.0000
  C   C78       1.0  0.51207  0.23047  0.01322  1.0000
  C   C79       1.0  0.45453  0.19385  0.9466199999999999  1.0000
  C   C80       1.0  0.49071000000000004  0.15754000000000004  0.88531  1.0000
  C   C81       1.0  0.7731300000000002  0.78434  0.63082  1.0000
  C   C82       1.0  0.77482  0.83411  0.59433  1.0000
  C   C83       1.0  0.87341  0.93955  0.60057  1.0000
  C   C84       1.0  0.9614199999999999  0.9878599999999998  0.64563  1.0000
  C   C85       1.0  0.93057  0.81366  0.56248  1.0000
  C   C86       1.0  0.0010900000000000052  0.78019  0.5991  1.0000
  C   C87       1.0  0.84155  0.7802899999999998  0.73962  1.0000
  C   C88       1.0  0.77621  0.7187  0.73712  1.0000
  C   C89       1.0  0.73247  0.8750099999999997  0.74527  1.0000
  C   C90       1.0  0.73863  0.95832  0.76085  1.0000
  C   C91       1.0  0.23589  0.46638999999999997  0.39219  1.0000
  C   C92       1.0  0.19383  0.50066  0.45077999999999996  1.0000
  C   C93       1.0  0.22978  0.49785  0.51369  1.0000
  C   C94       1.0  0.30857  0.45753  0.51196  1.0000
  C   C95       1.0  0.34741  0.42505999999999994  0.45151  1.0000
  C   C96       1.0  0.10761000000000003  0.6422099999999998  0.65032  1.0000
  C   C97       1.0  0.13375  0.59788  0.58603  1.0000
  C   C98       1.0  0.19088  0.5386099999999998  0.57777  1.0000
  C   C99       1.0  0.21292  0.5248  0.6366  1.0000
  C   C100      1.0  0.1826  0.5704799999999999  0.69882  1.0000
  C   C101      1.0  0.16828  0.24987999999999994  0.75012  1.0000
  C   C102      1.0  0.14827  0.3216499999999999  0.75961  1.0000
  C   C103      1.0  0.07984999999999998  0.33026999999999995  0.71148  1.0000
  C   C104      1.0  0.03883  0.26334  0.65274  1.0000
  C   C105      1.0  0.06205000000000003  0.19336000000000003  0.6472  1.0000
  C   C106      1.0  0.020479999999999977  0.53256  0.80459  1.0000
  C   C107      1.0  0.05398999999999999  0.46328999999999987  0.79345  1.0000
  C   C108      1.0  0.050249999999999996  0.40528999999999993  0.72425  1.0000
  C   C109      1.0  0.01469999999999997  0.42251  0.66948  1.0000
  C   C110      1.0  0.98472  0.4943099999999999  0.68651  1.0000
  C   C111      1.0  0.993  0.84864  0.20267  1.0000
  C   C112      1.0  0.02714  0.81794  0.14036  1.0000
  C   C113      1.0  0.97073  0.8052599999999998  0.07649  1.0000
  C   C114      1.0  0.87897  0.82419  0.08171  1.0000
  C   C115      1.0  0.84961  0.85481  0.14607  1.0000
  C   C116      1.0  0.52208  0.9349399999999999  0.8423999999999999  1.0000
  C   C117      1.0  0.53953  0.98533  0.91361  1.0000
  C   C118      1.0  0.49505  0.9729899999999998  0.9614699999999999  1.0000
  C   C119      1.0  0.43788999999999995  0.90543  0.9328599999999999  1.0000
  C   C120      1.0  0.42458  0.85706  0.8614  1.0000
  C   C121      1.0  0.13189999999999993  0.7556399999999998  0.9456999999999999  1.0000
  C   C122      1.0  0.10058  0.7776299999999998  0.00846  1.0000
  C   C123      1.0  0.00528  0.77687  0.01052  1.0000
  C   C124      1.0  0.94752  0.74878  0.94409  1.0000
  C   C125      1.0  0.9834400000000001  0.7257399999999999  0.8827800000000001  1.0000
  C   C126      1.0  0.27155  0.85353  0.63391  1.0000
  C   C127      1.0  0.27193  0.7677899999999999  0.59548  1.0000
  C   C128      1.0  0.37011  0.66781  0.59948  1.0000
  C   C129      1.0  0.45846  0.66348  0.64366  1.0000
  C   C130      1.0  0.42642  0.75697  0.56139  1.0000
  C   C131      1.0  0.50174  0.82333  0.59874  1.0000
  C   C132      1.0  0.34423  0.9630599999999999  0.74309  1.0000
  C   C133      1.0  0.28022  0.022719999999999983  0.74123  1.0000
  C   C134      1.0  0.23344  0.87398  0.74877  1.0000
  C   C135      1.0  0.23689999999999997  0.8041199999999998  0.76151  1.0000
  C   C136      1.0  0.2656  0.07991000000000001  0.60671  1.0000
  C   C137      1.0  0.3074  0.05319999999999998  0.54782  1.0000
  C   C138      1.0  0.27498  0.9834799999999998  0.48867  1.0000
  C   C139      1.0  0.20097  0.9431399999999999  0.49511000000000005  1.0000
  C   C140      1.0  0.16218  0.9736999999999999  0.55558  1.0000
  C   C141      1.0  0.3924  0.9868299999999998  0.34713  1.0000
  C   C142      1.0  0.36952  0.00753999999999999  0.41266  1.0000
  C   C143      1.0  0.31155  0.95841  0.42333  1.0000
  C   C144      1.0  0.2849999999999999  0.88667  0.36513  1.0000
  C   C145      1.0  0.31178  0.86941  0.30136  1.0000
  C   C146      1.0  0.33557000000000003  0.49792  0.25346  1.0000
  C   C147      1.0  0.35294  0.56161  0.24500000000000002  1.0000
  C   C148      1.0  0.42177  0.61808  0.29253  1.0000
  C   C149      1.0  0.46577  0.60819  0.34996  1.0000
  C   C150      1.0  0.44497  0.5424699999999999  0.35455  1.0000
  C   C151      1.0  0.47528999999999993  0.73102  0.19987  1.0000
  C   C152      1.0  0.44354  0.6719499999999997  0.21099  1.0000
  C   C153      1.0  0.44903  0.6816  0.28016  1.0000
  C   C154      1.0  0.4840799999999999  0.75312  0.33498  1.0000
  C   C155      1.0  0.51195  0.8089899999999998  0.31797  1.0000
  C   C156      1.0  0.50003  0.65056  0.79407  1.0000
  C   C157      1.0  0.46571999999999997  0.6825699999999999  0.8563600000000001  1.0000
  C   C158      1.0  0.52274  0.7325  0.9201399999999998  1.0000
  C   C159      1.0  0.61489  0.74527  0.91475  1.0000
  C   C160      1.0  0.64435  0.7112099999999998  0.85038  1.0000
  C   C161      1.0  0.98399  0.09171  0.15609  1.0000
  C   C162      1.0  0.96825  0.07162  0.08482  1.0000
  C   C163      1.0  0.00842  0.009039999999999996  0.03709  1.0000
  C   C164      1.0  0.06007  0.96748  0.06592  1.0000
  C   C165      1.0  0.0727  0.99052  0.13761  1.0000
  C   C166      1.0  0.36236  0.8129399999999999  0.05156  1.0000
  C   C167      1.0  0.39333999999999997  0.77403  0.98853  1.0000
  C   C168      1.0  0.48846  0.7693499999999998  0.9863299999999999  1.0000
  C   C169      1.0  0.54646  0.8046599999999999  0.05278999999999999  1.0000
  C   C170      1.0  0.51083  0.84102  0.11436  1.0000
  C   C171      1.0  0.22885  0.21354  0.36731  1.0000
  C   C172      1.0  0.22661999999999996  0.16426  0.4043  1.0000
  C   C173      1.0  0.12754  0.058969999999999995  0.39825  1.0000
  C   C174      1.0  0.03898999999999998  0.010940000000000009  0.35355  1.0000
  C   C175      1.0  0.07083000000000002  0.18487000000000006  0.43628000000000006  1.0000
  C   C176      1.0  0.9993500000000001  0.21714999999999995  0.39916  1.0000
  C   C177      1.0  0.15891  0.21805  0.25913  1.0000
  C   C178      1.0  0.22407  0.2797299999999999  0.2617  1.0000
  C   C179      1.0  0.26793  0.12285  0.25208  1.0000
  C   C180      1.0  0.26326  0.04009999999999998  0.23828  1.0000
  N   N1        1.0  0.68836  0.56799  0.60706  1.0000
  N   N2        1.0  0.87016  0.36984999999999996  0.29276  1.0000
  N   N3        1.0  0.87566  0.81279  0.30368  1.0000
  N   N4        1.0  0.017839999999999995  0.4512399999999999  0.24882999999999997  1.0000
  N   N5        1.0  0.09478999999999996  0.13114  0.79296  1.0000
  N   N6        1.0  0.53962  0.12697999999999998  0.18277  1.0000
  N   N7        1.0  0.92626  0.26870999999999995  0.11764  1.0000
  N   N8        1.0  0.6351  0.25436  0.39255  1.0000
  N   N9        1.0  0.69636  0.11609000000000001  0.2881  1.0000
  N   N10       1.0  0.80729  0.95684  0.38881  1.0000
  N   N11       1.0  0.63793  0.08004999999999997  0.70895  1.0000
  N   N12       1.0  0.6165  0.51253  0.69332  1.0000
  N   N13       1.0  0.48953  0.19870999999999997  0.74537  1.0000
  N   N14       1.0  0.41111999999999993  0.33594  0.20891  1.0000
  N   N15       1.0  0.96549  0.94392  0.81553  1.0000
  N   N16       1.0  0.58287  0.15299999999999997  0.88486  1.0000
  N   N17       1.0  0.8695600000000001  0.8681  0.60645  1.0000
  N   N18       1.0  0.80466  0.8291099999999999  0.70825  1.0000
  N   N19       1.0  0.3128199999999999  0.42977999999999994  0.39228  1.0000
  N   N20       1.0  0.13262999999999994  0.63034  0.70742  1.0000
  N   N21       1.0  0.12439999999999998  0.18619  0.69583  1.0000
  N   N22       1.0  0.9853  0.5489599999999999  0.75242  1.0000
  N   N23       1.0  0.9054099999999999  0.8676699999999998  0.20655  1.0000
  N   N24       1.0  0.46334  0.8721599999999999  0.81568  1.0000
  N   N25       1.0  0.07563  0.7298799999999998  0.88228  1.0000
  N   N26       1.0  0.36649  0.74523  0.60588  1.0000
  N   N27       1.0  0.30513  0.8834499999999998  0.71098  1.0000
  N   N28       1.0  0.19236999999999996  0.04182000000000004  0.61059  1.0000
  N   N29       1.0  0.36316  0.91887  0.29081  1.0000
  N   N30       1.0  0.38234999999999997  0.4869799999999999  0.3063  1.0000
  N   N31       1.0  0.51006  0.79916  0.25204  1.0000
  N   N32       1.0  0.58828  0.66417  0.79002  1.0000
  N   N33       1.0  0.03778  0.05314  0.18307  1.0000
  N   N34       1.0  0.4189  0.84682  0.11515  1.0000
  N   N35       1.0  0.13175  0.13039  0.39227  1.0000
  N   N36       1.0  0.19636999999999993  0.1689  0.28997  1.0000
  O   O1        1.0  0.50938  0.27332  0.30074  1.0000
  O   O2        1.0  0.50941  0.39827  0.36969  1.0000
  O   O3        1.0  0.49989  0.1311  0.33382  1.0000
  O   O4        1.0  0.44984  0.16881000000000004  0.43813  1.0000
  O   O5        1.0  0.8049499999999999  0.99951  0.28456  1.0000
  O   O6        1.0  0.68615  0.9099799999999999  0.23464000000000002  1.0000
  O   O7        1.0  0.71385  0.24572  0.26529  1.0000
  O   O8        1.0  0.8255199999999999  0.19559  0.2  1.0000
  O   O9        1.0  0.99588  0.9769299999999999  0.69762  1.0000
  O   O10       1.0  0.99479  0.03663000000000001  0.63086  1.0000
  O   O11       1.0  0.004120000000000022  0.8019699999999998  0.66493  1.0000
  O   O12       1.0  0.04994  0.7341399999999999  0.55933  1.0000
  O   O13       1.0  0.69196  0.71444  0.70942  1.0000
  O   O14       1.0  0.8091499999999999  0.67643  0.76236  1.0000
  O   O15       1.0  0.79534  0.9832999999999998  0.73677  1.0000
  O   O16       1.0  0.68178  0.9971199999999999  0.80039  1.0000
  O   O17       1.0  0.49442  0.7252599999999999  0.69568  1.0000
  O   O18       1.0  0.49063  0.59967  0.62791  1.0000
  O   O19       1.0  0.5043499999999997  0.8669999999999999  0.66439  1.0000
  O   O20       1.0  0.55348  0.82784  0.5594  1.0000
  O   O21       1.0  0.19534  9.999999999996962e-06  0.7154  1.0000
  O   O22       1.0  0.3141  0.08955000000000003  0.76494  1.0000
  O   O23       1.0  0.29039  0.75405  0.73429  1.0000
  O   O24       1.0  0.18173999999999996  0.8045199999999998  0.80253  1.0000
  O   O25       1.0  0.005269999999999999  0.020359999999999986  0.30049  1.0000
  O   O26       1.0  0.004659999999999988  0.9635099999999999  0.36955  1.0000
  O   O27       1.0  0.9962  0.19467999999999994  0.33325  1.0000
  O   O28       1.0  0.95006  0.26314000000000004  0.4384700000000001  1.0000
  O   O29       1.0  0.30871  0.28278999999999993  0.28796  1.0000
  O   O30       1.0  0.19089  0.32319999999999993  0.23794  1.0000
  O   O31       1.0  0.20923  0.01644999999999999  0.2652  1.0000
  O   O32       1.0  0.31813  0.0003699999999999994  0.1971  1.0000
