data_image0
_chemical_formula_structural       In8H128C224O64
_chemical_formula_sum              "In8 H128 C224 O64"
_cell_length_a       23.18984
_cell_length_b       23.18125
_cell_length_c       23.374680000000005
_cell_angle_alpha    103.93019999999999
_cell_angle_beta     103.9379
_cell_angle_gamma    120.85353

_space_group_name_H-M_alt    "P 1"
_space_group_IT_number       1

loop_
  _space_group_symop_operation_xyz
  'x, y, z'

loop_
  _atom_site_type_symbol
  _atom_site_label
  _atom_site_symmetry_multiplicity
  _atom_site_fract_x
  _atom_site_fract_y
  _atom_site_fract_z
  _atom_site_occupancy
  In  In1       1.0  0.36084  0.61059  0.22088  1.0000
  In  In2       1.0  0.11054999999999998  0.86081  0.72065  1.0000
  In  In3       1.0  0.5004200000000002  0.9995600000000001  0.24992  1.0000
  In  In4       1.0  0.7506100000000002  0.74947  0.75004  1.0000
  In  In5       1.0  0.24933000000000005  0.25054  0.24993  1.0000
  In  In6       1.0  0.4995400000000001  0.0005099999999999671  0.75009  1.0000
  In  In7       1.0  0.8894600000000003  0.13918  0.27935  1.0000
  In  In8       1.0  0.63916  0.3894  0.77906  1.0000
  H   H1        1.0  0.35737000000000013  0.7846  0.37832  1.0000
  H   H2        1.0  0.3195299999999999  0.8218599999999999  0.46262999999999993  1.0000
  H   H3        1.0  0.17958000000000002  0.59252  0.43218  1.0000
  H   H4        1.0  0.2169700000000001  0.55613  0.34691  1.0000
  H   H5        1.0  0.0674  0.67061  0.53089  1.0000
  H   H6        1.0  0.10865000000000007  0.629  0.45158  1.0000
  H   H7        1.0  0.3286400000000001  0.84176  0.56272  1.0000
  H   H8        1.0  0.2871900000000001  0.88127  0.64093  1.0000
  H   H9        1.0  0.5217800000000001  0.59299  0.37827  1.0000
  H   H10       1.0  0.6440100000000001  0.63999  0.46203  1.0000
  H   H11       1.0  0.75261  0.83845  0.43077  1.0000
  H   H12       1.0  0.62986  0.79001  0.34653999999999996  1.0000
  H   H13       1.0  0.9642800000000001  0.86281  0.5322599999999998  1.0000
  H   H14       1.0  0.8437800000000002  0.8240100000000001  0.45225  1.0000
  H   H15       1.0  0.73443  0.72133  0.56297  1.0000
  H   H16       1.0  0.8541600000000001  0.7610999999999999  0.64193  1.0000
  H   H17       1.0  0.2847  0.85734  0.87834  1.0000
  H   H18       1.0  0.32178  0.81949  0.96268  1.0000
  H   H19       1.0  0.09255000000000015  0.67964  0.93215  1.0000
  H   H20       1.0  0.05629000000000002  0.71698  0.84681  1.0000
  H   H21       1.0  0.17059  0.56734  0.03096  1.0000
  H   H22       1.0  0.12894  0.60859  0.95169  1.0000
  H   H23       1.0  0.3417600000000001  0.82863  0.06269  1.0000
  H   H24       1.0  0.3812500000000001  0.78721  0.14089  1.0000
  H   H25       1.0  0.09304  0.021659999999999947  0.8781299999999999  1.0000
  H   H26       1.0  0.14003000000000007  0.14396000000000006  0.9619500000000001  1.0000
  H   H27       1.0  0.33842  0.25265999999999994  0.9308399999999999  1.0000
  H   H28       1.0  0.28995  0.12984  0.84649  1.0000
  H   H29       1.0  0.36284000000000005  0.46445000000000003  0.03245  1.0000
  H   H30       1.0  0.32402999999999993  0.34387999999999996  0.9523699999999999  1.0000
  H   H31       1.0  0.22114  0.23425  0.06283  1.0000
  H   H32       1.0  0.26092  0.35402  0.14188  1.0000
  H   H33       1.0  0.2349500000000002  0.8595800000000001  0.15531  1.0000
  H   H34       1.0  0.11259000000000008  0.8121400000000001  0.07345  1.0000
  H   H35       1.0  0.22396999999999997  0.9339699999999999  0.97332  1.0000
  H   H36       1.0  0.3451400000000001  0.9812700000000001  0.05656  1.0000
  H   H37       1.0  0.9022500000000001  0.7560700000000001  0.9418399999999999  1.0000
  H   H38       1.0  0.02180000000000005  0.7946  0.02022  1.0000
  H   H39       1.0  0.12921999999999997  0.89599  0.90727  1.0000
  H   H40       1.0  0.011029999999999932  0.85978  0.83222  1.0000
  H   H41       1.0  0.64043  0.26519  0.34464  1.0000
  H   H42       1.0  0.68803  0.3876200000000001  0.42674  1.0000
  H   H43       1.0  0.56601  0.27594  0.5266  1.0000
  H   H44       1.0  0.5186700000000001  0.15472000000000005  0.44321  1.0000
  H   H45       1.0  0.7438900000000003  0.59791  0.55831  1.0000
  H   H46       1.0  0.7054199999999999  0.4782899999999999  0.4798799999999999  1.0000
  H   H47       1.0  0.60385  0.37063  0.59263  1.0000
  H   H48       1.0  0.6399900000000001  0.4888700000000001  0.66771  1.0000
  H   H49       1.0  0.5798200000000001  0.70343  0.8455100000000001  1.0000
  H   H50       1.0  0.53952  0.7385599999999999  0.9275899999999999  1.0000
  H   H51       1.0  0.7509400000000003  0.96008  0.02653  1.0000
  H   H52       1.0  0.7885200000000001  0.9235  0.94298  1.0000
  H   H53       1.0  0.46024000000000015  0.8156500000000001  0.05761  1.0000
  H   H54       1.0  0.5013899999999999  0.77547  0.9791  1.0000
  H   H55       1.0  0.72218  0.98855  0.09258  1.0000
  H   H56       1.0  0.67932  0.027450000000000002  0.16814  1.0000
  H   H57       1.0  0.7963300000000001  0.92024  0.65455  1.0000
  H   H58       1.0  0.7614400000000002  0.96046  0.57233  1.0000
  H   H59       1.0  0.5398900000000001  0.74913  0.47337  1.0000
  H   H60       1.0  0.5762600000000001  0.7115000000000002  0.55702  1.0000
  H   H61       1.0  0.6844  0.03992999999999994  0.44236999999999993  1.0000
  H   H62       1.0  0.72464  0.99872  0.52082  1.0000
  H   H63       1.0  0.5115299999999999  0.7778600000000001  0.4073899999999999  1.0000
  H   H64       1.0  0.47262  0.82077  0.33187  1.0000
  H   H65       1.0  0.42023000000000005  0.29655  0.15453  1.0000
  H   H66       1.0  0.46049  0.26145  0.0724  1.0000
  H   H67       1.0  0.24910000000000004  0.03992  0.97347  1.0000
  H   H68       1.0  0.21152  0.0765  0.05705  1.0000
  H   H69       1.0  0.5397700000000001  0.18434000000000011  0.9424  1.0000
  H   H70       1.0  0.4986000000000001  0.22455  0.0209  1.0000
  H   H71       1.0  0.27782  0.011489999999999967  0.9074199999999999  1.0000
  H   H72       1.0  0.32067999999999997  0.97255  0.8318799999999998  1.0000
  H   H73       1.0  0.20359  0.07989000000000003  0.3455  1.0000
  H   H74       1.0  0.23854  0.03959  0.42764  1.0000
  H   H75       1.0  0.46012  0.25097  0.52655  1.0000
  H   H76       1.0  0.4236300000000001  0.28861  0.44298  1.0000
  H   H77       1.0  0.31564000000000003  0.96014  0.55759  1.0000
  H   H78       1.0  0.2754  0.0013299999999999992  0.47913  1.0000
  H   H79       1.0  0.48848000000000014  0.22222000000000006  0.59259  1.0000
  H   H80       1.0  0.52738  0.17931  0.66811  1.0000
  H   H81       1.0  0.7650200000000001  0.1404  0.84464  1.0000
  H   H82       1.0  0.8873800000000002  0.18784000000000003  0.9265199999999999  1.0000
  H   H83       1.0  0.776  0.06604  0.02666  1.0000
  H   H84       1.0  0.65483  0.018749999999999992  0.94344  1.0000
  H   H85       1.0  0.09771000000000003  0.24390000000000003  0.05813  1.0000
  H   H86       1.0  0.97818  0.2054200000000001  0.97976  1.0000
  H   H87       1.0  0.87073  0.10396000000000001  0.09269  1.0000
  H   H88       1.0  0.9889300000000002  0.1402  0.16775  1.0000
  H   H89       1.0  0.3595  0.73483  0.65535  1.0000
  H   H90       1.0  0.31204  0.61242  0.57332  1.0000
  H   H91       1.0  0.43411  0.72416  0.47352  1.0000
  H   H92       1.0  0.4813800000000001  0.8453600000000001  0.55687  1.0000
  H   H93       1.0  0.25609000000000004  0.4021199999999999  0.44171  1.0000
  H   H94       1.0  0.2945800000000001  0.5217500000000002  0.52015  1.0000
  H   H95       1.0  0.39621000000000006  0.62943  0.40742  1.0000
  H   H96       1.0  0.3599500000000001  0.5111400000000001  0.33228  1.0000
  H   H97       1.0  0.71532  0.14264  0.12172  1.0000
  H   H98       1.0  0.67817  0.18044000000000002  0.03737  1.0000
  H   H99       1.0  0.90739  0.32031  0.06782  1.0000
  H   H100      1.0  0.9436900000000003  0.28298  0.15314  1.0000
  H   H101      1.0  0.82935  0.4325800000000001  0.96896  1.0000
  H   H102      1.0  0.8709200000000002  0.3914  0.0483  1.0000
  H   H103      1.0  0.6582000000000003  0.17132000000000014  0.9372900000000001  1.0000
  H   H104      1.0  0.6187599999999999  0.21263999999999986  0.8589699999999999  1.0000
  H   H105      1.0  0.9069700000000006  0.9783000000000001  0.12185999999999998  1.0000
  H   H106      1.0  0.85996  0.8559999999999999  0.03802  1.0000
  H   H107      1.0  0.66157  0.74731  0.06913  1.0000
  H   H108      1.0  0.7100400000000001  0.87013  0.15347999999999998  1.0000
  H   H109      1.0  0.6371700000000002  0.53553  0.96758  1.0000
  H   H110      1.0  0.6759800000000001  0.6561000000000001  0.04765  1.0000
  H   H111      1.0  0.77885  0.7657  0.93717  1.0000
  H   H112      1.0  0.73905  0.6459200000000003  0.85811  1.0000
  H   H113      1.0  0.64274  0.21544000000000002  0.62169  1.0000
  H   H114      1.0  0.68052  0.17818  0.53731  1.0000
  H   H115      1.0  0.8205100000000002  0.40754000000000007  0.56783  1.0000
  H   H116      1.0  0.7832000000000001  0.44392  0.65321  1.0000
  H   H117      1.0  0.9326600000000003  0.32941  0.46914999999999996  1.0000
  H   H118      1.0  0.8913800000000002  0.3710500000000001  0.54842  1.0000
  H   H119      1.0  0.67139  0.15825  0.43728  1.0000
  H   H120      1.0  0.71287  0.11873000000000002  0.35912  1.0000
  H   H121      1.0  0.47826000000000013  0.40704000000000007  0.62177  1.0000
  H   H122      1.0  0.3560400000000001  0.36004  0.53799  1.0000
  H   H123      1.0  0.24744000000000005  0.16158000000000006  0.56925  1.0000
  H   H124      1.0  0.3702  0.21004  0.6535  1.0000
  H   H125      1.0  0.03573  0.13717999999999997  0.46766  1.0000
  H   H126      1.0  0.15622000000000005  0.17597000000000004  0.54768  1.0000
  H   H127      1.0  0.26564999999999994  0.27877  0.43707  1.0000
  H   H128      1.0  0.14594000000000001  0.23898  0.35806999999999994  1.0000
  C   C1        1.0  0.3182499999999999  0.74328  0.39048999999999995  1.0000
  C   C2        1.0  0.29743  0.76381  0.4378699999999999  1.0000
  C   C3        1.0  0.24575000000000002  0.70977  0.453  1.0000
  C   C4        1.0  0.21717000000000003  0.63446  0.41959  1.0000
  C   C5        1.0  0.23818000000000006  0.61382  0.37229  1.0000
  C   C6        1.0  0.2888500000000001  0.66809  0.35734  1.0000
  C   C7        1.0  0.12444000000000016  0.70671  0.53715  1.0000
  C   C8        1.0  0.14797000000000018  0.6836200000000001  0.49353  1.0000
  C   C9        1.0  0.22176  0.73213  0.50099  1.0000
  C   C10       1.0  0.2712899999999999  0.80378  0.5549399999999999  1.0000
  C   C11       1.0  0.24836  0.82635  0.59942  1.0000
  C   C12       1.0  0.17440999999999993  0.7785300000000002  0.59021  1.0000
  C   C13       1.0  0.31338  0.64674  0.30814  1.0000
  C   C14       1.0  0.14915999999999996  0.80512  0.6359  1.0000
  C   C15       1.0  0.5727900000000001  0.6466  0.3904  1.0000
  C   C16       1.0  0.64107  0.67343  0.43750999999999995  1.0000
  C   C17       1.0  0.7075900000000002  0.7427000000000001  0.4526  1.0000
  C   C18       1.0  0.7025100000000002  0.78429  0.41886  1.0000
  C   C19       1.0  0.63414  0.75776  0.37198  1.0000
  C   C20       1.0  0.56869  0.6887  0.35735  1.0000
  C   C21       1.0  0.9133300000000001  0.83238  0.53817  1.0000
  C   C22       1.0  0.84614  0.81119  0.49418  1.0000
  C   C23       1.0  0.7796000000000001  0.76919  0.50113  1.0000
  C   C24       1.0  0.7841  0.7518500000000001  0.55538  1.0000
  C   C25       1.0  0.8515300000000001  0.7744  0.60028  1.0000
  C   C26       1.0  0.9163100000000001  0.81332  0.5911399999999999  1.0000
  C   C27       1.0  0.49509000000000003  0.66109  0.30823  1.0000
  C   C28       1.0  0.9872400000000002  0.8322600000000001  0.63644  1.0000
  C   C29       1.0  0.24331000000000017  0.81824  0.89045  1.0000
  C   C30       1.0  0.2637700000000001  0.7974200000000001  0.9378799999999999  1.0000
  C   C31       1.0  0.20977  0.74575  0.95302  1.0000
  C   C32       1.0  0.13452000000000003  0.71722  0.91959  1.0000
  C   C33       1.0  0.11393000000000009  0.7382  0.87223  1.0000
  C   C34       1.0  0.16816  0.78887  0.8572499999999998  1.0000
  C   C35       1.0  0.20666  0.6244  0.0372  1.0000
  C   C36       1.0  0.18356000000000003  0.64795  0.9936200000000001  1.0000
  C   C37       1.0  0.23209000000000005  0.72175  0.00103  1.0000
  C   C38       1.0  0.3037400000000001  0.77128  0.05496  1.0000
  C   C39       1.0  0.3263100000000001  0.74833  0.09943  1.0000
  C   C40       1.0  0.27845999999999993  0.6743700000000001  0.09026  1.0000
  C   C41       1.0  0.1466900000000001  0.81338  0.80804  1.0000
  C   C42       1.0  0.3048200000000001  0.64901  0.13599  1.0000
  C   C43       1.0  0.14661999999999994  0.07272999999999995  0.8903199999999999  1.0000
  C   C44       1.0  0.17345  0.14102000000000003  0.9374499999999999  1.0000
  C   C45       1.0  0.24269999999999997  0.20758999999999997  0.9525899999999999  1.0000
  C   C46       1.0  0.2842800000000001  0.20252000000000012  0.91887  1.0000
  C   C47       1.0  0.25776000000000004  0.13414000000000006  0.8719599999999998  1.0000
  C   C48       1.0  0.18869  0.06866999999999991  0.85726  1.0000
  C   C49       1.0  0.3324  0.41344  0.03831  1.0000
  C   C50       1.0  0.31119000000000013  0.3462100000000001  0.99427  1.0000
  C   C51       1.0  0.26915  0.27961  0.00116  1.0000
  C   C52       1.0  0.25172  0.28401  0.05534  1.0000
  C   C53       1.0  0.2743  0.35147  0.10028  1.0000
  C   C54       1.0  0.31332000000000004  0.41636000000000006  0.09127  1.0000
  C   C55       1.0  0.16105999999999993  0.99507  0.8080799999999999  1.0000
  C   C56       1.0  0.33228  0.48727  0.13672  1.0000
  C   C57       1.0  0.23105000000000014  0.87575  0.11536999999999999  1.0000
  C   C58       1.0  0.16275999999999993  0.84979  0.06926  1.0000
  C   C59       1.0  0.15785000000000005  0.8717900000000001  0.01773  1.0000
  C   C60       1.0  0.22524000000000016  0.9183400000000002  0.01351  1.0000
  C   C61       1.0  0.2936500000000002  0.9447000000000001  0.05966  1.0000
  C   C62       1.0  0.29734000000000016  0.9243000000000001  0.11152999999999999  1.0000
  C   C63       1.0  0.95293  0.7875699999999999  0.93576  1.0000
  C   C64       1.0  0.020279999999999777  0.8086999999999998  0.9791099999999999  1.0000
  C   C65       1.0  0.08654  0.84881  0.9711299999999999  1.0000
  C   C66       1.0  0.08100999999999997  0.86635  0.91683  1.0000
  C   C67       1.0  0.013919999999999872  0.8458499999999998  0.8735599999999999  1.0000
  C   C68       1.0  0.9493900000000003  0.8067900000000001  0.88291  1.0000
  C   C69       1.0  0.37071  0.9530600000000001  0.16172  1.0000
  C   C70       1.0  0.87819  0.78654  0.83691  1.0000
  C   C71       1.0  0.6242500000000001  0.26905  0.38457  1.0000
  C   C72       1.0  0.6503000000000001  0.33735999999999994  0.43078999999999995  1.0000
  C   C73       1.0  0.62822  0.3421699999999999  0.48227  1.0000
  C   C74       1.0  0.5816600000000001  0.27471  0.48642  1.0000
  C   C75       1.0  0.5552300000000002  0.20628000000000005  0.4401900000000001  1.0000
  C   C76       1.0  0.5755900000000002  0.2027  0.3882999999999999  1.0000
  C   C77       1.0  0.7124  0.54717  0.56433  1.0000
  C   C78       1.0  0.69129  0.47979  0.52098  1.0000
  C   C79       1.0  0.6511599999999999  0.41348  0.52891  1.0000
  C   C80       1.0  0.6335400000000001  0.41893  0.58316  1.0000
  C   C81       1.0  0.6540100000000001  0.48605  0.62643  1.0000
  C   C82       1.0  0.69315  0.55065  0.61715  1.0000
  C   C83       1.0  0.54672  0.12932  0.33799  1.0000
  C   C84       1.0  0.71345  0.62189  0.66318  1.0000
  C   C85       1.0  0.61568  0.75968  0.88509  1.0000
  C   C86       1.0  0.5936900000000002  0.7801900000000003  0.93132  1.0000
  C   C87       1.0  0.6403100000000003  0.85391  0.9824  1.0000
  C   C88       1.0  0.71195  0.90429  0.98647  1.0000
  C   C89       1.0  0.7339400000000003  0.8841900000000001  0.9401200000000001  1.0000
  C   C90       1.0  0.6855  0.81198  0.88837  1.0000
  C   C91       1.0  0.5171400000000002  0.85271  0.06385  1.0000
  C   C92       1.0  0.5410900000000001  0.8303300000000001  0.02047  1.0000
  C   C93       1.0  0.61551  0.87797  0.028770000000000004  1.0000
  C   C94       1.0  0.66443  0.9496  0.08314  1.0000
  C   C95       1.0  0.64073  0.97243  0.12662  1.0000
  C   C96       1.0  0.5667600000000002  0.92435  0.11708  1.0000
  C   C97       1.0  0.7081699999999999  0.79037  0.83778  1.0000
  C   C98       1.0  0.54111  0.94939  0.16308  1.0000
  C   C99       1.0  0.7401100000000003  0.8843400000000001  0.61496  1.0000
  C   C100      1.0  0.7197700000000001  0.90632  0.56863  1.0000
  C   C101      1.0  0.6461100000000001  0.8597099999999998  0.5175099999999999  1.0000
  C   C102      1.0  0.5956500000000001  0.78808  0.51346  1.0000
  C   C103      1.0  0.6156  0.76608  0.55987  1.0000
  C   C104      1.0  0.6877300000000001  0.8145400000000002  0.6117  1.0000
  C   C105      1.0  0.64737  0.983  0.43614  1.0000
  C   C106      1.0  0.6697500000000001  0.95901  0.47947999999999996  1.0000
  C   C107      1.0  0.62209  0.88455  0.47116  1.0000
  C   C108      1.0  0.55045  0.83564  0.41682  1.0000
  C   C109      1.0  0.5276500000000001  0.85939  0.37337  1.0000
  C   C110      1.0  0.5757400000000001  0.9334  0.38292999999999994  1.0000
  C   C111      1.0  0.70918  0.7917900000000001  0.66231  1.0000
  C   C112      1.0  0.5507100000000003  0.9590600000000001  0.33691  1.0000
  C   C113      1.0  0.3843700000000001  0.24032  0.11494  1.0000
  C   C114      1.0  0.40634  0.21981  0.06869  1.0000
  C   C115      1.0  0.35969  0.14612  0.01758  1.0000
  C   C116      1.0  0.28808  0.09571  0.01354  1.0000
  C   C117      1.0  0.2661  0.11581000000000001  0.05991  1.0000
  C   C118      1.0  0.3145600000000001  0.18801  0.11167  1.0000
  C   C119      1.0  0.4828600000000002  0.14730000000000007  0.93615  1.0000
  C   C120      1.0  0.45892999999999995  0.16968  0.9795299999999999  1.0000
  C   C121      1.0  0.3845  0.12205000000000003  0.9712299999999999  1.0000
  C   C122      1.0  0.33557  0.05040999999999996  0.9168799999999999  1.0000
  C   C123      1.0  0.3592600000000002  0.027580000000000052  0.87339  1.0000
  C   C124      1.0  0.43324  0.07564999999999995  0.8829400000000001  1.0000
  C   C125      1.0  0.29188000000000003  0.20960000000000004  0.16227  1.0000
  C   C126      1.0  0.4588700000000001  0.050599999999999944  0.83695  1.0000
  C   C127      1.0  0.25981  0.11575  0.38507  1.0000
  C   C128      1.0  0.28022000000000014  0.09374000000000002  0.43135  1.0000
  C   C129      1.0  0.35390000000000016  0.14035  0.48244000000000004  1.0000
  C   C130      1.0  0.4043400000000001  0.21199  0.48648  1.0000
  C   C131      1.0  0.3843100000000001  0.23401  0.4401  1.0000
  C   C132      1.0  0.31214000000000003  0.18557  0.38833  1.0000
  C   C133      1.0  0.35267  0.01707000000000002  0.56382  1.0000
  C   C134      1.0  0.33029  0.04105  0.52047  1.0000
  C   C135      1.0  0.3779300000000001  0.11551  0.52878  1.0000
  C   C136      1.0  0.4495600000000002  0.16444000000000003  0.58314  1.0000
  C   C137      1.0  0.47235999999999995  0.1407  0.6266  1.0000
  C   C138      1.0  0.42429  0.06668000000000002  0.61704  1.0000
  C   C139      1.0  0.29053  0.20826000000000003  0.33772  1.0000
  C   C140      1.0  0.4492900000000001  0.041019999999999966  0.66308  1.0000
  C   C141      1.0  0.7689300000000001  0.12422999999999991  0.88459  1.0000
  C   C142      1.0  0.83721  0.15020000000000003  0.9307199999999999  1.0000
  C   C143      1.0  0.8421200000000004  0.12820000000000006  0.98225  1.0000
  C   C144      1.0  0.77471  0.08164999999999992  0.98646  1.0000
  C   C145      1.0  0.7063000000000001  0.05527999999999996  0.94029  1.0000
  C   C146      1.0  0.7026300000000002  0.0757000000000001  0.88843  1.0000
  C   C147      1.0  0.04704000000000002  0.21242000000000003  0.06420999999999999  1.0000
  C   C148      1.0  0.9797000000000002  0.19131000000000004  0.02087  1.0000
  C   C149      1.0  0.9134200000000002  0.15116000000000002  0.028829999999999998  1.0000
  C   C150      1.0  0.9189399999999999  0.13363  0.08314  1.0000
  C   C151      1.0  0.9860300000000001  0.15412  0.12641  1.0000
  C   C152      1.0  0.05057  0.19318  0.11705999999999998  1.0000
  C   C153      1.0  0.62927  0.04698999999999991  0.83828  1.0000
  C   C154      1.0  0.12176000000000001  0.21344  0.16308  1.0000
  C   C155      1.0  0.37573  0.73097  0.61545  1.0000
  C   C156      1.0  0.34975  0.66269  0.5692599999999999  1.0000
  C   C157      1.0  0.37184000000000006  0.65789  0.51778  1.0000
  C   C158      1.0  0.41844  0.72538  0.5136799999999999  1.0000
  C   C159      1.0  0.44481000000000004  0.7937900000000001  0.5599  1.0000
  C   C160      1.0  0.4243600000000001  0.79735  0.61174  1.0000
  C   C161      1.0  0.28759000000000007  0.45287  0.43568999999999997  1.0000
  C   C162      1.0  0.30872  0.52025  0.47906  1.0000
  C   C163      1.0  0.34891  0.58658  0.47116  1.0000
  C   C164      1.0  0.36651000000000006  0.5811300000000001  0.4168899999999999  1.0000
  C   C165      1.0  0.34598000000000007  0.514  0.3736  1.0000
  C   C166      1.0  0.3068600000000001  0.44939  0.38287  1.0000
  C   C167      1.0  0.45312999999999987  0.8707  0.6619899999999999  1.0000
  C   C168      1.0  0.28655  0.37818  0.33679  1.0000
  C   C169      1.0  0.7566900000000001  0.18174  0.10958999999999999  1.0000
  C   C170      1.0  0.73619  0.20254  0.06216  1.0000
  C   C171      1.0  0.79017  0.25423000000000007  0.04699  1.0000
  C   C172      1.0  0.8654200000000001  0.28274  0.0804  1.0000
  C   C173      1.0  0.8860400000000002  0.26178  0.12776  1.0000
  C   C174      1.0  0.83184  0.21111  0.14277  1.0000
  C   C175      1.0  0.7932400000000001  0.37553  0.9627099999999998  1.0000
  C   C176      1.0  0.81633  0.352  0.00634  1.0000
  C   C177      1.0  0.76782  0.27821999999999997  0.99897  1.0000
  C   C178      1.0  0.6962200000000002  0.22865999999999995  0.9449899999999999  1.0000
  C   C179      1.0  0.67366  0.25157000000000007  0.90046  1.0000
  C   C180      1.0  0.7214700000000001  0.32552  0.90959  1.0000
  C   C181      1.0  0.8533400000000001  0.18666000000000002  0.19203  1.0000
  C   C182      1.0  0.69502  0.3508299999999999  0.8638199999999999  1.0000
  C   C183      1.0  0.8533900000000002  0.92725  0.10968999999999998  1.0000
  C   C184      1.0  0.82656  0.8589599999999998  0.06254  1.0000
  C   C185      1.0  0.7573200000000001  0.79238  0.04741  1.0000
  C   C186      1.0  0.7157100000000001  0.79745  0.08111  1.0000
  C   C187      1.0  0.74224  0.86582  0.12802  1.0000
  C   C188      1.0  0.8113000000000001  0.9313000000000001  0.14273  1.0000
  C   C189      1.0  0.6676300000000001  0.58654  0.96172  1.0000
  C   C190      1.0  0.6888100000000001  0.65375  0.00574  1.0000
  C   C191      1.0  0.73087  0.72036  0.99886  1.0000
  C   C192      1.0  0.74826  0.7159400000000002  0.9446500000000001  1.0000
  C   C193      1.0  0.7257  0.64849  0.89973  1.0000
  C   C194      1.0  0.6867100000000003  0.5836100000000001  0.9087699999999999  1.0000
  C   C195      1.0  0.8389  0.004890000000000004  0.1919  1.0000
  C   C196      1.0  0.66772  0.51269  0.86331  1.0000
  C   C197      1.0  0.6818300000000002  0.25676  0.60952  1.0000
  C   C198      1.0  0.7026400000000002  0.23624  0.56212  1.0000
  C   C199      1.0  0.7543000000000001  0.29027  0.54698  1.0000
  C   C200      1.0  0.78293  0.3656  0.58042  1.0000
  C   C201      1.0  0.76196  0.38624  0.62775  1.0000
  C   C202      1.0  0.7112500000000003  0.33197  0.64266  1.0000
  C   C203      1.0  0.8756200000000001  0.29334  0.46289  1.0000
  C   C204      1.0  0.8520600000000002  0.31644  0.50647  1.0000
  C   C205      1.0  0.7782600000000001  0.2679099999999999  0.4989799999999999  1.0000
  C   C206      1.0  0.72873  0.19625000000000006  0.44505  1.0000
  C   C207      1.0  0.75169  0.17367  0.4006  1.0000
  C   C208      1.0  0.8256400000000003  0.22151  0.40984  1.0000
  C   C209      1.0  0.68658  0.35333  0.69171  1.0000
  C   C210      1.0  0.85093  0.19496000000000002  0.36418  1.0000
  C   C211      1.0  0.4272500000000001  0.35342  0.60961  1.0000
  C   C212      1.0  0.35896000000000006  0.3266  0.56251  1.0000
  C   C213      1.0  0.29244  0.2573  0.54739  1.0000
  C   C214      1.0  0.29754  0.21573999999999996  0.58117  1.0000
  C   C215      1.0  0.36591  0.24226  0.62802  1.0000
  C   C216      1.0  0.43134  0.31133  0.64266  1.0000
  C   C217      1.0  0.08668999999999999  0.16759999999999997  0.46173999999999993  1.0000
  C   C218      1.0  0.15388  0.18881000000000003  0.50577  1.0000
  C   C219      1.0  0.22042999999999996  0.23080999999999993  0.49883999999999995  1.0000
  C   C220      1.0  0.21596  0.2482  0.44462  1.0000
  C   C221      1.0  0.14853  0.22563  0.3997  1.0000
  C   C222      1.0  0.0837000000000001  0.18664000000000008  0.40876000000000007  1.0000
  C   C223      1.0  0.50494  0.33897  0.6918  1.0000
  C   C224      1.0  0.012809999999999972  0.16771999999999998  0.36338999999999994  1.0000
  O   O1        1.0  0.37138  0.6983  0.30606  1.0000
  O   O2        1.0  0.27789  0.57836  0.26978  1.0000
  O   O3        1.0  0.08827000000000008  0.7589900000000002  0.63722  1.0000
  O   O4        1.0  0.18951000000000007  0.8751800000000001  0.67341  1.0000
  O   O5        1.0  0.43502  0.60644  0.3052  1.0000
  O   O6        1.0  0.49243000000000003  0.69243  0.27093  1.0000
  O   O7        1.0  0.049180000000000015  0.88007  0.63762  1.0000
  O   O8        1.0  0.9845800000000001  0.7991200000000002  0.6735  1.0000
  O   O9        1.0  0.19820000000000004  0.8715100000000001  0.80604  1.0000
  O   O10       1.0  0.07835  0.77774  0.7695899999999999  1.0000
  O   O11       1.0  0.25860000000000005  0.5880500000000001  0.13716  1.0000
  O   O12       1.0  0.37483  0.68934  0.17366  1.0000
  O   O13       1.0  0.10646999999999991  0.93501  0.80511  1.0000
  O   O14       1.0  0.19233000000000008  0.99242  0.77072  1.0000
  O   O15       1.0  0.3804100000000001  0.54941  0.13834  1.0000
  O   O16       1.0  0.2988500000000001  0.48441  0.17352  1.0000
  O   O17       1.0  0.3720200000000001  0.9256600000000001  0.20288  1.0000
  O   O18       1.0  0.43076  0.0042299999999999985  0.16239  1.0000
  O   O19       1.0  0.8162200000000001  0.7342  0.8328  1.0000
  O   O20       1.0  0.8799800000000001  0.82148  0.80202  1.0000
  O   O21       1.0  0.5739  0.12809  0.29667  1.0000
  O   O22       1.0  0.49579  0.06923  0.33746  1.0000
  O   O23       1.0  0.7657700000000002  0.68391  0.66731  1.0000
  O   O24       1.0  0.6785400000000003  0.62011  0.6980899999999999  1.0000
  O   O25       1.0  0.66979  0.72153  0.79836  1.0000
  O   O26       1.0  0.7659200000000004  0.8409400000000001  0.83513  1.0000
  O   O27       1.0  0.4807700000000001  0.9010500000000001  0.16394  1.0000
  O   O28       1.0  0.5798  0.018720000000000018  0.20112000000000002  1.0000
  O   O29       1.0  0.77803  0.8299700000000001  0.70163  1.0000
  O   O30       1.0  0.65851  0.73419  0.66501  1.0000
  O   O31       1.0  0.59904  0.019369999999999988  0.33599  1.0000
  O   O32       1.0  0.4814  0.92035  0.29886  1.0000
  O   O33       1.0  0.33014  0.27845  0.20159999999999997  1.0000
  O   O34       1.0  0.23418  0.159  0.16495  1.0000
  O   O35       1.0  0.5192200000000001  0.09893000000000003  0.83608  1.0000
  O   O36       1.0  0.4201700000000001  0.9812800000000002  0.79889  1.0000
  O   O37       1.0  0.22171000000000007  0.16979000000000002  0.29824  1.0000
  O   O38       1.0  0.34106  0.2661  0.33516  1.0000
  O   O39       1.0  0.40097000000000016  0.98072  0.664  1.0000
  O   O40       1.0  0.5186000000000001  0.07971000000000007  0.70111  1.0000
  O   O41       1.0  0.6279400000000002  0.07456999999999996  0.7972599999999999  1.0000
  O   O42       1.0  0.5692200000000001  0.99568  0.83751  1.0000
  O   O43       1.0  0.18375000000000002  0.26578  0.1672  1.0000
  O   O44       1.0  0.11995000000000003  0.17848  0.19794  1.0000
  O   O45       1.0  0.42571000000000003  0.87196  0.70312  1.0000
  O   O46       1.0  0.5042900000000001  0.93079  0.66268  1.0000
  O   O47       1.0  0.23419000000000004  0.31611  0.33257  1.0000
  O   O48       1.0  0.32147000000000003  0.38002  0.3019  1.0000
  O   O49       1.0  0.8018500000000002  0.12860000000000002  0.19412  1.0000
  O   O50       1.0  0.9217  0.22228000000000003  0.23042  1.0000
  O   O51       1.0  0.7411000000000002  0.41203  0.8629  1.0000
  O   O52       1.0  0.6250600000000001  0.31026  0.8259300000000002  1.0000
  O   O53       1.0  0.8934800000000003  0.06497000000000003  0.19488  1.0000
  O   O54       1.0  0.8076200000000002  0.007509999999999981  0.22926  1.0000
  O   O55       1.0  0.61971  0.45059  0.86183  1.0000
  O   O56       1.0  0.7010300000000004  0.5155099999999999  0.8264100000000001  1.0000
  O   O57       1.0  0.62823  0.30175  0.69337  1.0000
  O   O58       1.0  0.7222200000000002  0.42166000000000003  0.73033  1.0000
  O   O59       1.0  0.91172  0.24115  0.36276  1.0000
  O   O60       1.0  0.8107  0.12489  0.32681  1.0000
  O   O61       1.0  0.5649899999999999  0.39361  0.69481  1.0000
  O   O62       1.0  0.50761  0.30761000000000005  0.72908  1.0000
  O   O63       1.0  0.9507800000000003  0.11976000000000003  0.36202  1.0000
  O   O64       1.0  0.01555000000000001  0.20102000000000003  0.32648  1.0000
