data_image0
_chemical_formula_structural       Co20H152C216O96
_chemical_formula_sum              "Co20 H152 C216 O96"
_cell_length_a       14.03359
_cell_length_b       18.54002
_cell_length_c       24.29389
_cell_angle_alpha    90.25565999999999
_cell_angle_beta     89.91463
_cell_angle_gamma    90.00719

_space_group_name_H-M_alt    "P 1"
_space_group_IT_number       1

loop_
  _space_group_symop_operation_xyz
  'x, y, z'

loop_
  _atom_site_type_symbol
  _atom_site_label
  _atom_site_symmetry_multiplicity
  _atom_site_fract_x
  _atom_site_fract_y
  _atom_site_fract_z
  _atom_site_occupancy
  Co  Co1       1.0  0.93056  0.20419  0.93875  1.0000
  Co  Co2       1.0  0.68248  0.81587  0.93958  1.0000
  Co  Co3       1.0  0.07017  0.70535  0.061130000000000004  1.0000
  Co  Co4       1.0  0.62401  0.25922  0.49951  1.0000
  Co  Co5       1.0  0.81766  0.31691  0.43693  1.0000
  Co  Co6       1.0  0.18163999999999994  0.81874  0.56017  1.0000
  Co  Co7       1.0  0.43017  0.20564  0.5616  1.0000
  Co  Co8       1.0  0.70945  0.28882  0.05124  1.0000
  Co  Co9       1.0  0.12393999999999997  0.26141  3.0000000000000004e-05  1.0000
  Co  Co10      1.0  0.57321  0.70443  0.43854  1.0000
  Co  Co11      1.0  0.31763  0.32022  0.061900000000000004  1.0000
  Co  Co12      1.0  0.37623  0.76076  0.49836  1.0000
  Co  Co13      1.0  0.7859999999999998  0.78941  0.55116  1.0000
  Co  Co14      1.0  0.47507  0.74552  0.05106  1.0000
  Co  Co15      1.0  0.96989  0.74462  0.44684  1.0000
  Co  Co16      1.0  0.87628  0.76063  0.9996200000000001  1.0000
  Co  Co17      1.0  0.52736  0.24503  0.94668  1.0000
  Co  Co18      1.0  0.02742  0.24353000000000002  0.55279  1.0000
  Co  Co19      1.0  0.2850199999999999  0.79321  0.9462000000000002  1.0000
  Co  Co20      1.0  0.21769  0.29159  0.4476100000000001  1.0000
  H   H1        1.0  0.64846  0.38573  0.58697  1.0000
  H   H2        1.0  0.83746  0.2098  0.27985  1.0000
  H   H3        1.0  0.09841999999999998  0.03739  0.2035  1.0000
  H   H4        1.0  0.69304  0.99933  0.20209  1.0000
  H   H5        1.0  0.9091  0.33554  0.70679  1.0000
  H   H6        1.0  0.47593  0.18814  0.7896500000000002  1.0000
  H   H7        1.0  0.72181  0.31671  0.27465  1.0000
  H   H8        1.0  0.38236  0.12492  0.13196  1.0000
  H   H9        1.0  0.61816  0.62189  0.86843  1.0000
  H   H10       1.0  0.35232  0.88852  0.41115  1.0000
  H   H11       1.0  0.0222  0.2099  0.7781300000000001  1.0000
  H   H12       1.0  0.1094  0.06902  0.29266  1.0000
  H   H13       1.0  0.47670999999999997  0.22633000000000003  0.35076  1.0000
  H   H14       1.0  0.7484899999999999  0.79532  0.32609  1.0000
  H   H15       1.0  0.14424999999999996  0.8950300000000001  0.24841000000000005  1.0000
  H   H16       1.0  0.36517  0.4142  0.86856  1.0000
  H   H17       1.0  0.15684  0.45787000000000005  0.80089  1.0000
  H   H18       1.0  0.9430199999999999  0.04117  0.29718  1.0000
  H   H19       1.0  0.63871  0.46796999999999994  0.79095  1.0000
  H   H20       1.0  0.27198  0.29924  0.84979  1.0000
  H   H21       1.0  0.22349999999999998  0.31758  0.22504000000000005  1.0000
  H   H22       1.0  0.67201  0.10354  0.32485  1.0000
  H   H23       1.0  0.23058999999999993  0.84161  0.78969  1.0000
  H   H24       1.0  0.48399  0.46657  0.47349  1.0000
  H   H25       1.0  0.77247  0.29974  0.64915  1.0000
  H   H26       1.0  0.52326  0.21075  0.7215900000000001  1.0000
  H   H27       1.0  0.4619299999999999  0.9319400000000001  0.32842  1.0000
  H   H28       1.0  0.88188  0.12217  0.36761  1.0000
  H   H29       1.0  0.87518  0.8934800000000002  0.39623  1.0000
  H   H30       1.0  0.12537  0.39591  0.60269  1.0000
  H   H31       1.0  0.13903  0.47252  0.7075400000000001  1.0000
  H   H32       1.0  0.34799  0.9525800000000001  0.302  1.0000
  H   H33       1.0  0.7469499999999999  0.29611  0.8267400000000003  1.0000
  H   H34       1.0  0.9575  0.49612999999999996  0.47244  1.0000
  H   H35       1.0  0.8569399999999998  0.39864  0.75277  1.0000
  H   H36       1.0  0.4379799999999999  0.01982  0.30312  1.0000
  H   H37       1.0  0.61749  0.60886  0.6336  1.0000
  H   H38       1.0  0.23072999999999994  0.54037  0.47844000000000003  1.0000
  H   H39       1.0  0.16719  0.7053  0.7912500000000001  1.0000
  H   H40       1.0  0.13476  0.91082  0.13136  1.0000
  H   H41       1.0  0.73034  0.53904  0.02004  1.0000
  H   H42       1.0  0.77535  0.58264  0.6814500000000002  1.0000
  H   H43       1.0  0.09997  0.13424  0.0875  1.0000
  H   H44       1.0  0.8313899999999997  0.20663  0.20636000000000002  1.0000
  H   H45       1.0  0.3670299999999999  0.41201  0.63123  1.0000
  H   H46       1.0  0.25456  0.79218  0.17203000000000004  1.0000
  H   H47       1.0  0.77498  0.81713  0.77623  1.0000
  H   H48       1.0  0.55679  0.54042  0.7974  1.0000
  H   H49       1.0  0.24529  0.29444  0.67231  1.0000
  H   H50       1.0  0.28447  0.51814  0.68595  1.0000
  H   H51       1.0  0.1349  0.9140799999999999  0.36814  1.0000
  H   H52       1.0  0.01856  0.68541  0.28973  1.0000
  H   H53       1.0  0.40934  0.33247  0.7914800000000001  1.0000
  H   H54       1.0  0.3574399999999999  0.39662  0.7468100000000001  1.0000
  H   H55       1.0  0.63683  0.91681  0.13054  1.0000
  H   H56       1.0  0.05693  0.51612  0.80515  1.0000
  H   H57       1.0  0.8620599999999999  0.96819  0.2907  1.0000
  H   H58       1.0  0.52649  0.68665  0.207  1.0000
  H   H59       1.0  0.3357  0.20922  0.21971000000000002  1.0000
  H   H60       1.0  0.16014999999999996  0.70867  0.7178000000000001  1.0000
  H   H61       1.0  0.09263  0.82956  0.29219  1.0000
  H   H62       1.0  0.05803  0.54545  0.7013400000000001  1.0000
  H   H63       1.0  0.59896  0.13314  0.41228  1.0000
  H   H64       1.0  0.22540999999999997  0.08427  0.3183  1.0000
  H   H65       1.0  0.52358  0.45196000000000003  0.81765  1.0000
  H   H66       1.0  0.23268  0.79819  0.34969000000000006  1.0000
  H   H67       1.0  0.02275  0.72765  0.84966  1.0000
  H   H68       1.0  0.58847  0.83395  0.20550000000000004  1.0000
  H   H69       1.0  0.21634  0.55591  0.02843  1.0000
  H   H70       1.0  0.38462  0.11199000000000002  0.36718  1.0000
  H   H71       1.0  0.11889  0.14283  0.3967300000000001  1.0000
  H   H72       1.0  0.98394  0.46765  0.02506  1.0000
  H   H73       1.0  0.50663  0.74022  0.8249800000000002  1.0000
  H   H74       1.0  0.28439  0.05437  0.52849  1.0000
  H   H75       1.0  0.61795  0.14533  0.10363  1.0000
  H   H76       1.0  0.21787999999999993  0.01722  0.18619000000000005  1.0000
  H   H77       1.0  0.11471999999999997  0.63366  0.75411  1.0000
  H   H78       1.0  0.48093  0.70885  0.27568  1.0000
  H   H79       1.0  0.6357399999999999  0.90922  0.36887  1.0000
  H   H80       1.0  0.27554  0.81734  0.72206  1.0000
  H   H81       1.0  0.78507  0.05317  0.9705200000000003  1.0000
  H   H82       1.0  0.25961  0.35109  0.29274  1.0000
  H   H83       1.0  0.11867  0.62531  0.63019  1.0000
  H   H84       1.0  0.4464  0.04452  0.2009  1.0000
  H   H85       1.0  0.71828  0.015540000000000002  0.31379  1.0000
  H   H86       1.0  0.90115  0.63313  0.9115  1.0000
  H   H87       1.0  0.36243999999999993  0.9738100000000001  0.20856  1.0000
  H   H88       1.0  0.27335  0.58098  0.8170500000000002  1.0000
  H   H89       1.0  0.61032  0.07152  0.20720000000000005  1.0000
  H   H90       1.0  0.8281899999999999  0.60359  0.82466  1.0000
  H   H91       1.0  0.5987999999999999  0.03505  0.29636  1.0000
  H   H92       1.0  0.01802  0.96697  0.97413  1.0000
  H   H93       1.0  0.39137  0.57171  0.79259  1.0000
  H   H94       1.0  0.8466  0.9522700000000001  0.19663000000000003  1.0000
  H   H95       1.0  0.55776  0.51485  0.6952500000000001  1.0000
  H   H96       1.0  0.97446  0.7102  0.22197  1.0000
  H   H97       1.0  0.14851999999999999  0.3882  0.91279  1.0000
  H   H98       1.0  0.61414  0.6325  0.7425  1.0000
  H   H99       1.0  0.81273  0.49538999999999994  0.70222  1.0000
  H   H100      1.0  0.4009099999999999  0.63494  0.58576  1.0000
  H   H101      1.0  0.71484  0.55224  0.47110000000000013  1.0000
  H   H102      1.0  0.93793  0.01858  0.19597000000000003  1.0000
  H   H103      1.0  0.4031399999999999  0.54177  0.7023000000000003  1.0000
  H   H104      1.0  0.4869899999999999  0.24172999999999997  0.17313  1.0000
  H   H105      1.0  0.9012  0.5354  0.79553  1.0000
  H   H106      1.0  0.65565  0.45464  0.69829  1.0000
  H   H107      1.0  0.9697099999999997  0.19404  0.71038  1.0000
  H   H108      1.0  0.37669  0.89611  0.10193000000000002  1.0000
  H   H109      1.0  0.46123  0.49744999999999995  0.0243  1.0000
  H   H110      1.0  0.8824699999999999  0.13445  0.24323000000000003  1.0000
  H   H111      1.0  0.11851  0.61096  0.86627  1.0000
  H   H112      1.0  0.53939  0.9971499999999999  0.97462  1.0000
  H   H113      1.0  0.19124999999999998  0.9963199999999999  0.29684  1.0000
  H   H114      1.0  0.54587  0.4247699999999999  0.6709600000000001  1.0000
  H   H115      1.0  0.17238  0.10536  0.17524  1.0000
  H   H116      1.0  0.7580899999999998  0.34982  0.20748000000000003  1.0000
  H   H117      1.0  0.32623  0.60689  0.67312  1.0000
  H   H118      1.0  0.31556999999999996  0.49511  0.7951700000000002  1.0000
  H   H119      1.0  0.51766  0.96734  0.52598  1.0000
  H   H120      1.0  0.5217  0.72604  0.6473  1.0000
  H   H121      1.0  0.9777599999999997  0.22826000000000002  0.14888  1.0000
  H   H122      1.0  0.04839  0.42568  0.82859  1.0000
  H   H123      1.0  0.72717  0.79983  0.14837  1.0000
  H   H124      1.0  0.6404599999999998  0.89888  0.24991  1.0000
  H   H125      1.0  0.78191  0.51569  0.8134900000000002  1.0000
  H   H126      1.0  0.8666599999999998  0.41377  0.62923  1.0000
  H   H127      1.0  0.0062699999999999995  0.74094  0.6721300000000002  1.0000
  H   H128      1.0  0.8663699999999999  0.40907  0.86808  1.0000
  H   H129      1.0  0.58986  0.82016  0.27823  1.0000
  H   H130      1.0  0.32902  0.20636  0.29318  1.0000
  H   H131      1.0  0.023459999999999995  0.45689  0.68158  1.0000
  H   H132      1.0  0.6601899999999998  0.70791  0.7784700000000001  1.0000
  H   H133      1.0  0.62498  0.39297  0.89598  1.0000
  H   H134      1.0  0.0959  0.81573  0.21936  1.0000
  H   H135      1.0  0.76968  0.04062  0.51978  1.0000
  H   H136      1.0  0.9773199999999999  0.9529199999999999  0.3172  1.0000
  H   H137      1.0  0.4062  0.31678  0.7188600000000002  1.0000
  H   H138      1.0  0.26993  0.04274  0.97963  1.0000
  H   H139      1.0  0.03774  0.9950999999999999  0.52461  1.0000
  H   H140      1.0  0.6664499999999998  0.70361  0.705  1.0000
  H   H141      1.0  0.99034  0.24016  0.32672  1.0000
  H   H142      1.0  0.38055999999999995  0.13408  0.25607  1.0000
  H   H143      1.0  0.72594  0.08758  0.18109000000000003  1.0000
  H   H144      1.0  0.88329  0.11137  0.13238  1.0000
  H   H145      1.0  0.85214  0.88785  0.08724  1.0000
  H   H146      1.0  0.8924599999999999  0.56956  0.70589  1.0000
  H   H147      1.0  0.47676  0.9548900000000001  0.18162  1.0000
  H   H148      1.0  0.72984  0.84158  0.70793  1.0000
  H   H149      1.0  0.9076199999999998  0.31901  0.7791800000000002  1.0000
  H   H150      1.0  0.38298999999999994  0.6434  0.8948  1.0000
  H   H151      1.0  0.9602699999999997  0.93042  0.16993000000000005  1.0000
  H   H152      1.0  0.8817699999999999  0.64269  0.60316  1.0000
  C   C1        1.0  0.37344  0.1932  0.25729  1.0000
  C   C2        1.0  0.15263  0.28512  0.12809  1.0000
  C   C3        1.0  0.9800999999999997  0.61133  0.01053  1.0000
  C   C4        1.0  0.33444  0.09124  0.44941  1.0000
  C   C5        1.0  0.42484999999999995  0.57672  0.9624  1.0000
  C   C6        1.0  0.65133  0.44292999999999993  0.57731  1.0000
  C   C7        1.0  0.2324  0.28641  0.8124  1.0000
  C   C8        1.0  0.02207  0.11067  0.98825  1.0000
  C   C9        1.0  0.41454  0.44834999999999997  0.94822  1.0000
  C   C10       1.0  0.59515  0.07606  0.42212  1.0000
  C   C11       1.0  0.13556  0.57872  0.60462  1.0000
  C   C12       1.0  0.41158999999999996  0.734  0.26919  1.0000
  C   C13       1.0  0.37309  0.74837  0.21715  1.0000
  C   C14       1.0  0.57586  0.93065  0.44852000000000003  1.0000
  C   C15       1.0  0.8022499999999998  0.03117  0.47975  1.0000
  C   C16       1.0  0.09525  0.473  0.8265000000000002  1.0000
  C   C17       1.0  0.64357  0.25424  0.68139  1.0000
  C   C18       1.0  0.59432  0.47117  0.67321  1.0000
  C   C19       1.0  0.9720299999999998  0.22917999999999997  0.23847  1.0000
  C   C20       1.0  0.61474  0.95127  0.39784  1.0000
  C   C21       1.0  0.47614999999999996  0.74872  0.78429  1.0000
  C   C22       1.0  0.15494  0.04774  0.17316  1.0000
  C   C23       1.0  0.60918  0.28246  0.21724000000000004  1.0000
  C   C24       1.0  0.06358  0.0047  0.4831  1.0000
  C   C25       1.0  0.15191999999999997  0.4455299999999999  0.9224  1.0000
  C   C26       1.0  0.6665799999999997  0.58863  0.551  1.0000
  C   C27       1.0  0.6829399999999999  0.46368  0.52504  1.0000
  C   C28       1.0  0.18749  0.66799  0.96224  1.0000
  C   C29       1.0  0.83447  0.80148  0.66664  1.0000
  C   C30       1.0  0.05210999999999998  0.85389  0.04137  1.0000
  C   C31       1.0  0.87551  0.19359  0.24224  1.0000
  C   C32       1.0  0.06702999999999999  0.87167  0.46638000000000013  1.0000
  C   C33       1.0  0.09583  0.07703  0.07777  1.0000
  C   C34       1.0  0.22162  0.41356  0.01387  1.0000
  C   C35       1.0  0.67662  0.45982  0.96202  1.0000
  C   C36       1.0  0.8944199999999999  0.77289  0.817  1.0000
  C   C37       1.0  0.82343  0.96078  0.46199000000000007  1.0000
  C   C38       1.0  0.91964  0.73246  0.33131  1.0000
  C   C39       1.0  0.36243999999999993  0.95128  0.08932  1.0000
  C   C40       1.0  0.68903  0.53654  0.51145  1.0000
  C   C41       1.0  0.11192000000000002  0.28189  0.28271  1.0000
  C   C42       1.0  0.8817999999999998  0.45992999999999995  0.60318  1.0000
  C   C43       1.0  0.9523099999999999  0.48323  0.98609  1.0000
  C   C44       1.0  0.40537  0.57763  0.5764200000000002  1.0000
  C   C45       1.0  0.9334399999999998  0.50531  0.51443  1.0000
  C   C46       1.0  0.04954999999999998  0.9831899999999999  0.01307  1.0000
  C   C47       1.0  0.0848  0.9468699999999999  0.44805  1.0000
  C   C48       1.0  0.17637  0.59097  0.55265  1.0000
  C   C49       1.0  0.6354  0.57559  0.8939  1.0000
  C   C50       1.0  0.6039399999999999  0.27186  0.31672  1.0000
  C   C51       1.0  0.82398  0.08927  0.44522  1.0000
  C   C52       1.0  0.0827  0.49556  0.68159  1.0000
  C   C53       1.0  0.12779  0.25029  0.71858  1.0000
  C   C54       1.0  0.7261  0.80288  0.23798  1.0000
  C   C55       1.0  0.36659  0.07045  0.39692  1.0000
  C   C56       1.0  0.51314  0.24075000000000002  0.31269  1.0000
  C   C57       1.0  0.3106499999999999  0.03883  0.48809  1.0000
  C   C58       1.0  0.09100999999999998  0.23555999999999996  0.77091  1.0000
  C   C59       1.0  0.07549  0.9312300000000001  0.05170000000000002  1.0000
  C   C60       1.0  0.73315  0.28709  0.68665  1.0000
  C   C61       1.0  0.6519899999999998  0.282  0.37166  1.0000
  C   C62       1.0  0.631  0.84055  0.24306000000000005  1.0000
  C   C63       1.0  0.69302  0.39607  0.9969  1.0000
  C   C64       1.0  0.8487199999999999  0.78347  0.87267  1.0000
  C   C65       1.0  0.27704  0.9121300000000001  0.51185  1.0000
  C   C66       1.0  0.57595  0.23382000000000003  0.83116  1.0000
  C   C67       1.0  0.8659499999999999  0.06969  0.10236  1.0000
  C   C68       1.0  0.41914  0.9949500000000001  0.18183  1.0000
  C   C69       1.0  0.19832999999999998  0.53207  0.51859  1.0000
  C   C70       1.0  0.28322  0.78157  0.21287000000000006  1.0000
  C   C71       1.0  0.10976999999999999  0.08743  0.41031000000000006  1.0000
  C   C72       1.0  0.4801  0.6103  0.48679  1.0000
  C   C73       1.0  0.86489  0.07607  0.39336  1.0000
  C   C74       1.0  0.51866  0.24987  0.21362000000000006  1.0000
  C   C75       1.0  0.86893  0.52981  0.62354  1.0000
  C   C76       1.0  0.67651  0.58834  0.9457  1.0000
  C   C77       1.0  0.14268999999999996  0.25382  0.8179500000000001  1.0000
  C   C78       1.0  0.85522  0.75394  0.18122  1.0000
  C   C79       1.0  0.6325599999999998  0.03274  0.12435000000000003  1.0000
  C   C80       1.0  0.42625999999999986  0.4315300000000001  0.55127  1.0000
  C   C81       1.0  0.44094  0.55617  0.52482  1.0000
  C   C82       1.0  0.65496  0.04584  0.3268  1.0000
  C   C83       1.0  0.23151  0.80016  0.26015  1.0000
  C   C84       1.0  0.15319  0.29377  0.23098  1.0000
  C   C85       1.0  0.77869  0.91052  0.9867100000000001  1.0000
  C   C86       1.0  0.07359  0.23351  0.66849  1.0000
  C   C87       1.0  0.3913999999999999  0.58821  0.9089300000000002  1.0000
  C   C88       1.0  0.6219899999999999  0.69155  0.74102  1.0000
  C   C89       1.0  0.98501  0.7417  0.8120000000000002  1.0000
  C   C90       1.0  0.3753599999999999  0.99761  0.3825700000000001  1.0000
  C   C91       1.0  0.79983  0.16597  0.4600500000000001  1.0000
  C   C92       1.0  0.84535  0.5459  0.82632  1.0000
  C   C93       1.0  0.16802  0.59155  0.94866  1.0000
  C   C94       1.0  0.89023  0.58741  0.58884  1.0000
  C   C95       1.0  0.8492899999999999  0.94492  0.0772  1.0000
  C   C96       1.0  0.62  0.96259  0.10448  1.0000
  C   C97       1.0  0.58625  0.94915  0.05094  1.0000
  C   C98       1.0  0.9481899999999998  0.35299  0.9584100000000002  1.0000
  C   C99       1.0  0.27061  0.30184999999999995  0.7602  1.0000
  C   C100      1.0  0.81285  0.16631  0.03634  1.0000
  C   C101      1.0  0.68737  0.66476  0.53766  1.0000
  C   C102      1.0  0.54926  0.9830599999999999  0.487  1.0000
  C   C103      1.0  0.1224  0.69274  0.75547  1.0000
  C   C104      1.0  0.36617  0.33844  0.75416  1.0000
  C   C105      1.0  0.3452999999999999  0.79286  0.7284000000000002  1.0000
  C   C106      1.0  0.69787  0.53001  0.98  1.0000
  C   C107      1.0  0.21763999999999994  0.28351  0.71338  1.0000
  C   C108      1.0  0.7655999999999997  0.78694  0.18606  1.0000
  C   C109      1.0  0.90558  0.57608  0.9213500000000002  1.0000
  C   C110      1.0  0.4842999999999999  0.74049  0.68515  1.0000
  C   C111      1.0  0.19673  0.39775  0.5026  1.0000
  C   C112      1.0  0.13918  0.45092999999999994  0.58949  1.0000
  C   C113      1.0  0.58239  0.49105000000000004  0.8171800000000002  1.0000
  C   C114      1.0  0.4058999999999999  0.73908  0.37222  1.0000
  C   C115      1.0  0.16642  0.04535  0.31773  1.0000
  C   C116      1.0  0.71903  0.28484  0.78576  1.0000
  C   C117      1.0  0.6347  0.5675  0.60328  1.0000
  C   C118      1.0  0.5215  0.11059  0.5119  1.0000
  C   C119      1.0  0.30019  0.16868  0.03971  1.0000
  C   C120      1.0  0.38252  0.0088  0.12464  1.0000
  C   C121      1.0  0.6294999999999998  0.25104  0.78088  1.0000
  C   C122      1.0  0.9324899999999998  0.37173  0.53068  1.0000
  C   C123      1.0  0.8174  0.96502  0.0249  1.0000
  C   C124      1.0  0.9180599999999998  0.9915499999999999  0.31689  1.0000
  C   C125      1.0  0.11857  0.95998  0.39454000000000006  1.0000
  C   C126      1.0  0.014549999999999999  0.24219  0.18699000000000002  1.0000
  C   C127      1.0  0.8816499999999998  0.006009999999999999  0.37417  1.0000
  C   C128      1.0  0.27129  0.78515  0.31195  1.0000
  C   C129      1.0  0.887  0.45115000000000005  0.89708  1.0000
  C   C130      1.0  0.13176  0.030079999999999996  0.37511  1.0000
  C   C131      1.0  0.94127  0.556  0.97305  1.0000
  C   C132      1.0  0.4322299999999999  0.37333  0.9670500000000002  1.0000
  C   C133      1.0  0.5545  0.14002  0.0016100000000000005  1.0000
  C   C134      1.0  0.72145  0.41017  0.48589  1.0000
  C   C135      1.0  0.66743  0.04823  0.18171  1.0000
  C   C136      1.0  0.77147  0.30319  0.7387600000000001  1.0000
  C   C137      1.0  0.1625  0.30135  0.33368  1.0000
  C   C138      1.0  0.40769999999999995  0.9745099999999999  0.32608  1.0000
  C   C139      1.0  0.80632  0.89682  0.49677  1.0000
  C   C140      1.0  0.59906  0.23947999999999997  0.62607  1.0000
  C   C141      1.0  0.97598  0.74942  0.7129800000000002  1.0000
  C   C142      1.0  0.17783  0.46206  0.53692  1.0000
  C   C143      1.0  0.9259499999999998  0.4305  0.9477200000000002  1.0000
  C   C144      1.0  0.02634999999999999  0.72894  0.7601  1.0000
  C   C145      1.0  0.38144  0.46057  0.89448  1.0000
  C   C146      1.0  0.87506  0.99691  0.1163  1.0000
  C   C147      1.0  0.060709999999999986  0.05607  0.02597  1.0000
  C   C148      1.0  0.36548  0.07884  0.10588  1.0000
  C   C149      1.0  0.52601  0.72788  0.73685  1.0000
  C   C150      1.0  0.7773699999999998  0.78414  0.28526  1.0000
  C   C151      1.0  0.92239  0.5756  0.53499  1.0000
  C   C152      1.0  0.6096399999999998  0.08992  0.08962  1.0000
  C   C153      1.0  0.9006799999999998  0.73934  0.12599  1.0000
  C   C154      1.0  0.42554  0.73176  0.16626  1.0000
  C   C155      1.0  0.37841999999999987  0.5266  0.61548  1.0000
  C   C156      1.0  0.33545  0.5449  0.81672  1.0000
  C   C157      1.0  0.55371  0.85341  0.45945  1.0000
  C   C158      1.0  0.31651  0.96604  0.47365  1.0000
  C   C159      1.0  0.3857799999999999  0.78152  0.7803  1.0000
  C   C160      1.0  0.44859  0.35388  0.54116  1.0000
  C   C161      1.0  0.8853999999999999  0.78189  0.71744  1.0000
  C   C162      1.0  0.86144  0.94869  0.4092700000000001  1.0000
  C   C163      1.0  0.31622  0.16753  0.46403  1.0000
  C   C164      1.0  0.33462  0.80148  0.83105  1.0000
  C   C165      1.0  0.70066  0.66483  0.96101  1.0000
  C   C166      1.0  0.19047  0.53983  0.9881200000000002  1.0000
  C   C167      1.0  0.8338799999999998  0.09025  0.04999  1.0000
  C   C168      1.0  0.61879  0.50561  0.87442  1.0000
  C   C169      1.0  0.34924  0.94567  0.42137000000000013  1.0000
  C   C170      1.0  0.63876  0.44806000000000007  0.9093  1.0000
  C   C171      1.0  0.65138  0.29299  0.26888  1.0000
  C   C172      1.0  0.30539  0.89949  0.0017900000000000001  1.0000
  C   C173      1.0  0.1267  0.49679  0.88295  1.0000
  C   C174      1.0  0.10513  0.27366  0.18305000000000002  1.0000
  C   C175      1.0  0.394  0.77221  0.6807400000000001  1.0000
  C   C176      1.0  0.57634  0.07732  0.03617  1.0000
  C   C177      1.0  0.659  0.30277  0.16631  1.0000
  C   C178      1.0  0.34599999999999986  0.54966  0.6720000000000002  1.0000
  C   C179      1.0  0.07562999999999999  0.07505  0.46363  1.0000
  C   C180      1.0  0.81121  0.03774  0.010820000000000001  1.0000
  C   C181      1.0  0.43581999999999993  0.50665  0.9827000000000001  1.0000
  C   C182      1.0  0.9139799999999999  0.44716000000000006  0.54914  1.0000
  C   C183      1.0  0.13578  0.83664  0.25491  1.0000
  C   C184      1.0  0.054339999999999986  0.13812  0.4984300000000001  1.0000
  C   C185      1.0  0.13594  0.56988  0.8964700000000001  1.0000
  C   C186      1.0  0.11438999999999998  0.9525199999999999  0.10227  1.0000
  C   C187      1.0  0.56791  0.87361  0.033  1.0000
  C   C188      1.0  0.36916999999999994  0.53035  0.8743  1.0000
  C   C189      1.0  0.4699  0.22884000000000002  0.26123  1.0000
  C   C190      1.0  0.84503  0.7931  0.7696100000000001  1.0000
  C   C191      1.0  0.02147  0.24913999999999997  0.28621  1.0000
  C   C192      1.0  0.8665199999999997  0.34065  0.7445100000000001  1.0000
  C   C193      1.0  0.56007  0.05573999999999999  0.47398  1.0000
  C   C194      1.0  0.86686  0.75007  0.28084  1.0000
  C   C195      1.0  0.59235  0.23608  0.72861  1.0000
  C   C196      1.0  0.18377  0.46680999999999995  0.9746300000000001  1.0000
  C   C197      1.0  0.90686  0.9736100000000001  0.17268  1.0000
  C   C198      1.0  0.32367  0.9632499999999999  0.03692  1.0000
  C   C199      1.0  0.32445999999999997  0.09195  0.05422  1.0000
  C   C200      1.0  0.34719  0.78349  0.6257  1.0000
  C   C201      1.0  0.9433299999999998  0.6392699999999999  0.50113  1.0000
  C   C202      1.0  0.20023999999999997  0.6675  0.53737  1.0000
  C   C203      1.0  0.6226899999999999  0.02419  0.38351  1.0000
  C   C204      1.0  0.56502  0.00681  0.0162  1.0000
  C   C205      1.0  0.87824  0.52407  0.88285  1.0000
  C   C206      1.0  0.11879999999999998  0.50903  0.62419  1.0000
  C   C207      1.0  0.38734  0.45338  0.60182  1.0000
  C   C208      1.0  0.09888999999999998  0.23931  0.8734800000000003  1.0000
  C   C209      1.0  0.83547  0.54472  0.6813100000000001  1.0000
  C   C210      1.0  0.3026699999999999  0.0336  0.01953  1.0000
  C   C211      1.0  0.45231  0.48313  0.51237  1.0000
  C   C212      1.0  0.3613  0.75272  0.31674  1.0000
  C   C213      1.0  0.44747  0.6403  0.99631  1.0000
  C   C214      1.0  0.12294  0.02561  0.11642000000000002  1.0000
  C   C215      1.0  0.90518  0.73543  0.22871  1.0000
  C   C216      1.0  0.6257599999999998  0.49456  0.61679  1.0000
  O   O1        1.0  0.04726  0.82595  0.42759000000000014  1.0000
  O   O2        1.0  0.23398999999999995  0.93025  0.55543  1.0000
  O   O3        1.0  0.3954299999999999  0.7672800000000001  0.58342  1.0000
  O   O4        1.0  0.06654  0.85446  0.51698  1.0000
  O   O5        1.0  0.3142699999999999  0.18882  0.51407  1.0000
  O   O6        1.0  0.73825  0.92716  0.94222  1.0000
  O   O7        1.0  0.51057  0.69823  0.16891  1.0000
  O   O8        1.0  0.72409  0.342  0.50022  1.0000
  O   O9        1.0  0.9139899999999999  0.70265  0.51673  1.0000
  O   O10       1.0  0.1616  0.33552  0.51664  1.0000
  O   O11       1.0  0.8526  0.75606  0.08386  1.0000
  O   O12       1.0  0.84316  0.83489  0.48299000000000003  1.0000
  O   O13       1.0  0.73814  0.30534  0.36950000000000005  1.0000
  O   O14       1.0  0.51423  0.21412  0.62784  1.0000
  O   O15       1.0  0.36711  0.7891  0.87768  1.0000
  O   O16       1.0  0.02389  0.17878  0.00281  1.0000
  O   O17       1.0  0.74222  0.39776  0.04127  1.0000
  O   O18       1.0  0.34306999999999993  0.83755  0.014290000000000002  1.0000
  O   O19       1.0  0.22388999999999995  0.34519  0.99954  1.0000
  O   O20       1.0  0.24692  0.39999  0.45845  1.0000
  O   O21       1.0  0.26228  0.43215999999999993  0.05798  1.0000
  O   O22       1.0  0.10022  0.80754  0.06943  1.0000
  O   O23       1.0  0.51489  0.33839  0.50764  1.0000
  O   O24       1.0  0.2532  0.90177  0.9585300000000002  1.0000
  O   O25       1.0  0.5279  0.59305  0.4445100000000001  1.0000
  O   O26       1.0  0.56744  0.85461  0.98263  1.0000
  O   O27       1.0  0.39957999999999994  0.30833  0.56946  1.0000
  O   O28       1.0  0.09084  0.20039  0.48611000000000004  1.0000
  O   O29       1.0  0.86743  0.78881  0.62  1.0000
  O   O30       1.0  0.14764999999999998  0.7161  0.5608  1.0000
  O   O31       1.0  0.26993  0.67931  0.50551  1.0000
  O   O32       1.0  0.60438  0.2657  0.4139900000000001  1.0000
  O   O33       1.0  0.3951499999999999  0.74908  0.12001  1.0000
  O   O34       1.0  0.74776  0.8327  0.66962  1.0000
  O   O35       1.0  0.3566099999999999  0.75638  0.4139300000000001  1.0000
  O   O36       1.0  0.10513999999999997  0.24758000000000002  0.62185  1.0000
  O   O37       1.0  0.18597999999999995  0.69093  0.01179  1.0000
  O   O38       1.0  0.95283  0.32718  0.56983  1.0000
  O   O39       1.0  0.23026999999999995  0.18015  0.00808  1.0000
  O   O40       1.0  0.93298  0.35304  0.48026  1.0000
  O   O41       1.0  0.4999699999999999  0.63654  0.0393  1.0000
  O   O42       1.0  0.98486  0.71266  0.12769  1.0000
  O   O43       1.0  0.27591  0.8439  0.49715000000000004  1.0000
  O   O44       1.0  0.50457  0.13497  0.95779  1.0000
  O   O45       1.0  0.58647  0.20367  0.01492  1.0000
  O   O46       1.0  0.8898399999999999  0.74947  0.37787  1.0000
  O   O47       1.0  0.49022  0.71268  0.37149  1.0000
  O   O48       1.0  0.98612  0.20371  0.6720100000000002  1.0000
  O   O49       1.0  0.74285  0.33811  0.16924000000000003  1.0000
  O   O50       1.0  0.6056199999999998  0.25081  0.8777300000000002  1.0000
  O   O51       1.0  0.00067  0.13471  0.5411  1.0000
  O   O52       1.0  0.4853  0.8396  0.49189  1.0000
  O   O53       1.0  0.72986  0.17793  0.49171  1.0000
  O   O54       1.0  0.68735  0.68739  0.4880800000000001  1.0000
  O   O55       1.0  0.00437  0.69831  0.32793  1.0000
  O   O56       1.0  0.62786  0.28696  0.11982  1.0000
  O   O57       1.0  0.14723999999999995  0.25766  0.91528  1.0000
  O   O58       1.0  0.60485  0.80689  0.43311  1.0000
  O   O59       1.0  0.8997099999999998  0.30637  0.9305400000000001  1.0000
  O   O60       1.0  0.97668  0.09427  0.9449600000000002  1.0000
  O   O61       1.0  0.76235  0.42854  0.4418500000000001  1.0000
  O   O62       1.0  0.64705  0.71346  0.93892  1.0000
  O   O63       1.0  0.01563  0.21105  0.8723100000000001  1.0000
  O   O64       1.0  0.2945  0.21051  0.42425  1.0000
  O   O65       1.0  0.98535  0.83973  0.00796  1.0000
  O   O66       1.0  0.01441  0.33858  0.99211  1.0000
  O   O67       1.0  0.41380999999999996  0.70311  0.9831600000000001  1.0000
  O   O68       1.0  0.89953  0.77047  0.91437  1.0000
  O   O69       1.0  0.8522399999999998  0.21432  0.43645  1.0000
  O   O70       1.0  0.97643  0.6795  0.99683  1.0000
  O   O71       1.0  0.54747  0.82911  0.07222  1.0000
  O   O72       1.0  0.64787  0.25468  0.58383  1.0000
  O   O73       1.0  0.2141  0.70904  0.9221700000000003  1.0000
  O   O74       1.0  0.43281  0.35642  0.0177  1.0000
  O   O75       1.0  0.52337  0.17852  0.49727000000000005  1.0000
  O   O76       1.0  0.9903  0.63543  0.4559000000000001  1.0000
  O   O77       1.0  0.23845  0.30901  0.13023  1.0000
  O   O78       1.0  0.7755599999999999  0.84299  0.0027500000000000003  1.0000
  O   O79       1.0  0.78495  0.20733  0.07634  1.0000
  O   O80       1.0  0.26144  0.80741  0.62766  1.0000
  O   O81       1.0  0.76117  0.80349  0.8718400000000002  1.0000
  O   O82       1.0  0.3522  0.21755  0.06321  1.0000
  O   O83       1.0  0.4908799999999999  0.20021  0.82788  1.0000
  O   O84       1.0  0.4764499999999999  0.67881  0.50024  1.0000
  O   O85       1.0  0.24793999999999994  0.83272  0.8279800000000002  1.0000
  O   O86       1.0  0.81366  0.18879  0.98667  1.0000
  O   O87       1.0  0.65607  0.33434  0.98275  1.0000
  O   O88       1.0  0.75659  0.89854  0.54102  1.0000
  O   O89       1.0  0.77162  0.67651  0.99181  1.0000
  O   O90       1.0  0.47647  0.0946  0.55533  1.0000
  O   O91       1.0  0.02722  0.59549  0.05322  1.0000
  O   O92       1.0  0.13324  0.2839  0.38018  1.0000
  O   O93       1.0  0.24543  0.338  0.33079  1.0000
  O   O94       1.0  0.10461  0.26908  0.08579  1.0000
  O   O95       1.0  0.71451  0.70594  0.57769  1.0000
  O   O96       1.0  0.45203  0.32759  0.92817  1.0000
