data_image0
_chemical_formula_structural       Cd6H156C252N48O24
_chemical_formula_sum              "Cd6 H156 C252 N48 O24"
_cell_length_a       18.27036
_cell_length_b       17.95093
_cell_length_c       20.394349999999996
_cell_angle_alpha    84.61324
_cell_angle_beta     84.0532
_cell_angle_gamma    64.17958

_space_group_name_H-M_alt    "P 1"
_space_group_IT_number       1

loop_
  _space_group_symop_operation_xyz
  'x, y, z'

loop_
  _atom_site_type_symbol
  _atom_site_label
  _atom_site_symmetry_multiplicity
  _atom_site_fract_x
  _atom_site_fract_y
  _atom_site_fract_z
  _atom_site_occupancy
  Cd  Cd1       1.0  0.42114  0.1707  0.7163  1.0000
  Cd  Cd2       1.0  0.6156200000000001  0.58859  0.71975  1.0000
  Cd  Cd3       1.0  0.9714399999999997  0.20995000000000005  0.26402  1.0000
  Cd  Cd4       1.0  0.5788599999999999  0.8293000000000003  0.28369  1.0000
  Cd  Cd5       1.0  0.38437999999999994  0.4114  0.28025  1.0000
  Cd  Cd6       1.0  0.028559999999999943  0.7900400000000002  0.73597  1.0000
  H   H1        1.0  0.71736  0.99033  0.71435  1.0000
  H   H2        1.0  0.8190799999999998  0.7270400000000002  0.69476  1.0000
  H   H3        1.0  0.5590800000000001  0.87169  0.70577  1.0000
  H   H4        1.0  0.48264999999999997  0.40159  0.75096  1.0000
  H   H5        1.0  0.32191  0.66164  0.73813  1.0000
  H   H6        1.0  0.22562999999999986  0.48185000000000017  0.73609  1.0000
  H   H7        1.0  0.23938999999999996  0.31276  0.67279  1.0000
  H   H8        1.0  0.36943000000000004  0.006190000000000003  0.69299  1.0000
  H   H9        1.0  0.2876799999999999  0.92644  0.67988  1.0000
  H   H10       1.0  0.14460999999999985  0.9996400000000001  0.6505800000000002  1.0000
  H   H11       1.0  0.0777  0.15243  0.63203  1.0000
  H   H12       1.0  0.017110000000000004  0.26981  0.68989  1.0000
  H   H13       1.0  0.8980499999999998  0.5144800000000003  0.59869  1.0000
  H   H14       1.0  0.16045  0.38618  0.58718  1.0000
  H   H15       1.0  0.81053  0.5286700000000002  0.68392  1.0000
  H   H16       1.0  0.6538799999999999  0.3623  0.74311  1.0000
  H   H17       1.0  0.71911  0.20908  0.72632  1.0000
  H   H18       1.0  0.86093  0.13976999999999998  0.6787  1.0000
  H   H19       1.0  0.94365  0.21839  0.64717  1.0000
  H   H20       1.0  0.16569999999999996  0.48411  0.53797  1.0000
  H   H21       1.0  0.005830000000000028  0.77877  0.47581  1.0000
  H   H22       1.0  0.8528499999999999  0.84717  0.49643  1.0000
  H   H23       1.0  0.78147  0.76847  0.55548  1.0000
  H   H24       1.0  0.8526399999999997  0.6254  0.59339  1.0000
  H   H25       1.0  0.52287  0.26929  0.64254  1.0000
  H   H26       1.0  0.40314  0.09966000000000001  0.55409  1.0000
  H   H27       1.0  0.43692  0.06118  0.43570999999999993  1.0000
  H   H28       1.0  0.52987  0.10283000000000002  0.36366  1.0000
  H   H29       1.0  0.59333  0.18664  0.40424  1.0000
  H   H30       1.0  0.7038999999999999  0.15482000000000007  0.48077  1.0000
  H   H31       1.0  0.77889  0.3513  0.49145  1.0000
  H   H32       1.0  0.53367  0.38812  0.55817  1.0000
  H   H33       1.0  0.8454100000000001  0.2993  0.39149  1.0000
  H   H34       1.0  0.04712  0.011349999999999999  0.35369  1.0000
  H   H35       1.0  0.035420000000000035  0.89184  0.42202  1.0000
  H   H36       1.0  0.9217699999999999  0.91689  0.50701  1.0000
  H   H37       1.0  0.8151499999999999  0.05806  0.52653  1.0000
  H   H38       1.0  0.67019  0.724  0.14981  1.0000
  H   H39       1.0  0.56109  0.021470000000000003  0.20056  1.0000
  H   H40       1.0  0.57666  0.1241  0.11375  1.0000
  H   H41       1.0  0.6424399999999999  0.08045  0.0038500000000000006  1.0000
  H   H42       1.0  0.6996099999999997  0.93207  0.97528  1.0000
  H   H43       1.0  0.5897  0.45407  0.64324  1.0000
  H   H44       1.0  0.63741  0.7010700000000002  0.56037  1.0000
  H   H45       1.0  0.6895  0.71085  0.44336  1.0000
  H   H46       1.0  0.7156799999999999  0.60104  0.36689  1.0000
  H   H47       1.0  0.6953800000000001  0.4757100000000001  0.4046600000000001  1.0000
  H   H48       1.0  0.7024899999999997  0.66577  0.81371  1.0000
  H   H49       1.0  0.5818  0.46259999999999996  0.85949  1.0000
  H   H50       1.0  0.5662299999999999  0.41055  0.97672  1.0000
  H   H51       1.0  0.6053599999999999  0.4608700000000001  0.06885  1.0000
  H   H52       1.0  0.66511  0.56313  0.04969  1.0000
  H   H53       1.0  0.6268300000000001  0.72238  0.01583  1.0000
  H   H54       1.0  0.83166  0.78179  0.01688  1.0000
  H   H55       1.0  0.83566  0.6132800000000002  0.87693  1.0000
  H   H56       1.0  0.09860999999999999  0.013819999999999997  0.21869000000000002  1.0000
  H   H57       1.0  0.7983999999999999  0.18696000000000004  0.22753  1.0000
  H   H58       1.0  0.70716  0.13588  0.18141  1.0000
  H   H59       1.0  0.7642699999999999  0.0036199999999999995  0.12686  1.0000
  H   H60       1.0  0.91443  0.9152100000000002  0.11747  1.0000
  H   H61       1.0  0.006280000000000002  0.8284  0.20068  1.0000
  H   H62       1.0  0.22900999999999996  0.67163  0.09185  1.0000
  H   H63       1.0  0.17052999999999996  0.92856  0.11059000000000001  1.0000
  H   H64       1.0  0.21295000000000003  0.57335  0.16101  1.0000
  H   H65       1.0  0.9758  0.50508  0.20698  1.0000
  H   H66       1.0  0.8329799999999999  0.61865  0.20914  1.0000
  H   H67       1.0  0.8086600000000002  0.76425  0.18551  1.0000
  H   H68       1.0  0.9218300000000001  0.80438  0.15975  1.0000
  H   H69       1.0  0.34642999999999996  0.80922  0.14177  1.0000
  H   H70       1.0  0.4995599999999999  0.7127400000000003  0.9254200000000001  1.0000
  H   H71       1.0  0.4320899999999999  0.6806900000000001  0.8380900000000001  1.0000
  H   H72       1.0  0.29042999999999974  0.6980900000000002  0.85711  1.0000
  H   H73       1.0  0.20922999999999994  0.74816  0.96312  1.0000
  H   H74       1.0  0.8729599999999996  0.7676300000000003  0.82306  1.0000
  H   H75       1.0  0.16282999999999997  0.67985  0.8701200000000001  1.0000
  H   H76       1.0  0.21623999999999996  0.5915  0.9728300000000001  1.0000
  H   H77       1.0  0.12731999999999996  0.54877  0.05117000000000001  1.0000
  H   H78       1.0  0.98081  0.5947800000000002  0.03273  1.0000
  H   H79       1.0  0.28264  0.009660000000000002  0.28565  1.0000
  H   H80       1.0  0.18092  0.27296  0.30524  1.0000
  H   H81       1.0  0.44093  0.1283  0.29422  1.0000
  H   H82       1.0  0.51735  0.59841  0.24903999999999998  1.0000
  H   H83       1.0  0.67809  0.3383500000000001  0.26187  1.0000
  H   H84       1.0  0.7743699999999998  0.5181500000000002  0.26391  1.0000
  H   H85       1.0  0.76061  0.68724  0.32721  1.0000
  H   H86       1.0  0.63057  0.9938000000000001  0.30701  1.0000
  H   H87       1.0  0.71232  0.07355999999999999  0.32011  1.0000
  H   H88       1.0  0.85539  0.00036000000000000024  0.34941  1.0000
  H   H89       1.0  0.9223  0.84756  0.36797  1.0000
  H   H90       1.0  0.9828999999999999  0.73019  0.31011  1.0000
  H   H91       1.0  0.10194999999999989  0.4855100000000002  0.40129999999999993  1.0000
  H   H92       1.0  0.8395499999999999  0.61382  0.4128200000000001  1.0000
  H   H93       1.0  0.18946999999999992  0.4713200000000001  0.31608  1.0000
  H   H94       1.0  0.34611999999999987  0.6376900000000002  0.25689  1.0000
  H   H95       1.0  0.28090000000000004  0.79092  0.27368  1.0000
  H   H96       1.0  0.13907000000000005  0.8602199999999999  0.32130000000000003  1.0000
  H   H97       1.0  0.056350000000000004  0.78161  0.35283  1.0000
  H   H98       1.0  0.8343000000000002  0.51589  0.46202  1.0000
  H   H99       1.0  0.9941699999999999  0.22123  0.52419  1.0000
  H   H100      1.0  0.14714999999999998  0.15282  0.50357  1.0000
  H   H101      1.0  0.21853  0.23152999999999999  0.44452  1.0000
  H   H102      1.0  0.14736000000000002  0.3746000000000001  0.40661  1.0000
  H   H103      1.0  0.47713  0.73071  0.35745  1.0000
  H   H104      1.0  0.5968699999999999  0.9003400000000003  0.44591000000000003  1.0000
  H   H105      1.0  0.56308  0.93882  0.56429  1.0000
  H   H106      1.0  0.47012999999999994  0.89717  0.63633  1.0000
  H   H107      1.0  0.40667  0.81335  0.59576  1.0000
  H   H108      1.0  0.2961099999999999  0.8451800000000003  0.51923  1.0000
  H   H109      1.0  0.22112  0.6487  0.50855  1.0000
  H   H110      1.0  0.46633  0.61188  0.44183  1.0000
  H   H111      1.0  0.15459000000000003  0.70069  0.6085  1.0000
  H   H112      1.0  0.9528799999999997  0.9886400000000004  0.64631  1.0000
  H   H113      1.0  0.9645799999999999  0.10816  0.57798  1.0000
  H   H114      1.0  0.07823000000000001  0.08310999999999999  0.49299  1.0000
  H   H115      1.0  0.18484999999999996  0.94194  0.47346  1.0000
  H   H116      1.0  0.32981000000000005  0.27599  0.8501900000000001  1.0000
  H   H117      1.0  0.4389099999999997  0.97852  0.79943  1.0000
  H   H118      1.0  0.42334  0.8759  0.88625  1.0000
  H   H119      1.0  0.35755999999999993  0.9195500000000002  0.9961400000000001  1.0000
  H   H120      1.0  0.30039  0.06793  0.02471  1.0000
  H   H121      1.0  0.41030000000000005  0.54592  0.35676  1.0000
  H   H122      1.0  0.3626  0.29893  0.43962  1.0000
  H   H123      1.0  0.31050000000000005  0.28914  0.55664  1.0000
  H   H124      1.0  0.2843200000000001  0.39895  0.63311  1.0000
  H   H125      1.0  0.30462  0.52429  0.59534  1.0000
  H   H126      1.0  0.29751  0.33423000000000014  0.18628  1.0000
  H   H127      1.0  0.4182  0.53739  0.14051  1.0000
  H   H128      1.0  0.43378  0.58945  0.02327  1.0000
  H   H129      1.0  0.39464  0.53913  0.93115  1.0000
  H   H130      1.0  0.3349  0.4368600000000001  0.95031  1.0000
  H   H131      1.0  0.37317  0.27761  0.98416  1.0000
  H   H132      1.0  0.16834  0.21820999999999996  0.98312  1.0000
  H   H133      1.0  0.16433999999999999  0.38671  0.12306999999999998  1.0000
  H   H134      1.0  0.9013899999999999  0.98618  0.7813  1.0000
  H   H135      1.0  0.20159999999999997  0.8130400000000002  0.77247  1.0000
  H   H136      1.0  0.29284  0.86412  0.81858  1.0000
  H   H137      1.0  0.23574  0.99637  0.8731300000000001  1.0000
  H   H138      1.0  0.08557000000000002  0.08479  0.88253  1.0000
  H   H139      1.0  0.99372  0.17160000000000006  0.79932  1.0000
  H   H140      1.0  0.7709900000000001  0.32835999999999993  0.9081400000000001  1.0000
  H   H141      1.0  0.82947  0.07143000000000005  0.8894099999999999  1.0000
  H   H142      1.0  0.7870500000000001  0.42664  0.83899  1.0000
  H   H143      1.0  0.024209999999999978  0.49491000000000007  0.79302  1.0000
  H   H144      1.0  0.16702  0.38134  0.7908599999999999  1.0000
  H   H145      1.0  0.19133999999999993  0.2357500000000001  0.81449  1.0000
  H   H146      1.0  0.07817  0.19562000000000002  0.8402500000000002  1.0000
  H   H147      1.0  0.65357  0.19078000000000003  0.85823  1.0000
  H   H148      1.0  0.50044  0.28725  0.07458  1.0000
  H   H149      1.0  0.5679099999999999  0.3193000000000001  0.16191  1.0000
  H   H150      1.0  0.70958  0.3019100000000001  0.14289  1.0000
  H   H151      1.0  0.7907799999999999  0.25183  0.03687  1.0000
  H   H152      1.0  0.12704  0.23236  0.17694  1.0000
  H   H153      1.0  0.83717  0.32014  0.12988  1.0000
  H   H154      1.0  0.78376  0.40849  0.02717  1.0000
  H   H155      1.0  0.87268  0.45121999999999995  0.94883  1.0000
  H   H156      1.0  0.019189999999999936  0.4052100000000001  0.96726  1.0000
  C   C1        1.0  0.55744  0.022049999999999993  0.71325  1.0000
  C   C2        1.0  0.63035  0.9401  0.70903  1.0000
  C   C3        1.0  0.7090599999999999  0.93472  0.70962  1.0000
  C   C4        1.0  0.7768800000000001  0.85797  0.70461  1.0000
  C   C5        1.0  0.8609100000000001  0.85141  0.7093100000000001  1.0000
  C   C6        1.0  0.7659199999999998  0.7862900000000003  0.69869  1.0000
  C   C7        1.0  0.6873499999999999  0.7911000000000002  0.69868  1.0000
  C   C8        1.0  0.6743099999999999  0.71485  0.69413  1.0000
  C   C9        1.0  0.6200099999999997  0.86812  0.70455  1.0000
  C   C10       1.0  0.3695  0.34359  0.7418  1.0000
  C   C11       1.0  0.35582  0.43186  0.74424  1.0000
  C   C12       1.0  0.42164000000000007  0.45116  0.74748  1.0000
  C   C13       1.0  0.40945999999999994  0.53389  0.74511  1.0000
  C   C14       1.0  0.4812600000000001  0.55341  0.74384  1.0000
  C   C15       1.0  0.33067999999999986  0.5975300000000002  0.74077  1.0000
  C   C16       1.0  0.26428000000000007  0.57871  0.73826  1.0000
  C   C17       1.0  0.17961  0.64608  0.73269  1.0000
  C   C18       1.0  0.27727999999999997  0.49584  0.73963  1.0000
  C   C19       1.0  0.23747999999999994  0.25445  0.66664  1.0000
  C   C20       1.0  0.26745999999999986  0.12315000000000001  0.67267  1.0000
  C   C21       1.0  0.30605  0.0367  0.6809  1.0000
  C   C22       1.0  0.26021  0.9936400000000001  0.67292  1.0000
  C   C23       1.0  0.17853  0.03529  0.6564  1.0000
  C   C24       1.0  0.13981999999999997  0.12151  0.64683  1.0000
  C   C25       1.0  0.18523  0.16506  0.6557  1.0000
  C   C26       1.0  0.09521999999999999  0.32049  0.63698  1.0000
  C   C27       1.0  0.020049999999999943  0.32124000000000014  0.65931  1.0000
  C   C28       1.0  0.9498500000000001  0.3922200000000001  0.64503  1.0000
  C   C29       1.0  0.9538999999999999  0.4622  0.61149  1.0000
  C   C30       1.0  0.02952000000000002  0.46277  0.59308  1.0000
  C   C31       1.0  0.10078000000000004  0.38998  0.60418  1.0000
  C   C32       1.0  0.80714  0.4697  0.68596  1.0000
  C   C33       1.0  0.7627000000000002  0.3750700000000001  0.70462  1.0000
  C   C34       1.0  0.71648  0.33038  0.72267  1.0000
  C   C35       1.0  0.7534699999999998  0.24553  0.71299  1.0000
  C   C36       1.0  0.83433  0.2060100000000001  0.6858  1.0000
  C   C37       1.0  0.88146  0.24962  0.66821  1.0000
  C   C38       1.0  0.84494  0.33441  0.67875  1.0000
  C   C39       1.0  0.10754999999999998  0.53801  0.53671  1.0000
  C   C40       1.0  0.014679999999999997  0.66152  0.51958  1.0000
  C   C41       1.0  0.97231  0.74518  0.49987999999999994  1.0000
  C   C42       1.0  0.8879299999999999  0.78257  0.51205  1.0000
  C   C43       1.0  0.8471099999999999  0.73762  0.54474  1.0000
  C   C44       1.0  0.8883  0.6542800000000002  0.56561  1.0000
  C   C45       1.0  0.9729199999999999  0.61569  0.55145  1.0000
  C   C46       1.0  0.51594  0.2379  0.60232  1.0000
  C   C47       1.0  0.48047  0.16404  0.54526  1.0000
  C   C48       1.0  0.44412999999999997  0.11828  0.52174  1.0000
  C   C49       1.0  0.46326999999999996  0.09718999999999998  0.45599  1.0000
  C   C50       1.0  0.5169900000000001  0.12088000000000006  0.41447  1.0000
  C   C51       1.0  0.55355  0.16672  0.43691  1.0000
  C   C52       1.0  0.53463  0.18705000000000005  0.50284  1.0000
  C   C53       1.0  0.6144199999999999  0.2668500000000001  0.52377  1.0000
  C   C54       1.0  0.69066  0.21694999999999998  0.4936900000000001  1.0000
  C   C55       1.0  0.74882  0.24853000000000008  0.48051  1.0000
  C   C56       1.0  0.7319000000000001  0.32859  0.49735  1.0000
  C   C57       1.0  0.65403  0.3779900000000001  0.52467  1.0000
  C   C58       1.0  0.5945299999999999  0.34841000000000016  0.53804  1.0000
  C   C59       1.0  0.86647  0.23323000000000008  0.40253  1.0000
  C   C60       1.0  0.93622  0.09988999999999999  0.40085  1.0000
  C   C61       1.0  0.9959300000000002  0.01987000000000001  0.38944  1.0000
  C   C62       1.0  0.98853  0.95473  0.4278699999999999  1.0000
  C   C63       1.0  0.9238000000000002  0.96886  0.47625  1.0000
  C   C64       1.0  0.8631999999999999  0.04841000000000001  0.48759  1.0000
  C   C65       1.0  0.87019  0.11364  0.44876000000000005  1.0000
  C   C66       1.0  0.65866  0.78749  0.13521  1.0000
  C   C67       1.0  0.6238900000000001  0.91969  0.13648  1.0000
  C   C68       1.0  0.592  0.00281  0.15224  1.0000
  C   C69       1.0  0.60049  0.05895000000000001  0.10351000000000002  1.0000
  C   C70       1.0  0.63905  0.03384  0.04057  1.0000
  C   C71       1.0  0.6712699999999998  0.9512300000000002  0.02415  1.0000
  C   C72       1.0  0.6634199999999999  0.8950900000000002  0.07338  1.0000
  C   C73       1.0  0.60723  0.48889  0.6035  1.0000
  C   C74       1.0  0.6381299999999998  0.58207  0.54836  1.0000
  C   C75       1.0  0.6510799999999999  0.65204  0.52715  1.0000
  C   C76       1.0  0.68036  0.6564600000000002  0.46172  1.0000
  C   C77       1.0  0.69539  0.59405  0.41818000000000005  1.0000
  C   C78       1.0  0.6837099999999999  0.52337  0.43874  1.0000
  C   C79       1.0  0.6561  0.51839  0.50464  1.0000
  C   C80       1.0  0.68279  0.62661  0.8473499999999999  1.0000
  C   C81       1.0  0.63271  0.5415  0.88974  1.0000
  C   C82       1.0  0.60007  0.48341  0.90077  1.0000
  C   C83       1.0  0.5917500000000001  0.45521  0.9658800000000001  1.0000
  C   C84       1.0  0.61418  0.48416  0.01891  1.0000
  C   C85       1.0  0.64739  0.54144  0.00872  1.0000
  C   C86       1.0  0.65689  0.56854  0.94331  1.0000
  C   C87       1.0  0.7281799999999999  0.66255  0.94441  1.0000
  C   C88       1.0  0.6880599999999998  0.7130600000000002  0.99707  1.0000
  C   C89       1.0  0.7262099999999999  0.7556300000000002  0.02263  1.0000
  C   C90       1.0  0.8026200000000001  0.74848  0.99644  1.0000
  C   C91       1.0  0.8406699999999999  0.6985000000000001  0.9431899999999999  1.0000
  C   C92       1.0  0.8048299999999999  0.6541400000000004  0.91723  1.0000
  C   C93       1.0  0.03840999999999999  0.02341  0.20682  1.0000
  C   C94       1.0  0.9065399999999998  0.07705000000000002  0.20138  1.0000
  C   C95       1.0  0.82237  0.12724  0.20548  1.0000
  C   C96       1.0  0.77274  0.09832  0.17918  1.0000
  C   C97       1.0  0.8053699999999999  0.022580000000000003  0.14806  1.0000
  C   C98       1.0  0.8890499999999999  0.9722  0.14344  1.0000
  C   C99       1.0  0.93855  0.99967  0.17211  1.0000
  C   C100      1.0  0.08111999999999994  0.8869  0.15639  1.0000
  C   C101      1.0  0.06122000000000003  0.81985  0.17008  1.0000
  C   C102      1.0  0.11329000000000007  0.7423  0.14614  1.0000
  C   C103      1.0  0.18743000000000004  0.73101  0.11132000000000002  1.0000
  C   C104      1.0  0.20859000000000003  0.79756  0.10159  1.0000
  C   C105      1.0  0.15532999999999988  0.8764400000000002  0.12257  1.0000
  C   C106      1.0  0.14782  0.59161  0.16502  1.0000
  C   C107      1.0  0.029329999999999964  0.59164  0.18205  1.0000
  C   C108      1.0  0.96431  0.5696300000000002  0.19618  1.0000
  C   C109      1.0  0.8851999999999999  0.6328700000000003  0.19708000000000003  1.0000
  C   C110      1.0  0.87109  0.7162800000000002  0.18363  1.0000
  C   C111      1.0  0.93504  0.73947  0.16954  1.0000
  C   C112      1.0  0.014419999999999905  0.6761100000000002  0.16965  1.0000
  C   C113      1.0  0.35045000000000004  0.79034  0.09199  1.0000
  C   C114      1.0  0.39215999999999995  0.7481800000000002  0.99358  1.0000
  C   C115      1.0  0.43696000000000007  0.72041  0.93356  1.0000
  C   C116      1.0  0.3991499999999999  0.70236  0.8853200000000001  1.0000
  C   C117      1.0  0.31797000000000003  0.71225  0.89617  1.0000
  C   C118      1.0  0.27190000000000003  0.7402399999999999  0.95524  1.0000
  C   C119      1.0  0.31073  0.75719  0.00337  1.0000
  C   C120      1.0  0.92318  0.73711  0.85456  1.0000
  C   C121      1.0  0.04205000000000002  0.68678  0.89446  1.0000
  C   C122      1.0  0.12396999999999996  0.66188  0.9057100000000001  1.0000
  C   C123      1.0  0.15274  0.61254  0.9628200000000001  1.0000
  C   C124      1.0  0.10202999999999988  0.5881600000000002  0.00772  1.0000
  C   C125      1.0  0.019979999999999977  0.61315  0.9978300000000001  1.0000
  C   C126      1.0  0.9915899999999999  0.6626200000000002  0.9405900000000001  1.0000
  C   C127      1.0  0.4425600000000001  0.9779400000000001  0.28674  1.0000
  C   C128      1.0  0.36965  0.05990000000000001  0.29097  1.0000
  C   C129      1.0  0.29094  0.06527000000000001  0.29038  1.0000
  C   C130      1.0  0.22313  0.14203000000000005  0.29538  1.0000
  C   C131      1.0  0.13909000000000005  0.14858000000000005  0.29069  1.0000
  C   C132      1.0  0.23407999999999998  0.21370999999999998  0.30131  1.0000
  C   C133      1.0  0.3126499999999999  0.20890000000000006  0.30132  1.0000
  C   C134      1.0  0.32569  0.28514  0.30587  1.0000
  C   C135      1.0  0.37999  0.13188000000000005  0.29544  1.0000
  C   C136      1.0  0.6305  0.6564  0.25819  1.0000
  C   C137      1.0  0.6441799999999999  0.5681400000000002  0.25576  1.0000
  C   C138      1.0  0.57836  0.54883  0.25252  1.0000
  C   C139      1.0  0.59054  0.46611  0.25489  1.0000
  C   C140      1.0  0.51874  0.44659  0.25616  1.0000
  C   C141      1.0  0.66932  0.4024600000000001  0.25923  1.0000
  C   C142      1.0  0.7357199999999999  0.4212900000000001  0.26174  1.0000
  C   C143      1.0  0.8203899999999998  0.35392  0.26731  1.0000
  C   C144      1.0  0.72272  0.50416  0.26037  1.0000
  C   C145      1.0  0.76252  0.7455500000000003  0.33336  1.0000
  C   C146      1.0  0.73255  0.87684  0.32733  1.0000
  C   C147      1.0  0.69395  0.96329  0.3191  1.0000
  C   C148      1.0  0.7397999999999999  0.006350000000000004  0.32708  1.0000
  C   C149      1.0  0.82148  0.9647  0.3436  1.0000
  C   C150      1.0  0.8601799999999998  0.8784800000000003  0.35316  1.0000
  C   C151      1.0  0.8147699999999999  0.83494  0.34429  1.0000
  C   C152      1.0  0.9047800000000001  0.67951  0.36302  1.0000
  C   C153      1.0  0.97995  0.6787600000000001  0.34069  1.0000
  C   C154      1.0  0.05014999999999998  0.60777  0.35497  1.0000
  C   C155      1.0  0.046109999999999984  0.5378  0.3885  1.0000
  C   C156      1.0  0.97048  0.53723  0.40692  1.0000
  C   C157      1.0  0.8992199999999999  0.61002  0.39582  1.0000
  C   C158      1.0  0.19286000000000003  0.5303  0.31403  1.0000
  C   C159      1.0  0.23729999999999996  0.62492  0.29538  1.0000
  C   C160      1.0  0.2835199999999999  0.6696100000000003  0.27733  1.0000
  C   C161      1.0  0.2465299999999999  0.7544700000000002  0.28701  1.0000
  C   C162      1.0  0.16567000000000004  0.79399  0.3142  1.0000
  C   C163      1.0  0.11853999999999995  0.7503700000000002  0.33178  1.0000
  C   C164      1.0  0.15505999999999984  0.6655900000000002  0.32125  1.0000
  C   C165      1.0  0.8924499999999999  0.46199  0.4632800000000001  1.0000
  C   C166      1.0  0.98532  0.33847  0.48042  1.0000
  C   C167      1.0  0.02769000000000001  0.25482  0.50011  1.0000
  C   C168      1.0  0.11208  0.21742  0.48793999999999993  1.0000
  C   C169      1.0  0.15288999999999997  0.26238  0.45524999999999993  1.0000
  C   C170      1.0  0.11169999999999995  0.34572000000000014  0.43439  1.0000
  C   C171      1.0  0.027079999999999976  0.3843  0.44855  1.0000
  C   C172      1.0  0.48406  0.76209  0.3976700000000001  1.0000
  C   C173      1.0  0.5195299999999999  0.83596  0.45474  1.0000
  C   C174      1.0  0.55587  0.88171  0.47826  1.0000
  C   C175      1.0  0.53673  0.90281  0.54401  1.0000
  C   C176      1.0  0.48301000000000033  0.87912  0.58553  1.0000
  C   C177      1.0  0.44644999999999996  0.83327  0.56309  1.0000
  C   C178      1.0  0.46536999999999995  0.8129400000000002  0.49715  1.0000
  C   C179      1.0  0.38558  0.73315  0.47622000000000003  1.0000
  C   C180      1.0  0.30933999999999995  0.78304  0.50631  1.0000
  C   C181      1.0  0.25118000000000007  0.75146  0.51949  1.0000
  C   C182      1.0  0.26810000000000006  0.6714  0.50264  1.0000
  C   C183      1.0  0.34596999999999983  0.6220100000000002  0.47533000000000003  1.0000
  C   C184      1.0  0.40547  0.65159  0.46196000000000004  1.0000
  C   C185      1.0  0.13352999999999998  0.76677  0.59747  1.0000
  C   C186      1.0  0.06377999999999993  0.9001100000000002  0.59914  1.0000
  C   C187      1.0  0.0040699999999999755  0.9801300000000001  0.61055  1.0000
  C   C188      1.0  0.011469999999999992  0.04527  0.57212  1.0000
  C   C189      1.0  0.07620000000000002  0.031130000000000005  0.52375  1.0000
  C   C190      1.0  0.13680999999999977  0.9515900000000003  0.51241  1.0000
  C   C191      1.0  0.12980999999999998  0.8863600000000003  0.55124  1.0000
  C   C192      1.0  0.34134  0.21251  0.86478  1.0000
  C   C193      1.0  0.3761099999999999  0.08029999999999998  0.86352  1.0000
  C   C194      1.0  0.408  0.9971900000000001  0.84776  1.0000
  C   C195      1.0  0.39950999999999964  0.9410500000000005  0.89649  1.0000
  C   C196      1.0  0.36094999999999994  0.9661599999999999  0.9594300000000001  1.0000
  C   C197      1.0  0.32873  0.04876  0.97584  1.0000
  C   C198      1.0  0.33658  0.10491  0.9266100000000002  1.0000
  C   C199      1.0  0.39277  0.51111  0.3965000000000001  1.0000
  C   C200      1.0  0.36186999999999997  0.41792  0.45164  1.0000
  C   C201      1.0  0.34891999999999995  0.3479600000000001  0.47285  1.0000
  C   C202      1.0  0.31964  0.34353  0.53828  1.0000
  C   C203      1.0  0.30462  0.40594  0.58182  1.0000
  C   C204      1.0  0.31628999999999996  0.47661999999999993  0.56126  1.0000
  C   C205      1.0  0.34391  0.48161000000000004  0.4953600000000001  1.0000
  C   C206      1.0  0.31721  0.37339  0.15265  1.0000
  C   C207      1.0  0.3672899999999999  0.4585  0.11025  1.0000
  C   C208      1.0  0.39993  0.51659  0.09923  1.0000
  C   C209      1.0  0.40824999999999995  0.5447900000000002  0.03411  1.0000
  C   C210      1.0  0.38583000000000006  0.51583  0.98109  1.0000
  C   C211      1.0  0.3526199999999998  0.45855000000000007  0.99127  1.0000
  C   C212      1.0  0.3431099999999999  0.43145  0.05668999999999999  1.0000
  C   C213      1.0  0.27182  0.33744  0.055589999999999994  1.0000
  C   C214      1.0  0.31194  0.28694  0.00293  1.0000
  C   C215      1.0  0.2737899999999999  0.24436000000000002  0.97737  1.0000
  C   C216      1.0  0.19739  0.25151  0.00356  1.0000
  C   C217      1.0  0.15932999999999997  0.3015  0.05681  1.0000
  C   C218      1.0  0.19517000000000004  0.34585  0.08276  1.0000
  C   C219      1.0  0.9615899999999998  0.9765900000000001  0.79317  1.0000
  C   C220      1.0  0.09346999999999994  0.92295  0.79862  1.0000
  C   C221      1.0  0.17762999999999984  0.8727600000000002  0.79451  1.0000
  C   C222      1.0  0.22725999999999993  0.90167  0.82081  1.0000
  C   C223      1.0  0.19462999999999991  0.9774100000000001  0.8519400000000001  1.0000
  C   C224      1.0  0.11095  0.0278  0.8565500000000001  1.0000
  C   C225      1.0  0.06145  0.00031999999999999564  0.82789  1.0000
  C   C226      1.0  0.9188799999999999  0.11310000000000005  0.84361  1.0000
  C   C227      1.0  0.93879  0.18014  0.8299200000000001  1.0000
  C   C228      1.0  0.8867099999999999  0.2577000000000001  0.8538600000000001  1.0000
  C   C229      1.0  0.81257  0.26899  0.8886800000000001  1.0000
  C   C230      1.0  0.79141  0.20243999999999998  0.8984  1.0000
  C   C231      1.0  0.84468  0.12356000000000002  0.87742  1.0000
  C   C232      1.0  0.8521900000000001  0.40839  0.8349800000000002  1.0000
  C   C233      1.0  0.97067  0.4083600000000001  0.81794  1.0000
  C   C234      1.0  0.035689999999999944  0.43036  0.80381  1.0000
  C   C235      1.0  0.11479999999999999  0.36713  0.80292  1.0000
  C   C236      1.0  0.12890999999999997  0.28371  0.8163700000000002  1.0000
  C   C237      1.0  0.06496000000000002  0.2605199999999999  0.8304500000000001  1.0000
  C   C238      1.0  0.98558  0.3238800000000001  0.83034  1.0000
  C   C239      1.0  0.64955  0.20966  0.9080100000000001  1.0000
  C   C240      1.0  0.60784  0.25182  0.00642  1.0000
  C   C241      1.0  0.56304  0.27958  0.06644  1.0000
  C   C242      1.0  0.60085  0.29763  0.11468  1.0000
  C   C243      1.0  0.68204  0.28774  0.10383  1.0000
  C   C244      1.0  0.7281  0.25975  0.04476  1.0000
  C   C245      1.0  0.6892699999999999  0.24281000000000003  0.9966300000000001  1.0000
  C   C246      1.0  0.07682  0.26288  0.14544  1.0000
  C   C247      1.0  0.9579499999999999  0.31321  0.10554  1.0000
  C   C248      1.0  0.87604  0.3381200000000001  0.09429  1.0000
  C   C249      1.0  0.8472599999999998  0.38746  0.03717  1.0000
  C   C250      1.0  0.89797  0.4118400000000002  0.99228  1.0000
  C   C251      1.0  0.9800199999999998  0.38684000000000013  0.00216  1.0000
  C   C252      1.0  0.008409999999999954  0.3373800000000001  0.0594  1.0000
  N   N1        1.0  0.29760000000000003  0.18115  0.67915  1.0000
  N   N2        1.0  0.16828999999999997  0.24956  0.65095  1.0000
  N   N3        1.0  0.7414600000000001  0.45951999999999993  0.70777  1.0000
  N   N4        1.0  0.8719  0.3970300000000001  0.66745  1.0000
  N   N5        1.0  0.09822999999999987  0.6114900000000002  0.51182  1.0000
  N   N6        1.0  0.03483999999999999  0.53459  0.56196  1.0000
  N   N7        1.0  0.47066  0.19687  0.6067  1.0000
  N   N8        1.0  0.5563700000000001  0.23446000000000003  0.54081  1.0000
  N   N9        1.0  0.9313399999999995  0.1757500000000001  0.37326  1.0000
  N   N10       1.0  0.8258899999999998  0.20031  0.44861  1.0000
  N   N11       1.0  0.6227999999999999  0.8507000000000002  0.17347  1.0000
  N   N12       1.0  0.68502  0.80993  0.07422  1.0000
  N   N13       1.0  0.60766  0.56134  0.6093  1.0000
  N   N14       1.0  0.6360199999999999  0.45932000000000006  0.54166  1.0000
  N   N15       1.0  0.6487  0.5802600000000002  0.8310200000000001  1.0000
  N   N16       1.0  0.6895599999999998  0.62241  0.91435  1.0000
  N   N17       1.0  0.9707499999999999  0.08977  0.22193000000000002  1.0000
  N   N18       1.0  0.023309999999999956  0.96619  0.1766  1.0000
  N   N19       1.0  0.11310000000000003  0.54084  0.17857  1.0000
  N   N20       1.0  0.09231  0.67479  0.15887  1.0000
  N   N21       1.0  0.41501  0.76908  0.04979999999999999  1.0000
  N   N22       1.0  0.28464  0.78498  0.06715  1.0000
  N   N23       1.0  0.9969099999999999  0.7335400000000002  0.84184  1.0000
  N   N24       1.0  0.9158599999999999  0.69574  0.9134799999999998  1.0000
  N   N25       1.0  0.7024  0.81884  0.32085  1.0000
  N   N26       1.0  0.8317100000000001  0.75043  0.34905  1.0000
  N   N27       1.0  0.25854  0.54048  0.29223  1.0000
  N   N28       1.0  0.1281  0.60297  0.33254  1.0000
  N   N29       1.0  0.9017699999999996  0.3885000000000001  0.48818000000000006  1.0000
  N   N30       1.0  0.96516  0.46541  0.43803999999999993  1.0000
  N   N31       1.0  0.52934  0.80313  0.39329  1.0000
  N   N32       1.0  0.44363  0.76554  0.45919  1.0000
  N   N33       1.0  0.06865999999999987  0.8242400000000002  0.62674  1.0000
  N   N34       1.0  0.17411  0.79969  0.55139  1.0000
  N   N35       1.0  0.37720000000000004  0.14929  0.82652  1.0000
  N   N36       1.0  0.31498  0.19007000000000002  0.92578  1.0000
  N   N37       1.0  0.3923399999999999  0.4386600000000002  0.39069  1.0000
  N   N38       1.0  0.3639899999999998  0.5406800000000003  0.4583400000000001  1.0000
  N   N39       1.0  0.3513  0.4197300000000001  0.16898  1.0000
  N   N40       1.0  0.31043999999999994  0.37758000000000014  0.08565  1.0000
  N   N41       1.0  0.029249999999999988  0.91023  0.7780700000000002  1.0000
  N   N42       1.0  0.9766899999999998  0.033809999999999986  0.8234000000000001  1.0000
  N   N43       1.0  0.8869000000000001  0.45916  0.82143  1.0000
  N   N44       1.0  0.90769  0.3252  0.84112  1.0000
  N   N45       1.0  0.58499  0.23091  0.9502  1.0000
  N   N46       1.0  0.7153599999999999  0.21502  0.93284  1.0000
  N   N47       1.0  0.003089999999999955  0.26645000000000013  0.15816  1.0000
  N   N48       1.0  0.08413999999999998  0.30425000000000013  0.08652  1.0000
  O   O1        1.0  0.48899999999999993  0.025790000000000007  0.69854  1.0000
  O   O2        1.0  0.56575  0.08394  0.73041  1.0000
  O   O3        1.0  0.8706299999999998  0.9154500000000002  0.71749  1.0000
  O   O4        1.0  0.9188399999999999  0.77753  0.70784  1.0000
  O   O5        1.0  0.7335000000000002  0.64841  0.67597  1.0000
  O   O6        1.0  0.60208  0.72124  0.7113  1.0000
  O   O7        1.0  0.4426999999999999  0.28697  0.73981  1.0000
  O   O8        1.0  0.30727  0.32937999999999995  0.7406200000000001  1.0000
  O   O9        1.0  0.55204  0.49242  0.74683  1.0000
  O   O10       1.0  0.47027000000000035  0.62873  0.73754  1.0000
  O   O11       1.0  0.16713999999999998  0.7181200000000001  0.7504  1.0000
  O   O12       1.0  0.12582999999999994  0.63057  0.7110400000000001  1.0000
  O   O13       1.0  0.5109999999999998  0.9742100000000004  0.30145  1.0000
  O   O14       1.0  0.43425  0.91605  0.26959  1.0000
  O   O15       1.0  0.12936999999999999  0.08455  0.2825  1.0000
  O   O16       1.0  0.08116  0.22247  0.29216  1.0000
  O   O17       1.0  0.26649999999999996  0.35159  0.32403  1.0000
  O   O18       1.0  0.39792  0.27876  0.2887  1.0000
  O   O19       1.0  0.5572999999999999  0.71302  0.26019  1.0000
  O   O20       1.0  0.6927299999999998  0.6706200000000002  0.25938  1.0000
  O   O21       1.0  0.44795999999999997  0.50758  0.25317  1.0000
  O   O22       1.0  0.52973  0.37126  0.26246  1.0000
  O   O23       1.0  0.8328699999999999  0.28187  0.2496  1.0000
  O   O24       1.0  0.8741700000000001  0.36943  0.28895  1.0000
