data_image0
_chemical_formula_structural       Zn8H192C224S8N32O48
_chemical_formula_sum              "Zn8 H192 C224 S8 N32 O48"
_cell_length_a       11.19334
_cell_length_b       24.0729
_cell_length_c       25.857329999999997
_cell_angle_alpha    62.32952999999999
_cell_angle_beta     77.43705000000001
_cell_angle_gamma    76.45159

_symmetry_space_group_name_H-M    'P 1'
_symmetry_Int_Tables_number       1

loop_
  _symmetry_equiv_pos_as_xyz
  'x,y,z'

loop_
  _atom_site_type_symbol
  _atom_site_label
  _atom_site_symmetry_multiplicity
  _atom_site_fract_x
  _atom_site_fract_y
  _atom_site_fract_z
  _atom_site_occupancy
  Zn  Zn1       1.0  0.18573999999999993  0.78379  0.7493600000000001  1.0000
  Zn  Zn2       1.0  0.7197399999999999  0.7148999999999999  0.74998  1.0000
  Zn  Zn3       1.0  0.81427  0.21620999999999999  0.25064  1.0000
  Zn  Zn4       1.0  0.28025999999999995  0.2851  0.25002  1.0000
  Zn  Zn5       1.0  0.25820999999999994  0.24984000000000003  0.75018  1.0000
  Zn  Zn6       1.0  0.6369299999999999  0.24998  0.74985  1.0000
  Zn  Zn7       1.0  0.74179  0.75016  0.24982  1.0000
  Zn  Zn8       1.0  0.36307999999999996  0.75002  0.25015  1.0000
  H   H1        1.0  0.9541099999999999  0.30167  0.25926  1.0000
  H   H2        1.0  0.008260000000000035  0.3214899999999999  0.33352  1.0000
  H   H3        1.0  0.75993  0.19031000000000003  0.46137  1.0000
  H   H4        1.0  0.7187900000000002  0.17543999999999996  0.38087  1.0000
  H   H5        1.0  0.80733  0.20451000000000003  0.51968  1.0000
  H   H6        1.0  0.7957  0.27924  0.51897  1.0000
  H   H7        1.0  0.94932  0.35288  0.44357  1.0000
  H   H8        1.0  0.05686000000000003  0.3245799999999998  0.39577000000000007  1.0000
  H   H9        1.0  0.16357000000000008  0.24145999999999998  0.47587  1.0000
  H   H10       1.0  0.15419000000000008  0.3156899999999999  0.47593  1.0000
  H   H11       1.0  0.90111  0.19888999999999998  0.60022  1.0000
  H   H12       1.0  0.007609999999999972  0.16674  0.55503  1.0000
  H   H13       1.0  0.2054799999999999  0.32762  0.53486  1.0000
  H   H14       1.0  0.2830400000000001  0.32390999999999986  0.61717  1.0000
  H   H15       1.0  0.09540000000000007  0.1766099999999999  0.7383000000000001  1.0000
  H   H16       1.0  0.9945799999999999  0.17791999999999994  0.66206  1.0000
  H   H17       1.0  0.5221899999999999  0.11970000000000003  0.86104  1.0000
  H   H18       1.0  0.64328  0.028079999999999963  0.93694  1.0000
  H   H19       1.0  0.4330800000000001  0.9008700000000001  0.93368  1.0000
  H   H20       1.0  0.30941  0.9946599999999998  0.8593300000000001  1.0000
  H   H21       1.0  0.8582000000000001  0.9442199999999998  0.92835  1.0000
  H   H22       1.0  0.025580000000000006  0.9171099999999999  0.85717  1.0000
  H   H23       1.0  0.8289799999999999  0.7763000000000001  0.87224  1.0000
  H   H24       1.0  0.6643399999999999  0.8003799999999999  0.94536  1.0000
  H   H25       1.0  0.4191199999999999  0.69059  0.7597600000000001  1.0000
  H   H26       1.0  0.5293  0.60414  0.83711  1.0000
  H   H27       1.0  0.19866000000000006  0.6139  0.96026  1.0000
  H   H28       1.0  0.10394  0.7009799999999999  0.8767300000000001  1.0000
  H   H29       1.0  0.27627  0.52857  0.01437  1.0000
  H   H30       1.0  0.38384  0.55735  0.03402  1.0000
  H   H31       1.0  0.61543  0.55644  0.9045100000000001  1.0000
  H   H32       1.0  0.59563  0.5715600000000001  0.96684  1.0000
  H   H33       1.0  0.16088  0.016459999999999992  0.63721  1.0000
  H   H34       1.0  0.26469  0.11097000000000004  0.56467  1.0000
  H   H35       1.0  0.6047700000000001  0.9845499999999999  0.55695  1.0000
  H   H36       1.0  0.50108  0.89156  0.63105  1.0000
  H   H37       1.0  0.40203  0.21312999999999996  0.55003  1.0000
  H   H38       1.0  0.46186  0.23676  0.62522  1.0000
  H   H39       1.0  0.7835700000000001  0.09442999999999997  0.64564  1.0000
  H   H40       1.0  0.7236799999999998  0.06827999999999997  0.57193  1.0000
  H   H41       1.0  0.88753  0.17009999999999995  0.7611600000000001  1.0000
  H   H42       1.0  0.020939999999999997  0.10037  0.83811  1.0000
  H   H43       1.0  0.7055500000000003  0.11930000000000006  0.96486  1.0000
  H   H44       1.0  0.59435  0.19223999999999997  0.88223  1.0000
  H   H45       1.0  0.11172000000000014  0.050880000000000036  0.90143  1.0000
  H   H46       1.0  0.12609999999999996  0.05797999999999997  0.96452  1.0000
  H   H47       1.0  0.79206  0.04887  0.022790000000000005  1.0000
  H   H48       1.0  0.9306999999999999  0.059469999999999995  0.03797  1.0000
  H   H49       1.0  0.5143099999999999  0.19889  0.24144  1.0000
  H   H50       1.0  0.6626200000000001  0.17867999999999998  0.16725  1.0000
  H   H51       1.0  0.40990000000000004  0.3098  0.03954  1.0000
  H   H52       1.0  0.27337  0.32476  0.12012000000000002  1.0000
  H   H53       1.0  0.5299599999999999  0.29564999999999997  0.9811000000000001  1.0000
  H   H54       1.0  0.5926499999999998  0.22098000000000007  0.98167  1.0000
  H   H55       1.0  0.74519  0.14720999999999998  0.056720000000000007  1.0000
  H   H56       1.0  0.77629  0.17503999999999997  0.10480000000000002  1.0000
  H   H57       1.0  0.8795400000000001  0.25853  0.024630000000000003  1.0000
  H   H58       1.0  0.94514  0.1843  0.02453  1.0000
  H   H59       1.0  0.6986799999999999  0.30132000000000003  0.90042  1.0000
  H   H60       1.0  0.72776  0.33330999999999994  0.94567  1.0000
  H   H61       1.0  0.06771000000000003  0.17257999999999998  0.96545  1.0000
  H   H62       1.0  0.22386000000000003  0.17618999999999999  0.8831200000000001  1.0000
  H   H63       1.0  0.008850000000000005  0.32326  0.76198  1.0000
  H   H64       1.0  0.83318  0.32212  0.8382500000000002  1.0000
  H   H65       1.0  0.5006899999999999  0.37923000000000007  0.63981  1.0000
  H   H66       1.0  0.60777  0.47046  0.56424  1.0000
  H   H67       1.0  0.26815999999999984  0.5989700000000001  0.56651  1.0000
  H   H68       1.0  0.1619000000000001  0.50587  0.64052  1.0000
  H   H69       1.0  0.73091  0.55503  0.57276  1.0000
  H   H70       1.0  0.79784  0.58346  0.6433  1.0000
  H   H71       1.0  0.47331000000000006  0.72413  0.62656  1.0000
  H   H72       1.0  0.4085799999999999  0.69895  0.55368  1.0000
  H   H73       1.0  0.86867  0.8091399999999999  0.74006  1.0000
  H   H74       1.0  0.9692400000000002  0.89576  0.66302  1.0000
  H   H75       1.0  0.7731199999999999  0.8864899999999999  0.5393  1.0000
  H   H76       1.0  0.68252  0.79917  0.62244  1.0000
  H   H77       1.0  0.8195100000000003  0.9717999999999996  0.48521  1.0000
  H   H78       1.0  0.97597  0.9428499999999999  0.46585  1.0000
  H   H79       1.0  0.07583999999999987  0.94328  0.59569  1.0000
  H   H80       1.0  0.13399000000000003  0.92819  0.53335  1.0000
  H   H81       1.0  0.81493  0.48176999999999987  0.8634000000000001  1.0000
  H   H82       1.0  0.9418200000000001  0.3878199999999999  0.93621  1.0000
  H   H83       1.0  0.14528000000000008  0.51538  0.94286  1.0000
  H   H84       1.0  0.021409999999999933  0.60784  0.8685  1.0000
  H   H85       1.0  0.16560000000000005  0.2865599999999999  0.94939  1.0000
  H   H86       1.0  0.3253100000000002  0.26348  0.87428  1.0000
  H   H87       1.0  0.5231700000000004  0.4056899999999999  0.85464  1.0000
  H   H88       1.0  0.3626499999999999  0.43127  0.9285600000000002  1.0000
  H   H89       1.0  0.8179400000000001  0.33005  0.73842  1.0000
  H   H90       1.0  0.9583499999999998  0.3997800000000001  0.66159  1.0000
  H   H91       1.0  0.79014  0.38074000000000013  0.53462  1.0000
  H   H92       1.0  0.66948  0.30778  0.61724  1.0000
  H   H93       1.0  0.06424999999999999  0.44839  0.59858  1.0000
  H   H94       1.0  0.14875999999999998  0.44205  0.53508  1.0000
  H   H95       1.0  0.86509  0.4512999999999999  0.47648000000000007  1.0000
  H   H96       1.0  0.029789999999999973  0.44108  0.46158  1.0000
  H   H97       1.0  0.04590000000000006  0.6983299999999999  0.74074  1.0000
  H   H98       1.0  0.9917400000000002  0.67851  0.66648  1.0000
  H   H99       1.0  0.2400700000000001  0.8096899999999998  0.5386300000000002  1.0000
  H   H100      1.0  0.28122  0.82456  0.61913  1.0000
  H   H101      1.0  0.19266999999999998  0.7955000000000001  0.48032  1.0000
  H   H102      1.0  0.20431000000000005  0.7207600000000001  0.48103  1.0000
  H   H103      1.0  0.05067999999999999  0.64712  0.55643  1.0000
  H   H104      1.0  0.9431499999999996  0.67542  0.60423  1.0000
  H   H105      1.0  0.8364300000000001  0.75854  0.52413  1.0000
  H   H106      1.0  0.8458199999999999  0.68431  0.52407  1.0000
  H   H107      1.0  0.09890000000000009  0.8011099999999999  0.39978  1.0000
  H   H108      1.0  0.9923899999999993  0.83326  0.44497  1.0000
  H   H109      1.0  0.79453  0.67238  0.46514  1.0000
  H   H110      1.0  0.71697  0.67609  0.38283  1.0000
  H   H111      1.0  0.9046100000000001  0.82339  0.2617  1.0000
  H   H112      1.0  0.005430000000000005  0.82208  0.33794  1.0000
  H   H113      1.0  0.47782000000000013  0.8803  0.13896  1.0000
  H   H114      1.0  0.3567300000000001  0.9719199999999999  0.06306  1.0000
  H   H115      1.0  0.56692  0.09913  0.06632  1.0000
  H   H116      1.0  0.69059  0.005340000000000008  0.14067  1.0000
  H   H117      1.0  0.14181000000000005  0.05578  0.07165  1.0000
  H   H118      1.0  0.97442  0.08289  0.14283  1.0000
  H   H119      1.0  0.17102000000000003  0.2237  0.12776  1.0000
  H   H120      1.0  0.33566  0.19962  0.054650000000000004  1.0000
  H   H121      1.0  0.58088  0.30941  0.24024000000000004  1.0000
  H   H122      1.0  0.47071000000000013  0.39586  0.16289  1.0000
  H   H123      1.0  0.8013399999999999  0.3861  0.03974  1.0000
  H   H124      1.0  0.89607  0.29903  0.12328  1.0000
  H   H125      1.0  0.7237299999999998  0.4714299999999999  0.9856300000000001  1.0000
  H   H126      1.0  0.6161599999999998  0.4426499999999999  0.9659800000000001  1.0000
  H   H127      1.0  0.38458000000000003  0.44357  0.0955  1.0000
  H   H128      1.0  0.40437  0.42843999999999993  0.03316  1.0000
  H   H129      1.0  0.8391199999999995  0.9835399999999999  0.36279  1.0000
  H   H130      1.0  0.7353099999999999  0.88903  0.43533000000000005  1.0000
  H   H131      1.0  0.3952399999999999  0.015449999999999997  0.44305  1.0000
  H   H132      1.0  0.49891999999999986  0.10843999999999994  0.36895000000000006  1.0000
  H   H133      1.0  0.59797  0.7868699999999998  0.44997  1.0000
  H   H134      1.0  0.53814  0.76324  0.37479  1.0000
  H   H135      1.0  0.21644000000000002  0.9055699999999999  0.35436  1.0000
  H   H136      1.0  0.2763200000000001  0.9317199999999999  0.42807  1.0000
  H   H137      1.0  0.11248000000000007  0.8298999999999999  0.23884000000000005  1.0000
  H   H138      1.0  0.9790699999999999  0.8996299999999999  0.16189  1.0000
  H   H139      1.0  0.29446000000000006  0.8807  0.035140000000000005  1.0000
  H   H140      1.0  0.40566000000000013  0.8077599999999999  0.11777000000000003  1.0000
  H   H141      1.0  0.88828  0.94912  0.09857  1.0000
  H   H142      1.0  0.87391  0.94202  0.03548  1.0000
  H   H143      1.0  0.20793999999999999  0.9511299999999999  0.97721  1.0000
  H   H144      1.0  0.06930000000000011  0.9405299999999998  0.9620300000000002  1.0000
  H   H145      1.0  0.48569  0.8011099999999999  0.7585600000000001  1.0000
  H   H146      1.0  0.3373799999999999  0.82133  0.83275  1.0000
  H   H147      1.0  0.5901100000000001  0.6901999999999999  0.96046  1.0000
  H   H148      1.0  0.7266400000000001  0.67524  0.87988  1.0000
  H   H149      1.0  0.47004999999999997  0.7043500000000001  0.0189  1.0000
  H   H150      1.0  0.40735  0.77902  0.01833  1.0000
  H   H151      1.0  0.25481  0.85279  0.94328  1.0000
  H   H152      1.0  0.22371000000000008  0.82496  0.8952  1.0000
  H   H153      1.0  0.12046000000000004  0.7414699999999999  0.9753700000000001  1.0000
  H   H154      1.0  0.05487000000000005  0.8156999999999999  0.97547  1.0000
  H   H155      1.0  0.30132  0.69868  0.09958  1.0000
  H   H156      1.0  0.2722500000000001  0.6666899999999998  0.05433  1.0000
  H   H157      1.0  0.9323000000000001  0.82742  0.03455  1.0000
  H   H158      1.0  0.7761499999999999  0.82382  0.11688000000000001  1.0000
  H   H159      1.0  0.99115  0.67674  0.23802  1.0000
  H   H160      1.0  0.16681999999999997  0.67788  0.16176  1.0000
  H   H161      1.0  0.49931999999999993  0.62077  0.36019  1.0000
  H   H162      1.0  0.39224000000000003  0.52954  0.43577  1.0000
  H   H163      1.0  0.73185  0.40102999999999994  0.43349  1.0000
  H   H164      1.0  0.83811  0.4941299999999999  0.3594800000000001  1.0000
  H   H165      1.0  0.2690899999999999  0.44497  0.42724  1.0000
  H   H166      1.0  0.2021699999999999  0.41654000000000013  0.3567  1.0000
  H   H167      1.0  0.52669  0.27586999999999995  0.37344  1.0000
  H   H168      1.0  0.5914199999999998  0.30105000000000004  0.44632  1.0000
  H   H169      1.0  0.13133000000000003  0.19086  0.25994  1.0000
  H   H170      1.0  0.03077000000000002  0.10423999999999997  0.33698  1.0000
  H   H171      1.0  0.22689000000000017  0.11350999999999997  0.4607  1.0000
  H   H172      1.0  0.3174899999999999  0.20083  0.37756  1.0000
  H   H173      1.0  0.18049  0.028199999999999996  0.51479  1.0000
  H   H174      1.0  0.02402999999999999  0.05714999999999998  0.53415  1.0000
  H   H175      1.0  0.92417  0.05672000000000001  0.40431  1.0000
  H   H176      1.0  0.8660099999999997  0.07180999999999996  0.46665000000000006  1.0000
  H   H177      1.0  0.18507  0.51823  0.1366  1.0000
  H   H178      1.0  0.05819000000000001  0.61218  0.06379  1.0000
  H   H179      1.0  0.8547199999999999  0.48462  0.05714000000000001  1.0000
  H   H180      1.0  0.97859  0.39216  0.1315  1.0000
  H   H181      1.0  0.8344100000000001  0.7134399999999999  0.05061  1.0000
  H   H182      1.0  0.6746999999999999  0.73652  0.12572  1.0000
  H   H183      1.0  0.47683  0.59431  0.14536  1.0000
  H   H184      1.0  0.63736  0.56873  0.07144  1.0000
  H   H185      1.0  0.18206  0.66995  0.26158  1.0000
  H   H186      1.0  0.04166000000000007  0.60022  0.33841  1.0000
  H   H187      1.0  0.20986999999999997  0.6192599999999999  0.4653800000000001  1.0000
  H   H188      1.0  0.33052999999999993  0.6922200000000001  0.38276  1.0000
  H   H189      1.0  0.9357500000000002  0.5516099999999998  0.40142  1.0000
  H   H190      1.0  0.8512400000000001  0.5579599999999998  0.46492000000000006  1.0000
  H   H191      1.0  0.13491000000000017  0.5486999999999997  0.52352  1.0000
  H   H192      1.0  0.9702099999999999  0.5589199999999998  0.53842  1.0000
  C   C1        1.0  0.9117400000000001  0.27803  0.30457  1.0000
  C   C2        1.0  0.9417599999999999  0.28942  0.34739  1.0000
  C   C3        1.0  0.89058  0.25774999999999987  0.40694  1.0000
  C   C4        1.0  0.8062800000000002  0.21656999999999996  0.41775  1.0000
  C   C5        1.0  0.7819200000000001  0.20785999999999996  0.37204  1.0000
  C   C6        1.0  0.8612  0.24083  0.51155  1.0000
  C   C7        1.0  0.004940000000000011  0.3102  0.43991  1.0000
  C   C8        1.0  0.09918  0.27987  0.48388  1.0000
  C   C9        1.0  0.95415  0.21094999999999997  0.5564000000000001  1.0000
  C   C10       1.0  0.08968000000000002  0.25292999999999993  0.58933  1.0000
  C   C11       1.0  0.17480999999999994  0.2935800000000001  0.57882  1.0000
  C   C12       1.0  0.22013  0.2916  0.62539  1.0000
  C   C13       1.0  0.11218  0.2107699999999999  0.6925900000000001  1.0000
  C   C14       1.0  0.05908  0.21085999999999996  0.64906  1.0000
  C   C15       1.0  0.32847000000000004  0.11846999999999995  0.81551  1.0000
  C   C16       1.0  0.40852999999999995  0.06226000000000002  0.8567  1.0000
  C   C17       1.0  0.50398  0.07158999999999995  0.8775900000000001  1.0000
  C   C18       1.0  0.5712600000000001  0.020620000000000013  0.91962  1.0000
  C   C19       1.0  0.5434200000000001  0.95965  0.93992  1.0000
  C   C20       1.0  0.4507300000000002  0.94899  0.91824  1.0000
  C   C21       1.0  0.3830299999999999  0.000689999999999975  0.87683  1.0000
  C   C22       1.0  0.7533599999999998  0.87322  0.94066  1.0000
  C   C23       1.0  0.8532700000000001  0.90737  0.9161000000000001  1.0000
  C   C24       1.0  0.94506  0.89281  0.8765800000000001  1.0000
  C   C25       1.0  0.9359200000000001  0.8455499999999999  0.86088  1.0000
  C   C26       1.0  0.8341899999999999  0.8128599999999999  0.8848  1.0000
  C   C27       1.0  0.7425499999999999  0.8262499999999999  0.92533  1.0000
  C   C28       1.0  0.040819999999999995  0.82845  0.82124  1.0000
  C   C29       1.0  0.37288999999999994  0.6722600000000001  0.8048  1.0000
  C   C30       1.0  0.4349100000000001  0.6228699999999998  0.84911  1.0000
  C   C31       1.0  0.3763400000000001  0.5993899999999999  0.90796  1.0000
  C   C32       1.0  0.25261000000000006  0.6281899999999998  0.91703  1.0000
  C   C33       1.0  0.19802000000000006  0.6778999999999998  0.8699300000000001  1.0000
  C   C34       1.0  0.37501999999999996  0.52726  0.0137  1.0000
  C   C35       1.0  0.5714600000000002  0.54159  0.95009  1.0000
  C   C36       1.0  0.25687  0.89437  0.67874  1.0000
  C   C37       1.0  0.32507000000000014  0.9490599999999998  0.6383  1.0000
  C   C38       1.0  0.2581  0.010759999999999994  0.61959  1.0000
  C   C39       1.0  0.31506  0.06279999999999998  0.57926  1.0000
  C   C40       1.0  0.43972999999999995  0.05229000000000002  0.55698  1.0000
  C   C41       1.0  0.5082699999999999  0.99123  0.57525  1.0000
  C   C42       1.0  0.4504000000000001  0.9396  0.61641  1.0000
  C   C43       1.0  0.5597899999999999  0.13972  0.55707  1.0000
  C   C44       1.0  0.48461  0.18707  0.57147  1.0000
  C   C45       1.0  0.51807  0.20023  0.61307  1.0000
  C   C46       1.0  0.6260100000000001  0.16707  0.6395  1.0000
  C   C47       1.0  0.70018  0.11954000000000001  0.62457  1.0000
  C   C48       1.0  0.66731  0.10524999999999991  0.5836300000000001  1.0000
  C   C49       1.0  0.6664200000000001  0.1839099999999999  0.6818700000000001  1.0000
  C   C50       1.0  0.85354  0.15855  0.80712  1.0000
  C   C51       1.0  0.92628  0.11788999999999997  0.8510700000000001  1.0000
  C   C52       1.0  0.8769800000000001  0.10026999999999991  0.9110600000000001  1.0000
  C   C53       1.0  0.75325  0.1287  0.92101  1.0000
  C   C54       1.0  0.6888200000000002  0.17042999999999997  0.8741100000000002  1.0000
  C   C55       1.0  0.07674999999999992  0.03598999999999997  0.9481200000000001  1.0000
  C   C56       1.0  0.89286  0.03630999999999999  0.01831  1.0000
  C   C57       1.0  0.49334  0.22231  0.19619  1.0000
  C   C58       1.0  0.57765  0.21074  0.15337  1.0000
  C   C59       1.0  0.55412  0.24231  0.09384  1.0000
  C   C60       1.0  0.43913  0.2835  0.08311  1.0000
  C   C61       1.0  0.36031000000000013  0.29232999999999987  0.12885  1.0000
  C   C62       1.0  0.6122499999999998  0.2593  0.98914  1.0000
  C   C63       1.0  0.7542  0.18976999999999997  0.060580000000000016  1.0000
  C   C64       1.0  0.86203  0.22013999999999997  0.01657  1.0000
  C   C65       1.0  0.72013  0.28916000000000003  0.94421  1.0000
  C   C66       1.0  0.9309599999999998  0.24716999999999995  0.9110500000000001  1.0000
  C   C67       1.0  0.04655999999999997  0.20654999999999987  0.9215100000000002  1.0000
  C   C68       1.0  0.13659000000000002  0.20846999999999993  0.87491  1.0000
  C   C69       1.0  0.014379999999999948  0.28917  0.80771  1.0000
  C   C70       1.0  0.9177600000000002  0.28914999999999996  0.8513  1.0000
  C   C71       1.0  0.26011999999999996  0.38141  0.68502  1.0000
  C   C72       1.0  0.32559999999999995  0.4374099999999999  0.64389  1.0000
  C   C73       1.0  0.45153000000000004  0.42750999999999995  0.62332  1.0000
  C   C74       1.0  0.51081  0.47812  0.58147  1.0000
  C   C75       1.0  0.44293  0.53928  0.56093  1.0000
  C   C76       1.0  0.31771999999999995  0.5506  0.58226  1.0000
  C   C77       1.0  0.25938000000000005  0.49924999999999997  0.62354  1.0000
  C   C78       1.0  0.5668  0.62602  0.55942  1.0000
  C   C79       1.0  0.6760500000000003  0.5922  0.58448  1.0000
  C   C80       1.0  0.7125  0.60757  0.62371  1.0000
  C   C81       1.0  0.6394799999999998  0.6553100000000001  0.63863  1.0000
  C   C82       1.0  0.52877  0.68737  0.61446  1.0000
  C   C83       1.0  0.4924400000000001  0.6733099999999997  0.5741  1.0000
  C   C84       1.0  0.6861600000000001  0.6733699999999998  0.67794  1.0000
  C   C85       1.0  0.84941  0.82751  0.69497  1.0000
  C   C86       1.0  0.90612  0.87703  0.65082  1.0000
  C   C87       1.0  0.8833700000000001  0.90066  0.59188  1.0000
  C   C88       1.0  0.7980100000000002  0.87195  0.58259  1.0000
  C   C89       1.0  0.7463200000000001  0.82209  0.62956  1.0000
  C   C90       1.0  0.9162300000000002  0.9729599999999999  0.48612000000000005  1.0000
  C   C91       1.0  0.06282  0.9582299999999999  0.55006  1.0000
  C   C92       1.0  0.8293600000000001  0.6039799999999999  0.82156  1.0000
  C   C93       1.0  0.91159  0.5495299999999999  0.8621100000000002  1.0000
  C   C94       1.0  0.8882499999999999  0.48777000000000004  0.88107  1.0000
  C   C95       1.0  0.95737  0.43611999999999995  0.9215600000000003  1.0000
  C   C96       1.0  0.048720000000000055  0.4471199999999999  0.9436500000000001  1.0000
  C   C97       1.0  0.07368000000000009  0.5083199999999999  0.92501  1.0000
  C   C98       1.0  0.004969999999999854  0.5595799999999999  0.8837200000000002  1.0000
  C   C99       1.0  0.25662000000000007  0.35967000000000005  0.94333  1.0000
  C   C100      1.0  0.24360000000000004  0.3125899999999999  0.92854  1.0000
  C   C101      1.0  0.33230999999999994  0.29978  0.88677  1.0000
  C   C102      1.0  0.4331199999999999  0.3331299999999999  0.8603800000000001  1.0000
  C   C103      1.0  0.44426000000000004  0.38037  0.8757  1.0000
  C   C104      1.0  0.35585000000000006  0.39425  0.9168400000000001  1.0000
  C   C105      1.0  0.53296  0.31663999999999987  0.81771  1.0000
  C   C106      1.0  0.8188099999999999  0.3415099999999999  0.69245  1.0000
  C   C107      1.0  0.8946699999999999  0.3821999999999998  0.6485500000000001  1.0000
  C   C108      1.0  0.8882099999999999  0.39969000000000005  0.58856  1.0000
  C   C109      1.0  0.80324  0.37131  0.57848  1.0000
  C   C110      1.0  0.73378  0.32956999999999986  0.62538  1.0000
  C   C111      1.0  0.06081000000000002  0.46370999999999996  0.55184  1.0000
  C   C112      1.0  0.9483100000000001  0.46390000000000003  0.48132  1.0000
  C   C113      1.0  0.08827000000000004  0.7219699999999999  0.6954300000000001  1.0000
  C   C114      1.0  0.05825000000000002  0.71058  0.65261  1.0000
  C   C115      1.0  0.10942000000000006  0.7422499999999997  0.59307  1.0000
  C   C116      1.0  0.19372999999999996  0.78343  0.58225  1.0000
  C   C117      1.0  0.21808000000000005  0.7921399999999998  0.62796  1.0000
  C   C118      1.0  0.13880999999999996  0.7591699999999999  0.48845000000000005  1.0000
  C   C119      1.0  0.9950700000000001  0.68981  0.56009  1.0000
  C   C120      1.0  0.9008200000000002  0.72013  0.51612  1.0000
  C   C121      1.0  0.04585000000000009  0.7890499999999999  0.4436  1.0000
  C   C122      1.0  0.9103200000000002  0.7470699999999998  0.41067000000000004  1.0000
  C   C123      1.0  0.8251899999999999  0.70642  0.42118  1.0000
  C   C124      1.0  0.7798699999999997  0.7084  0.37461000000000005  1.0000
  C   C125      1.0  0.8878199999999998  0.78923  0.30741  1.0000
  C   C126      1.0  0.9409199999999999  0.7891499999999999  0.35094  1.0000
  C   C127      1.0  0.67153  0.88153  0.18449000000000002  1.0000
  C   C128      1.0  0.5914700000000002  0.9377399999999999  0.1433  1.0000
  C   C129      1.0  0.49602  0.9284099999999998  0.12241000000000002  1.0000
  C   C130      1.0  0.42875  0.97938  0.08038  1.0000
  C   C131      1.0  0.45658000000000004  0.04034999999999999  0.06008  1.0000
  C   C132      1.0  0.54927  0.051009999999999986  0.08176  1.0000
  C   C133      1.0  0.6169799999999999  0.99931  0.12317000000000002  1.0000
  C   C134      1.0  0.24665000000000006  0.12677999999999998  0.059340000000000004  1.0000
  C   C135      1.0  0.14672999999999997  0.09263000000000002  0.08390000000000002  1.0000
  C   C136      1.0  0.05494000000000002  0.10718999999999997  0.12342000000000002  1.0000
  C   C137      1.0  0.06409000000000002  0.15445  0.13912  1.0000
  C   C138      1.0  0.16581  0.18714  0.1152  1.0000
  C   C139      1.0  0.25745999999999997  0.17375  0.07467  1.0000
  C   C140      1.0  0.95918  0.17154999999999995  0.17876000000000003  1.0000
  C   C141      1.0  0.6271200000000001  0.3277399999999999  0.19520000000000004  1.0000
  C   C142      1.0  0.5651  0.37713  0.15089  1.0000
  C   C143      1.0  0.62367  0.40061  0.09204  1.0000
  C   C144      1.0  0.7473900000000001  0.37181  0.08297  1.0000
  C   C145      1.0  0.80198  0.3221  0.13007  1.0000
  C   C146      1.0  0.6249900000000002  0.47273999999999994  0.9863000000000001  1.0000
  C   C147      1.0  0.42854999999999993  0.45841  0.04991  1.0000
  C   C148      1.0  0.7431400000000002  0.10562999999999999  0.32126  1.0000
  C   C149      1.0  0.6749400000000002  0.05094  0.3617  1.0000
  C   C150      1.0  0.7419000000000006  0.9892399999999999  0.3804100000000001  1.0000
  C   C151      1.0  0.68495  0.9372  0.42074  1.0000
  C   C152      1.0  0.5602699999999999  0.94771  0.4430200000000001  1.0000
  C   C153      1.0  0.49173  0.008769999999999988  0.42475  1.0000
  C   C154      1.0  0.54961  0.06039999999999998  0.38359  1.0000
  C   C155      1.0  0.44021000000000005  0.86028  0.44293000000000005  1.0000
  C   C156      1.0  0.5154  0.81293  0.4285300000000001  1.0000
  C   C157      1.0  0.48192999999999997  0.79977  0.38693  1.0000
  C   C158      1.0  0.374  0.83293  0.3605  1.0000
  C   C159      1.0  0.2998300000000001  0.8804599999999999  0.37543  1.0000
  C   C160      1.0  0.3327000000000002  0.8947499999999999  0.41637  1.0000
  C   C161      1.0  0.33358000000000004  0.81609  0.31813  1.0000
  C   C162      1.0  0.14646000000000017  0.8414499999999997  0.19288  1.0000
  C   C163      1.0  0.07372000000000006  0.8821099999999998  0.14893  1.0000
  C   C164      1.0  0.12302999999999999  0.89973  0.08894  1.0000
  C   C165      1.0  0.24675999999999995  0.8712999999999999  0.07899  1.0000
  C   C166      1.0  0.31118  0.82957  0.12589  1.0000
  C   C167      1.0  0.9232499999999999  0.96401  0.05188  1.0000
  C   C168      1.0  0.10714999999999993  0.9636899999999999  0.9816900000000002  1.0000
  C   C169      1.0  0.5066700000000001  0.7776899999999999  0.8038100000000001  1.0000
  C   C170      1.0  0.42236000000000007  0.78926  0.84663  1.0000
  C   C171      1.0  0.4458900000000001  0.75769  0.9061700000000001  1.0000
  C   C172      1.0  0.5608799999999999  0.7164999999999999  0.91689  1.0000
  C   C173      1.0  0.6396899999999999  0.70767  0.87115  1.0000
  C   C174      1.0  0.38776000000000005  0.7407  0.01086  1.0000
  C   C175      1.0  0.24580000000000007  0.8102299999999999  0.93942  1.0000
  C   C176      1.0  0.13797  0.7798699999999998  0.9834300000000001  1.0000
  C   C177      1.0  0.27988000000000013  0.7108399999999999  0.05579  1.0000
  C   C178      1.0  0.06905000000000014  0.75283  0.08895  1.0000
  C   C179      1.0  0.95344  0.79346  0.07849  1.0000
  C   C180      1.0  0.8634200000000001  0.7915299999999998  0.12509  1.0000
  C   C181      1.0  0.9856299999999999  0.71083  0.19229000000000002  1.0000
  C   C182      1.0  0.08224999999999998  0.71085  0.1487  1.0000
  C   C183      1.0  0.73988  0.61859  0.31498  1.0000
  C   C184      1.0  0.6743999999999999  0.5625900000000001  0.35611  1.0000
  C   C185      1.0  0.5484700000000001  0.57249  0.37668000000000007  1.0000
  C   C186      1.0  0.48919999999999986  0.5218899999999999  0.41853000000000007  1.0000
  C   C187      1.0  0.5570799999999998  0.46071999999999996  0.43907  1.0000
  C   C188      1.0  0.6822800000000002  0.44939999999999997  0.41774  1.0000
  C   C189      1.0  0.74063  0.50075  0.37646  1.0000
  C   C190      1.0  0.4332000000000001  0.37398  0.44058  1.0000
  C   C191      1.0  0.32394999999999996  0.40779999999999994  0.41552  1.0000
  C   C192      1.0  0.2875  0.39242999999999995  0.37629  1.0000
  C   C193      1.0  0.36052  0.34469  0.36137  1.0000
  C   C194      1.0  0.4712299999999999  0.31263  0.38554000000000005  1.0000
  C   C195      1.0  0.5075600000000001  0.3266899999999999  0.42590000000000006  1.0000
  C   C196      1.0  0.31385  0.32663  0.32206  1.0000
  C   C197      1.0  0.15059000000000003  0.17249  0.30503  1.0000
  C   C198      1.0  0.09388000000000002  0.12297  0.34919  1.0000
  C   C199      1.0  0.11663999999999995  0.09933999999999998  0.40812  1.0000
  C   C200      1.0  0.20199000000000003  0.12805  0.41741  1.0000
  C   C201      1.0  0.2536899999999999  0.17791  0.37045000000000006  1.0000
  C   C202      1.0  0.08377  0.027040000000000015  0.51388  1.0000
  C   C203      1.0  0.93718  0.04176999999999993  0.4499500000000001  1.0000
  C   C204      1.0  0.17064  0.39602  0.17844  1.0000
  C   C205      1.0  0.08842000000000003  0.4504699999999999  0.13789  1.0000
  C   C206      1.0  0.11175  0.51223  0.11893000000000001  1.0000
  C   C207      1.0  0.04263000000000002  0.56389  0.07844  1.0000
  C   C208      1.0  0.95129  0.55288  0.05636  1.0000
  C   C209      1.0  0.92633  0.49168  0.075  1.0000
  C   C210      1.0  0.9950400000000003  0.4404199999999999  0.11628000000000002  1.0000
  C   C211      1.0  0.74339  0.64033  0.056670000000000005  1.0000
  C   C212      1.0  0.7564  0.68741  0.07146  1.0000
  C   C213      1.0  0.6677000000000002  0.70022  0.11323000000000003  1.0000
  C   C214      1.0  0.5668799999999999  0.66687  0.13963  1.0000
  C   C215      1.0  0.5557500000000001  0.61964  0.1243  1.0000
  C   C216      1.0  0.64415  0.60575  0.08316  1.0000
  C   C217      1.0  0.4670400000000001  0.68336  0.18229000000000004  1.0000
  C   C218      1.0  0.18119  0.6584900000000001  0.30755  1.0000
  C   C219      1.0  0.10533999999999993  0.6178100000000001  0.35146  1.0000
  C   C220      1.0  0.1118000000000001  0.6003099999999998  0.41144000000000003  1.0000
  C   C221      1.0  0.1967700000000001  0.6286899999999999  0.42152  1.0000
  C   C222      1.0  0.26623  0.67043  0.37462  1.0000
  C   C223      1.0  0.9391999999999996  0.53629  0.44816000000000006  1.0000
  C   C224      1.0  0.051699999999999954  0.5361  0.51868  1.0000
  S   S1        1.0  0.6358300000000003  0.8939199999999999  0.98971  1.0000
  S   S2        1.0  0.5135  0.11887999999999999  0.50763  1.0000
  S   S3        1.0  0.52038  0.60428  0.51082  1.0000
  S   S4        1.0  0.14076000000000002  0.3808600000000001  0.99281  1.0000
  S   S5        1.0  0.36417  0.10608  0.01029  1.0000
  S   S6        1.0  0.48650999999999994  0.88112  0.49238000000000004  1.0000
  S   S7        1.0  0.4796300000000003  0.39572  0.48919  1.0000
  S   S8        1.0  0.85924  0.61914  0.00719  1.0000
  N   N1        1.0  0.83358  0.23742  0.31566  1.0000
  N   N2        1.0  0.92313  0.26555  0.4511200000000001  1.0000
  N   N3        1.0  0.03819  0.25499  0.54463  1.0000
  N   N4        1.0  0.19135  0.25057  0.6822  1.0000
  N   N5        1.0  0.25612000000000007  0.7009300000000002  0.81419  1.0000
  N   N6        1.0  0.43621999999999994  0.55022  0.9531700000000001  1.0000
  N   N7        1.0  0.9434200000000001  0.05744000000000001  0.95628  1.0000
  N   N8        1.0  0.73584  0.18564000000000003  0.81717  1.0000
  N   N9        1.0  0.38538  0.26295  0.18518  1.0000
  N   N10       1.0  0.63869  0.23447  0.04955  1.0000
  N   N11       1.0  0.83679  0.2451199999999999  0.9558300000000002  1.0000
  N   N12       1.0  0.12327000000000006  0.24937999999999994  0.8181  1.0000
  N   N13       1.0  0.7714499999999999  0.79875  0.68537  1.0000
  N   N14       1.0  0.93927  0.94989  0.54678  1.0000
  N   N15       1.0  0.9573499999999998  0.44239000000000006  0.54346  1.0000
  N   N16       1.0  0.73885  0.31431  0.68233  1.0000
  N   N17       1.0  0.16642999999999997  0.7625800000000001  0.68434  1.0000
  N   N18       1.0  0.07686999999999998  0.73445  0.54888  1.0000
  N   N19       1.0  0.9618200000000006  0.74501  0.45537  1.0000
  N   N20       1.0  0.80865  0.74944  0.31781000000000004  1.0000
  N   N21       1.0  0.74389  0.29907000000000006  0.18581  1.0000
  N   N22       1.0  0.56378  0.44978  0.04683  1.0000
  N   N23       1.0  0.05658000000000006  0.94256  0.04372  1.0000
  N   N24       1.0  0.26417000000000007  0.81436  0.18283  1.0000
  N   N25       1.0  0.6146300000000001  0.73705  0.81482  1.0000
  N   N26       1.0  0.3613199999999999  0.76553  0.95045  1.0000
  N   N27       1.0  0.16321  0.7548799999999999  0.04417  1.0000
  N   N28       1.0  0.8767400000000001  0.75062  0.1819  1.0000
  N   N29       1.0  0.22855  0.20125000000000004  0.31463  1.0000
  N   N30       1.0  0.06073  0.05010999999999995  0.45322000000000007  1.0000
  N   N31       1.0  0.04264999999999997  0.5576100000000002  0.45654  1.0000
  N   N32       1.0  0.26116000000000017  0.6856899999999999  0.31767  1.0000
  O   O1        1.0  0.36934999999999996  0.1719199999999999  0.7945400000000001  1.0000
  O   O2        1.0  0.22929000000000002  0.11067999999999997  0.80657  1.0000
  O   O3        1.0  0.5625199999999999  0.84211  0.02315  1.0000
  O   O4        1.0  0.6957900000000001  0.9161499999999999  0.02021  1.0000
  O   O5        1.0  0.14522  0.84187  0.8174100000000001  1.0000
  O   O6        1.0  0.018300000000000077  0.7987  0.79452  1.0000
  O   O7        1.0  0.14049000000000003  0.9038  0.6832400000000001  1.0000
  O   O8        1.0  0.3216599999999999  0.83943  0.70547  1.0000
  O   O9        1.0  0.6257199999999999  0.09731999999999996  0.4763100000000001  1.0000
  O   O10       1.0  0.41909  0.16982999999999998  0.47513  1.0000
  O   O11       1.0  0.58117  0.21748000000000003  0.70277  1.0000
  O   O12       1.0  0.7766699999999999  0.16654999999999998  0.69241  1.0000
  O   O13       1.0  0.33358  0.32793  0.70594  1.0000
  O   O14       1.0  0.1441  0.3893299999999999  0.6939600000000001  1.0000
  O   O15       1.0  0.4297000000000002  0.6559199999999997  0.47636  1.0000
  O   O16       1.0  0.63348  0.58075  0.48138  1.0000
  O   O17       1.0  0.8004400000000002  0.6611  0.68163  1.0000
  O   O18       1.0  0.6065200000000001  0.70245  0.70511  1.0000
  O   O19       1.0  0.72691  0.5945  0.8173  1.0000
  O   O20       1.0  0.8666400000000001  0.65867  0.79445  1.0000
  O   O21       1.0  0.20076999999999998  0.40307  0.02325  1.0000
  O   O22       1.0  0.06580000000000001  0.32977  0.02612  1.0000
  O   O23       1.0  0.5023299999999999  0.2830399999999999  0.7968800000000001  1.0000
  O   O24       1.0  0.6362800000000001  0.33403999999999995  0.80712  1.0000
  O   O25       1.0  0.63066  0.82808  0.20546  1.0000
  O   O26       1.0  0.77072  0.8893299999999997  0.19343  1.0000
  O   O27       1.0  0.43748  0.15788999999999995  0.97685  1.0000
  O   O28       1.0  0.30422  0.08385000000000004  0.97979  1.0000
  O   O29       1.0  0.85478  0.15813  0.18259000000000003  1.0000
  O   O30       1.0  0.9817  0.2013  0.20548  1.0000
  O   O31       1.0  0.85951  0.09619999999999998  0.31677  1.0000
  O   O32       1.0  0.6783400000000002  0.16056999999999994  0.29453  1.0000
  O   O33       1.0  0.37429  0.9026899999999999  0.52369  1.0000
  O   O34       1.0  0.58091  0.83017  0.52487  1.0000
  O   O35       1.0  0.4188300000000001  0.7825199999999999  0.29723000000000005  1.0000
  O   O36       1.0  0.22333999999999996  0.83345  0.30759  1.0000
  O   O37       1.0  0.66643  0.67208  0.29406  1.0000
  O   O38       1.0  0.85591  0.61067  0.30604  1.0000
  O   O39       1.0  0.5703099999999998  0.34409  0.52364  1.0000
  O   O40       1.0  0.36653000000000013  0.41925  0.51862  1.0000
  O   O41       1.0  0.19956  0.33891  0.31837  1.0000
  O   O42       1.0  0.3934799999999999  0.29755  0.29489  1.0000
  O   O43       1.0  0.27309000000000005  0.40549999999999997  0.1827  1.0000
  O   O44       1.0  0.13337000000000007  0.3413299999999999  0.20556  1.0000
  O   O45       1.0  0.7992299999999998  0.59693  0.9767500000000002  1.0000
  O   O46       1.0  0.93421  0.6702300000000001  0.97388  1.0000
  O   O47       1.0  0.49767999999999996  0.71696  0.20312000000000002  1.0000
  O   O48       1.0  0.3637300000000002  0.6659599999999998  0.19288  1.0000
