data_image0
_chemical_formula_structural       Zn10H160C194N36O24
_chemical_formula_sum              "Zn10 H160 C194 N36 O24"
_cell_length_a       24.57296
_cell_length_b       26.12084
_cell_length_c       26.121019999999998
_cell_angle_alpha    95.65985
_cell_angle_beta     115.68996
_cell_angle_gamma    115.68966

_space_group_name_H-M_alt    "P 1"
_space_group_IT_number       1

loop_
  _space_group_symop_operation_xyz
  'x, y, z'

loop_
  _atom_site_type_symbol
  _atom_site_label
  _atom_site_symmetry_multiplicity
  _atom_site_fract_x
  _atom_site_fract_y
  _atom_site_fract_z
  _atom_site_occupancy
  Zn  Zn1       1.0  0.66894  0.56389  0.95544  1.0000
  Zn  Zn2       1.0  0.5643199999999998  0.40237999999999996  0.9027899999999999  1.0000
  Zn  Zn3       1.0  0.7825499999999996  0.62023  0.11671999999999999  1.0000
  Zn  Zn4       1.0  0.76955  0.61092  0.88542  1.0000
  Zn  Zn5       1.0  0.5536199999999999  0.62357  0.9144399999999999  1.0000
  Zn  Zn6       1.0  0.33106  0.044559999999999995  0.43611  1.0000
  Zn  Zn7       1.0  0.43568  0.09722000000000003  0.59762  1.0000
  Zn  Zn8       1.0  0.21744  0.88328  0.37976999999999994  1.0000
  Zn  Zn9       1.0  0.23045999999999983  0.11458999999999993  0.3890899999999999  1.0000
  Zn  Zn10      1.0  0.4463899999999999  0.08554999999999997  0.37643999999999994  1.0000
  H   H1        1.0  0.24077000000000004  0.8327599999999998  0.76935  1.0000
  H   H2        1.0  0.27829  0.85932  0.72491  1.0000
  H   H3        1.0  0.13057  0.76895  0.60055  1.0000
  H   H4        1.0  0.19292000000000015  0.84591  0.61578  1.0000
  H   H5        1.0  0.21510000000000004  0.91403  0.7602  1.0000
  H   H6        1.0  0.14726999999999982  0.9063899999999998  0.6894199999999999  1.0000
  H   H7        1.0  0.5574699999999998  0.7699499999999997  0.09856999999999998  1.0000
  H   H8        1.0  0.5814400000000001  0.7595400000000001  0.16973  1.0000
  H   H9        1.0  0.64155  0.82482  0.16501999999999997  1.0000
  H   H10       1.0  0.36469999999999997  0.6268  0.78286  1.0000
  H   H11       1.0  0.34015  0.8294  0.80247  1.0000
  H   H12       1.0  0.37371  0.51996  0.82347  1.0000
  H   H13       1.0  0.38284999999999986  0.33060999999999996  0.8187699999999999  1.0000
  H   H14       1.0  0.7426599999999999  0.82446  0.25129  1.0000
  H   H15       1.0  0.67491  0.7608400000000001  0.25070999999999993  1.0000
  H   H16       1.0  0.7579899999999998  0.76766  0.2739599999999999  1.0000
  H   H17       1.0  0.2554799999999999  0.61593  0.6975999999999999  1.0000
  H   H18       1.0  0.44950999999999997  0.84081  0.8848599999999999  1.0000
  H   H19       1.0  0.5230599999999997  0.79664  0.9307599999999999  1.0000
  H   H20       1.0  0.18196  0.65993  0.65218  1.0000
  H   H21       1.0  0.24217999999999992  0.006269999999999911  0.7808799999999998  1.0000
  H   H22       1.0  0.0901799999999999  0.7967099999999999  0.40878  1.0000
  H   H23       1.0  0.4565799999999997  0.21224999999999988  0.7888099999999998  1.0000
  H   H24       1.0  0.6516  0.2992  0.14515  1.0000
  H   H25       1.0  0.5791199999999997  0.30585  0.13253  1.0000
  H   H26       1.0  0.5769899999999998  0.26964  0.06981  1.0000
  H   H27       1.0  0.98424  0.72399  0.67844  1.0000
  H   H28       1.0  0.95236  0.75464  0.51061  1.0000
  H   H29       1.0  0.15298999999999996  0.84188  0.52095  1.0000
  H   H30       1.0  0.33227999999999985  0.00203999999999996  0.6721699999999999  1.0000
  H   H31       1.0  0.08618000000000005  0.74498  0.67213  1.0000
  H   H32       1.0  0.05959000000000007  0.7990400000000001  0.66304  1.0000
  H   H33       1.0  0.28639  0.10598999999999997  0.8520799999999998  1.0000
  H   H34       1.0  0.4119699999999999  0.11469999999999991  0.7167699999999999  1.0000
  H   H35       1.0  0.37096999999999997  0.21821000000000002  0.89994  1.0000
  H   H36       1.0  0.77264  0.46059  0.25595  1.0000
  H   H37       1.0  0.6880199999999997  0.39526  0.22979999999999998  1.0000
  H   H38       1.0  0.75282  0.38679  0.22435  1.0000
  H   H39       1.0  0.22148  0.2981099999999999  0.70215  1.0000
  H   H40       1.0  0.25950000000000006  0.26967  0.75742  1.0000
  H   H41       1.0  0.20937999999999996  0.29972  0.7640199999999999  1.0000
  H   H42       1.0  0.1607899999999998  0.8362099999999999  0.8617899999999998  1.0000
  H   H43       1.0  0.21069999999999997  0.3974  0.7767099999999999  1.0000
  H   H44       1.0  0.24848999999999988  0.4602099999999999  0.7555699999999997  1.0000
  H   H45       1.0  0.20882999999999993  0.38485  0.70808  1.0000
  H   H46       1.0  0.08129999999999993  0.79201  0.9010199999999999  1.0000
  H   H47       1.0  0.6542  0.37014  0.65374  1.0000
  H   H48       1.0  0.73804  0.43948  0.70155  1.0000
  H   H49       1.0  0.7265  0.36968000000000006  0.7109099999999999  1.0000
  H   H50       1.0  0.5659799999999999  0.25517  0.71922  1.0000
  H   H51       1.0  0.56718  0.28432  0.66098  1.0000
  H   H52       1.0  0.6423499999999998  0.28423999999999994  0.7135599999999999  1.0000
  H   H53       1.0  0.6506999999999998  0.73998  0.6872599999999999  1.0000
  H   H54       1.0  0.71313  0.8103200000000002  0.7478  1.0000
  H   H55       1.0  0.73962  0.7591  0.73585  1.0000
  H   H56       1.0  0.56176  0.75354  0.70754  1.0000
  H   H57       1.0  0.56151  0.77898  0.77307  1.0000
  H   H58       1.0  0.63693  0.8212800000000001  0.76758  1.0000
  H   H59       1.0  0.12124999999999991  0.7656899999999999  0.09551  1.0000
  H   H60       1.0  0.07356999999999991  0.77977  0.03046  1.0000
  H   H61       1.0  0.11548999999999994  0.83049  0.10482  1.0000
  H   H62       1.0  0.13111999999999988  0.7764199999999999  0.19459999999999997  1.0000
  H   H63       1.0  0.11779000000000014  0.83741  0.19389  1.0000
  H   H64       1.0  0.08928999999999994  0.78832  0.23153999999999997  1.0000
  H   H65       1.0  0.5714799999999999  0.32163  0.79433  1.0000
  H   H66       1.0  0.7436  0.5035  0.7763399999999999  1.0000
  H   H67       1.0  0.56711  0.71709  0.83174  1.0000
  H   H68       1.0  0.7411499999999998  0.6947699999999998  0.7932399999999998  1.0000
  H   H69       1.0  0.9635799999999998  0.7185699999999999  0.17792  1.0000
  H   H70       1.0  0.9490499999999998  0.7069299999999998  0.9780399999999999  1.0000
  H   H71       1.0  0.5653599999999999  0.7128299999999999  0.02995  1.0000
  H   H72       1.0  0.7611599999999997  0.70824  0.20312999999999995  1.0000
  H   H73       1.0  0.7778999999999999  0.63918  0.29723  1.0000
  H   H74       1.0  0.8388300000000001  0.6883900000000001  0.40912  1.0000
  H   H75       1.0  0.97882  0.73019  0.30935  1.0000
  H   H76       1.0  0.9616199999999998  0.72078  0.88167  1.0000
  H   H77       1.0  0.86356  0.65413  0.65928  1.0000
  H   H78       1.0  0.78466  0.61041  0.69931  1.0000
  H   H79       1.0  0.7734700000000001  0.51862  0.19257  1.0000
  H   H80       1.0  0.57298  0.33086  0.008129999999999998  1.0000
  H   H81       1.0  0.7592199999999999  0.23064  0.16723  1.0000
  H   H82       1.0  0.7217099999999999  0.27509  0.14068  1.0000
  H   H83       1.0  0.8694199999999999  0.39945  0.23103999999999994  1.0000
  H   H84       1.0  0.8070699999999998  0.38421999999999995  0.15408999999999998  1.0000
  H   H85       1.0  0.7849  0.23979  0.08597  1.0000
  H   H86       1.0  0.8527299999999998  0.31058  0.09360999999999998  1.0000
  H   H87       1.0  0.4425199999999999  0.9014299999999998  0.23004999999999995  1.0000
  H   H88       1.0  0.41856  0.83026  0.24045999999999998  1.0000
  H   H89       1.0  0.3584399999999998  0.83498  0.17517999999999997  1.0000
  H   H90       1.0  0.6353  0.21715  0.3732  1.0000
  H   H91       1.0  0.65985  0.19753  0.17059  1.0000
  H   H92       1.0  0.62629  0.1765299999999999  0.4800299999999999  1.0000
  H   H93       1.0  0.6171499999999999  0.18123  0.66939  1.0000
  H   H94       1.0  0.2573299999999999  0.74871  0.17554  1.0000
  H   H95       1.0  0.32508999999999993  0.74928  0.23916  1.0000
  H   H96       1.0  0.24200999999999998  0.72604  0.23233999999999996  1.0000
  H   H97       1.0  0.7445199999999998  0.3024  0.38407  1.0000
  H   H98       1.0  0.55048  0.11513  0.15918  1.0000
  H   H99       1.0  0.4769299999999999  0.06924  0.20336  1.0000
  H   H100      1.0  0.8180399999999998  0.34781  0.34007  1.0000
  H   H101      1.0  0.75782  0.21912  0.99374  1.0000
  H   H102      1.0  0.9098199999999997  0.5912199999999999  0.20328999999999997  1.0000
  H   H103      1.0  0.5434299999999997  0.21118999999999988  0.7877499999999997  1.0000
  H   H104      1.0  0.3484000000000001  0.8548400000000002  0.70079  1.0000
  H   H105      1.0  0.42088  0.8674600000000001  0.69415  1.0000
  H   H106      1.0  0.4229999999999998  0.93018  0.7303599999999999  1.0000
  H   H107      1.0  0.01576  0.32156  0.27601  1.0000
  H   H108      1.0  0.047639999999999995  0.4893800000000001  0.24535  1.0000
  H   H109      1.0  0.84701  0.47905  0.15811  1.0000
  H   H110      1.0  0.66772  0.3278300000000001  0.99796  1.0000
  H   H111      1.0  0.91382  0.32787  0.25501  1.0000
  H   H112      1.0  0.9403999999999998  0.33695  0.20095999999999997  1.0000
  H   H113      1.0  0.71362  0.14791999999999994  0.8940099999999999  1.0000
  H   H114      1.0  0.5880299999999999  0.28323  0.8853  1.0000
  H   H115      1.0  0.62904  0.10005999999999997  0.78179  1.0000
  H   H116      1.0  0.22735999999999995  0.74405  0.5394  1.0000
  H   H117      1.0  0.31197  0.7702  0.60474  1.0000
  H   H118      1.0  0.24717  0.77565  0.61321  1.0000
  H   H119      1.0  0.7785299999999998  0.29785999999999996  0.70189  1.0000
  H   H120      1.0  0.74051  0.24257999999999996  0.73033  1.0000
  H   H121      1.0  0.7906199999999998  0.23597999999999994  0.7002799999999999  1.0000
  H   H122      1.0  0.8392200000000001  0.1382  0.16378999999999996  1.0000
  H   H123      1.0  0.7893  0.22328999999999996  0.6026  1.0000
  H   H124      1.0  0.75151  0.24443  0.53978  1.0000
  H   H125      1.0  0.7911699999999998  0.29192  0.61515  1.0000
  H   H126      1.0  0.9187  0.09898  0.20799  1.0000
  H   H127      1.0  0.3458099999999999  0.34626  0.62987  1.0000
  H   H128      1.0  0.2619699999999999  0.29846  0.56053  1.0000
  H   H129      1.0  0.27351  0.2891  0.63033  1.0000
  H   H130      1.0  0.4340299999999998  0.2807799999999999  0.7448299999999999  1.0000
  H   H131      1.0  0.4328300000000001  0.3390300000000001  0.71569  1.0000
  H   H132      1.0  0.3576599999999999  0.28644  0.71577  1.0000
  H   H133      1.0  0.3493  0.31273999999999996  0.26002  1.0000
  H   H134      1.0  0.28687  0.2522  0.18968  1.0000
  H   H135      1.0  0.26037999999999994  0.26415  0.24091  1.0000
  H   H136      1.0  0.43824  0.29246  0.24645999999999996  1.0000
  H   H137      1.0  0.43848  0.22693  0.22102  1.0000
  H   H138      1.0  0.36306  0.23242000000000002  0.17872  1.0000
  H   H139      1.0  0.87875  0.90449  0.23430999999999996  1.0000
  H   H140      1.0  0.92642  0.96954  0.22023  1.0000
  H   H141      1.0  0.8845099999999999  0.89518  0.16951  1.0000
  H   H142      1.0  0.8688699999999998  0.80539  0.22357  1.0000
  H   H143      1.0  0.88221  0.80611  0.16258999999999998  1.0000
  H   H144      1.0  0.9107  0.76846  0.21168  1.0000
  H   H145      1.0  0.42851999999999996  0.20566999999999994  0.6783699999999999  1.0000
  H   H146      1.0  0.25639999999999996  0.22365999999999997  0.4964999999999999  1.0000
  H   H147      1.0  0.43288999999999994  0.16826  0.28291  1.0000
  H   H148      1.0  0.25885  0.20677  0.30523  1.0000
  H   H149      1.0  0.036409999999999984  0.82207  0.28142999999999996  1.0000
  H   H150      1.0  0.05094999999999997  0.021959999999999976  0.29306999999999994  1.0000
  H   H151      1.0  0.43463999999999997  0.97005  0.28717  1.0000
  H   H152      1.0  0.23883  0.79687  0.29175  1.0000
  H   H153      1.0  0.22209  0.70277  0.36082  1.0000
  H   H154      1.0  0.16116999999999998  0.59088  0.31161  1.0000
  H   H155      1.0  0.02117999999999998  0.69065  0.26981  1.0000
  H   H156      1.0  0.03839  0.11833  0.27922  1.0000
  H   H157      1.0  0.13643999999999998  0.34071999999999997  0.34586999999999996  1.0000
  H   H158      1.0  0.21534  0.30069  0.38959  1.0000
  H   H159      1.0  0.2265299999999999  0.80743  0.4813799999999999  1.0000
  H   H160      1.0  0.42701999999999984  0.99187  0.6691399999999998  1.0000
  C   C1        1.0  0.16794999999999993  0.8334999999999999  0.68514  1.0000
  C   C2        1.0  0.37346999999999997  0.1251599999999999  0.7754099999999999  1.0000
  C   C3        1.0  0.23025999999999988  0.8258199999999999  0.7230499999999999  1.0000
  C   C4        1.0  0.14693000000000003  0.81632  0.61863  1.0000
  C   C5        1.0  0.19257999999999992  0.90031  0.71102  1.0000
  C   C6        1.0  0.44726999999999983  0.70865  0.85952  1.0000
  C   C7        1.0  0.44298999999999994  0.42915999999999993  0.85068  1.0000
  C   C8        1.0  0.60176  0.77588  0.14076  1.0000
  C   C9        1.0  0.3825099999999999  0.67343  0.8046299999999998  1.0000
  C   C10       1.0  0.3213299999999999  0.7828899999999999  0.77951  1.0000
  C   C11       1.0  0.37484  0.47869999999999996  0.8216  1.0000
  C   C12       1.0  0.38048  0.37117999999999995  0.81856  1.0000
  C   C13       1.0  0.44035999999999975  0.48222  0.8523699999999997  1.0000
  C   C14       1.0  0.7179599999999999  0.77524  0.24158  1.0000
  C   C15       1.0  0.2736700000000001  0.66238  0.72049  1.0000
  C   C16       1.0  0.36428  0.75888  0.80655  1.0000
  C   C17       1.0  0.4309999999999997  0.7940699999999999  0.8625999999999999  1.0000
  C   C18       1.0  0.4716399999999999  0.76982  0.8882399999999999  1.0000
  C   C19       1.0  0.25655999999999995  0.74701  0.72509  1.0000
  C   C20       1.0  0.23289999999999994  0.6864200000000001  0.69505  1.0000
  C   C21       1.0  0.28377000000000013  0.998  0.7248899999999999  1.0000
  C   C22       1.0  0.3244699999999999  0.09404999999999998  0.7935799999999998  1.0000
  C   C23       1.0  0.27925  0.02970999999999998  0.76706  1.0000
  C   C24       1.0  0.05519999999999995  0.7996100000000002  0.52181  1.0000
  C   C25       1.0  0.06036999999999999  0.78734  0.43129  1.0000
  C   C26       1.0  0.41966999999999977  0.1889099999999999  0.8027699999999998  1.0000
  C   C27       1.0  0.41924999999999996  0.22207  0.8473  1.0000
  C   C28       1.0  0.6116399999999999  0.30732  0.11341  1.0000
  C   C29       1.0  0.005510000000000077  0.7390799999999998  0.72686  1.0000
  C   C30       1.0  0.9816  0.7635  0.48772  1.0000
  C   C31       1.0  0.07684  0.78257  0.76788  1.0000
  C   C32       1.0  0.09520000000000002  0.81237  0.49354999999999993  1.0000
  C   C33       1.0  0.34009000000000006  0.6973800000000001  0.77694  1.0000
  C   C34       1.0  0.8355  0.65193  0.23014  1.0000
  C   C35       1.0  0.3313799999999999  0.02886999999999997  0.7060499999999998  1.0000
  C   C36       1.0  0.10380999999999994  0.7929299999999999  0.68963  1.0000
  C   C37       1.0  0.8201599999999999  0.63615  0.81525  1.0000
  C   C38       1.0  0.31284999999999974  0.42139999999999983  0.7889699999999997  1.0000
  C   C39       1.0  0.32396999999999987  0.12910999999999992  0.8385399999999998  1.0000
  C   C40       1.0  0.3750099999999999  0.09095999999999999  0.73077  1.0000
  C   C41       1.0  0.37038  0.19126000000000004  0.86497  1.0000
  C   C42       1.0  0.7306699999999999  0.41590000000000005  0.22036999999999995  1.0000
  C   C43       1.0  0.24810999999999986  0.3055699999999999  0.7510199999999998  1.0000
  C   C44       1.0  0.3157599999999999  0.36737  0.7873399999999998  1.0000
  C   C45       1.0  0.10444999999999978  0.8020399999999998  0.8312399999999998  1.0000
  C   C46       1.0  0.24156999999999992  0.41579  0.7555  1.0000
  C   C47       1.0  0.0603399999999998  0.77738  0.8525399999999997  1.0000
  C   C48       1.0  0.7007  0.3959599999999999  0.7004699999999999  1.0000
  C   C49       1.0  0.59959  0.2910499999999999  0.7090899999999999  1.0000
  C   C50       1.0  0.6959999999999996  0.7621599999999998  0.7346699999999999  1.0000
  C   C51       1.0  0.5948199999999998  0.7751599999999998  0.75732  1.0000
  C   C52       1.0  0.08532000000000012  0.7823900000000001  0.07653  1.0000
  C   C53       1.0  0.09346999999999991  0.78991  0.19154999999999994  1.0000
  C   C54       1.0  0.6867999999999999  0.47072999999999987  0.8220099999999998  1.0000
  C   C55       1.0  0.6381299999999998  0.41985  0.82683  1.0000
  C   C56       1.0  0.6090399999999998  0.36045999999999995  0.79044  1.0000
  C   C57       1.0  0.6295799999999998  0.35341  0.74965  1.0000
  C   C58       1.0  0.67931  0.40541999999999995  0.74497  1.0000
  C   C59       1.0  0.7077500000000001  0.46396  0.7808099999999999  1.0000
  C   C60       1.0  0.63272  0.67812  0.8487  1.0000
  C   C61       1.0  0.6041699999999997  0.71201  0.8229399999999999  1.0000
  C   C62       1.0  0.6253099999999998  0.73924  0.7864199999999999  1.0000
  C   C63       1.0  0.67529  0.73311  0.77559  1.0000
  C   C64       1.0  0.70417  0.7003000000000001  0.80187  1.0000
  C   C65       1.0  0.6824599999999995  0.6728299999999999  0.8387499999999998  1.0000
  C   C66       1.0  0.8956299999999998  0.68004  0.07963  1.0000
  C   C67       1.0  0.9612199999999997  0.71652  0.1352  1.0000
  C   C68       1.0  0.022029999999999963  0.74964  0.13344  1.0000
  C   C69       1.0  0.017899999999999975  0.74619  0.07634  1.0000
  C   C70       1.0  0.95315  0.71001  0.02154  1.0000
  C   C71       1.0  0.89177  0.67694  0.02371  1.0000
  C   C72       1.0  0.4688599999999999  0.28912  0.8767  1.0000
  C   C73       1.0  0.69257  0.67915  0.10528  1.0000
  C   C74       1.0  0.63687  0.67964  0.05671  1.0000
  C   C75       1.0  0.60706  0.7115899999999998  0.06762  1.0000
  C   C76       1.0  0.63349  0.74213  0.12751  1.0000
  C   C77       1.0  0.6901799999999998  0.7415200000000001  0.177  1.0000
  C   C78       1.0  0.7196199999999998  0.7100999999999998  0.16600999999999996  1.0000
  C   C79       1.0  0.87497  0.68166  0.29687  1.0000
  C   C80       1.0  0.8354  0.6700599999999999  0.32563999999999993  1.0000
  C   C81       1.0  0.8693199999999999  0.69726  0.38733  1.0000
  C   C82       1.0  0.9447599999999997  0.7369199999999999  0.42382999999999993  1.0000
  C   C83       1.0  0.98489  0.74862  0.3949  1.0000
  C   C84       1.0  0.9483899999999998  0.72077  0.33119999999999994  1.0000
  C   C85       1.0  0.86893  0.66288  0.79301  1.0000
  C   C86       1.0  0.9406699999999998  0.70639  0.83318  1.0000
  C   C87       1.0  0.9867299999999999  0.73244  0.81205  1.0000
  C   C88       1.0  0.9589699999999998  0.7132499999999998  0.7480699999999999  1.0000
  C   C89       1.0  0.88517  0.6686299999999998  0.7078899999999999  1.0000
  C   C90       1.0  0.84127  0.64426  0.72967  1.0000
  C   C91       1.0  0.49271  0.6839400000000001  0.8882799999999998  1.0000
  C   C92       1.0  0.70403  0.48075  0.09425  1.0000
  C   C93       1.0  0.7318399999999999  0.47766000000000003  0.1528  1.0000
  C   C94       1.0  0.7028  0.42109  0.15837  1.0000
  C   C95       1.0  0.6452099999999997  0.36744  0.10568  1.0000
  C   C96       1.0  0.6180899999999999  0.37072  0.04791  1.0000
  C   C97       1.0  0.6483899999999999  0.42791  0.04247  1.0000
  C   C98       1.0  0.8320399999999999  0.31486  0.1665  1.0000
  C   C99       1.0  0.6265299999999999  0.22458999999999998  0.87484  1.0000
  C   C100      1.0  0.7697299999999999  0.27694  0.17417  1.0000
  C   C101      1.0  0.8530699999999999  0.38137  0.18368  1.0000
  C   C102      1.0  0.8074200000000001  0.28898  0.09969  1.0000
  C   C103      1.0  0.55272  0.14047999999999997  0.29134999999999994  1.0000
  C   C104      1.0  0.5570199999999998  0.14932  0.57084  1.0000
  C   C105      1.0  0.3982299999999999  0.85924  0.22412  1.0000
  C   C106      1.0  0.61748  0.19536999999999996  0.32657  1.0000
  C   C107      1.0  0.6786699999999998  0.22048  0.21709999999999993  1.0000
  C   C108      1.0  0.6251699999999999  0.1784  0.5213  1.0000
  C   C109      1.0  0.61953  0.18145  0.62883  1.0000
  C   C110      1.0  0.55965  0.14763  0.51778  1.0000
  C   C111      1.0  0.28204  0.75842  0.22476  1.0000
  C   C112      1.0  0.72633  0.2795  0.33761  1.0000
  C   C113      1.0  0.63571  0.19344999999999996  0.24110999999999994  1.0000
  C   C114      1.0  0.5689899999999999  0.1374  0.20592  1.0000
  C   C115      1.0  0.5283499999999998  0.11176  0.23016999999999999  1.0000
  C   C116      1.0  0.7434400000000003  0.27491  0.25299  1.0000
  C   C117      1.0  0.7671  0.30494  0.31358  1.0000
  C   C118      1.0  0.71623  0.27511  0.00199  1.0000
  C   C119      1.0  0.6755399999999999  0.20641999999999983  0.9059499999999998  1.0000
  C   C120      1.0  0.7207499999999998  0.23292999999999997  0.97029  1.0000
  C   C121      1.0  0.9447999999999998  0.47819  0.20037999999999997  1.0000
  C   C122      1.0  0.93963  0.56871  0.21265999999999993  1.0000
  C   C123      1.0  0.58034  0.19723999999999994  0.8110899999999999  1.0000
  C   C124      1.0  0.5807599999999997  0.1526999999999999  0.7779299999999998  1.0000
  C   C125      1.0  0.3883599999999998  0.88658  0.6926799999999999  1.0000
  C   C126      1.0  0.99448  0.27313  0.26092  1.0000
  C   C127      1.0  0.018399999999999982  0.51228  0.2365  1.0000
  C   C128      1.0  0.92316  0.23211999999999997  0.21742999999999996  1.0000
  C   C129      1.0  0.90479  0.50645  0.18762999999999996  1.0000
  C   C130      1.0  0.6599  0.22305999999999998  0.30262  1.0000
  C   C131      1.0  0.1644899999999998  0.7698499999999999  0.34806999999999994  1.0000
  C   C132      1.0  0.66863  0.29395  0.97114  1.0000
  C   C133      1.0  0.8961799999999999  0.31036  0.20706  1.0000
  C   C134      1.0  0.17983999999999997  0.18474999999999994  0.36384999999999995  1.0000
  C   C135      1.0  0.6871599999999998  0.21103  0.5786  1.0000
  C   C136      1.0  0.67604  0.16146  0.87089  1.0000
  C   C137      1.0  0.6249999999999999  0.26923  0.90904  1.0000
  C   C138      1.0  0.6296199999999998  0.13503000000000004  0.80874  1.0000
  C   C139      1.0  0.26933  0.77963  0.5841  1.0000
  C   C140      1.0  0.7518999999999999  0.24898999999999996  0.69443  1.0000
  C   C141      1.0  0.6842399999999997  0.21266  0.63263  1.0000
  C   C142      1.0  0.89555  0.16876  0.19796  1.0000
  C   C143      1.0  0.7584299999999998  0.24449999999999997  0.58421  1.0000
  C   C144      1.0  0.9396699999999998  0.14745999999999998  0.22261999999999998  1.0000
  C   C145      1.0  0.2993099999999999  0.29952999999999996  0.60404  1.0000
  C   C146      1.0  0.40040999999999977  0.29092  0.70895  1.0000
  C   C147      1.0  0.304  0.2653400000000001  0.23784  1.0000
  C   C148      1.0  0.4051699999999999  0.24268  0.22484  1.0000
  C   C149      1.0  0.9146699999999998  0.92347  0.21760999999999997  1.0000
  C   C150      1.0  0.9065299999999997  0.80845  0.21008999999999997  1.0000
  C   C151      1.0  0.3132  0.17799  0.52927  1.0000
  C   C152      1.0  0.3618699999999999  0.17317  0.58015  1.0000
  C   C153      1.0  0.3909599999999999  0.20955999999999994  0.6395399999999999  1.0000
  C   C154      1.0  0.37043  0.25035  0.64659  1.0000
  C   C155      1.0  0.3206999999999999  0.25503  0.59458  1.0000
  C   C156      1.0  0.29224999999999995  0.21918999999999997  0.53605  1.0000
  C   C157      1.0  0.3672799999999999  0.1513  0.32188  1.0000
  C   C158      1.0  0.39582999999999985  0.17705999999999997  0.28798999999999997  1.0000
  C   C159      1.0  0.37469  0.21358  0.26076999999999995  1.0000
  C   C160      1.0  0.32470999999999994  0.22440999999999997  0.26689999999999997  1.0000
  C   C161      1.0  0.29582999999999987  0.19814  0.2997099999999999  1.0000
  C   C162      1.0  0.31755  0.16125  0.32717  1.0000
  C   C163      1.0  0.10436000000000001  0.92036  0.31996  1.0000
  C   C164      1.0  0.03878000000000004  0.8648  0.28348  1.0000
  C   C165      1.0  0.9779599999999999  0.86656  0.25036  1.0000
  C   C166      1.0  0.9820899999999999  0.9236600000000003  0.25381  1.0000
  C   C167      1.0  0.04683999999999992  0.9784599999999999  0.29  1.0000
  C   C168      1.0  0.10821999999999996  0.97629  0.32305999999999996  1.0000
  C   C169      1.0  0.53114  0.1233  0.7108799999999998  1.0000
  C   C170      1.0  0.30742  0.89471  0.32085  1.0000
  C   C171      1.0  0.36312999999999995  0.9432899999999999  0.32036  1.0000
  C   C172      1.0  0.39293  0.93238  0.28841  1.0000
  C   C173      1.0  0.36651  0.87249  0.25786999999999993  1.0000
  C   C174      1.0  0.30980999999999986  0.82299  0.25847999999999993  1.0000
  C   C175      1.0  0.28038  0.83399  0.2899  1.0000
  C   C176      1.0  0.12503000000000003  0.70313  0.31834  1.0000
  C   C177      1.0  0.16459999999999986  0.6743599999999997  0.32994  1.0000
  C   C178      1.0  0.13066999999999998  0.61266  0.30273999999999995  1.0000
  C   C179      1.0  0.05522999999999997  0.5761699999999998  0.26308  1.0000
  C   C180      1.0  0.015109999999999997  0.6051  0.25137  1.0000
  C   C181      1.0  0.051599999999999986  0.6688  0.27922  1.0000
  C   C182      1.0  0.13108  0.20699000000000004  0.33712  1.0000
  C   C183      1.0  0.05932999999999999  0.16682  0.29362  1.0000
  C   C184      1.0  0.013269999999999994  0.18795  0.26756  1.0000
  C   C185      1.0  0.041030000000000004  0.25193  0.28675  1.0000
  C   C186      1.0  0.11483  0.29211  0.33137  1.0000
  C   C187      1.0  0.15873  0.27033  0.35574  1.0000
  C   C188      1.0  0.5072899999999999  0.11172  0.31606  1.0000
  C   C189      1.0  0.29597  0.9057499999999999  0.51925  1.0000
  C   C190      1.0  0.26816  0.8472  0.52234  1.0000
  C   C191      1.0  0.2971999999999999  0.8416199999999999  0.5789099999999999  1.0000
  C   C192      1.0  0.3547899999999999  0.89432  0.6325599999999999  1.0000
  C   C193      1.0  0.38190999999999997  0.95209  0.6292799999999998  1.0000
  C   C194      1.0  0.3516099999999999  0.9575299999999999  0.5720899999999999  1.0000
  N   N1        1.0  0.66309  0.62224  0.89729  1.0000
  N   N2        1.0  0.6665399999999999  0.62448  0.019699999999999995  1.0000
  N   N3        1.0  0.7095499999999998  0.64459  0.08009  1.0000
  N   N4        1.0  0.82743  0.64361  0.06596  1.0000
  N   N5        1.0  0.7844599999999999  0.61984  0.005379999999999999  1.0000
  N   N6        1.0  0.6768099999999999  0.50647  0.01356  1.0000
  N   N7        1.0  0.6335599999999999  0.44604999999999995  0.9932599999999998  1.0000
  N   N8        1.0  0.62881  0.44186  0.8702  1.0000
  N   N9        1.0  0.6692199999999998  0.50255  0.8907299999999999  1.0000
  N   N10       1.0  0.5132899999999999  0.44764999999999994  0.88374  1.0000
  N   N11       1.0  0.5516999999999999  0.50841  0.90467  1.0000
  N   N12       1.0  0.62205  0.6447  0.00426  1.0000
  N   N13       1.0  0.7048599999999999  0.5211  0.8627599999999999  1.0000
  N   N14       1.0  0.7001099999999998  0.63802  0.87016  1.0000
  N   N15       1.0  0.6220899999999999  0.64577  0.8851199999999999  1.0000
  N   N16       1.0  0.5093499999999997  0.53054  0.88677  1.0000
  N   N17       1.0  0.8215399999999998  0.63884  0.97877  1.0000
  N   N18       1.0  0.71994  0.52849  0.07401  1.0000
  N   N19       1.0  0.33691  0.10271999999999998  0.37776999999999994  1.0000
  N   N20       1.0  0.33345  0.9802899999999999  0.37552  1.0000
  N   N21       1.0  0.29043999999999986  0.9199099999999998  0.35540999999999995  1.0000
  N   N22       1.0  0.17255999999999994  0.93404  0.35638999999999993  1.0000
  N   N23       1.0  0.21553  0.99462  0.38016  1.0000
  N   N24       1.0  0.3231899999999999  0.9864399999999999  0.4935299999999999  1.0000
  N   N25       1.0  0.36645  0.006740000000000002  0.55395  1.0000
  N   N26       1.0  0.3711999999999998  0.1298  0.55814  1.0000
  N   N27       1.0  0.3307799999999999  0.10927999999999997  0.4974499999999999  1.0000
  N   N28       1.0  0.4867199999999999  0.11625999999999997  0.55235  1.0000
  N   N29       1.0  0.4482999999999998  0.09533999999999997  0.4915899999999999  1.0000
  N   N30       1.0  0.37795999999999996  0.99574  0.35531  1.0000
  N   N31       1.0  0.29514  0.13724  0.4789  1.0000
  N   N32       1.0  0.29989  0.12984  0.3619899999999999  1.0000
  N   N33       1.0  0.3779099999999999  0.11487999999999998  0.35422999999999993  1.0000
  N   N34       1.0  0.4906499999999999  0.11322999999999997  0.46946  1.0000
  N   N35       1.0  0.17845999999999998  0.021230000000000006  0.36116  1.0000
  N   N36       1.0  0.2800599999999999  0.92599  0.47150999999999993  1.0000
  O   O1        1.0  0.08776999999999985  0.82341  0.58411  1.0000
  O   O2        1.0  0.24541999999999997  0.9359400000000001  0.6981199999999999  1.0000
  O   O3        1.0  0.21052999999999994  0.76518  0.6951699999999998  1.0000
  O   O4        1.0  0.4668499999999998  0.62645  0.8636799999999998  1.0000
  O   O5        1.0  0.7686999999999999  0.61553  0.20033  1.0000
  O   O6        1.0  0.8701999999999999  0.6650699999999999  0.20232999999999998  1.0000
  O   O7        1.0  0.8495599999999999  0.65203  0.8742  1.0000
  O   O8        1.0  0.75423  0.60065  0.7789499999999999  1.0000
  O   O9        1.0  0.12664999999999987  0.81067  0.75282  1.0000
  O   O10       1.0  0.5549899999999999  0.71811  0.93418  1.0000
  O   O11       1.0  0.46933  0.31921  0.91743  1.0000
  O   O12       1.0  0.5117599999999999  0.31517  0.85737  1.0000
  O   O13       1.0  0.9122299999999998  0.41587999999999997  0.17659  1.0000
  O   O14       1.0  0.7545799999999999  0.30187  0.06405  1.0000
  O   O15       1.0  0.78947  0.30482  0.23481  1.0000
  O   O16       1.0  0.5331599999999999  0.13631  0.37356  1.0000
  O   O17       1.0  0.23129000000000002  0.79966  0.38446999999999987  1.0000
  O   O18       1.0  0.12979  0.79766  0.33493  1.0000
  O   O19       1.0  0.15043999999999993  0.1258  0.34797  1.0000
  O   O20       1.0  0.24577  0.22105  0.39935  1.0000
  O   O21       1.0  0.8733499999999997  0.24718  0.18933  1.0000
  O   O22       1.0  0.4449999999999999  0.06581999999999996  0.2818899999999999  1.0000
  O   O23       1.0  0.5306699999999996  0.08256999999999996  0.6807899999999999  1.0000
  O   O24       1.0  0.48824999999999996  0.14264  0.68483  1.0000
