data_image0
_chemical_formula_structural       Zn24H168C240N120O48
_chemical_formula_sum              "Zn24 H168 C240 N120 O48"
_cell_length_a       18.94215
_cell_length_b       26.876279999999998
_cell_length_c       26.87639
_cell_angle_alpha    119.97693
_cell_angle_beta     90.0
_cell_angle_gamma    89.99955

_symmetry_space_group_name_H-M    'P 1'
_symmetry_Int_Tables_number       1

loop_
  _symmetry_equiv_pos_as_xyz
  'x,y,z'

loop_
  _atom_site_type_symbol
  _atom_site_label
  _atom_site_symmetry_multiplicity
  _atom_site_fract_x
  _atom_site_fract_y
  _atom_site_fract_z
  _atom_site_occupancy
  Zn  Zn1       1.0  0.41254  0.33253  0.43979  1.0000
  Zn  Zn2       1.0  0.41253000000000006  0.10743000000000001  0.66756  1.0000
  Zn  Zn3       1.0  0.41256  0.56019  0.89269  1.0000
  Zn  Zn4       1.0  0.9123799999999999  0.66748  0.56018  1.0000
  Zn  Zn5       1.0  0.9123700000000001  0.8925  0.33236  1.0000
  Zn  Zn6       1.0  0.91236  0.43985  0.10739  1.0000
  Zn  Zn7       1.0  0.58746  0.66756  0.10743  1.0000
  Zn  Zn8       1.0  0.58743  0.89269  0.56019  1.0000
  Zn  Zn9       1.0  0.58745  0.43980000000000014  0.33252000000000004  1.0000
  Zn  Zn10      1.0  0.08761  0.33236  0.8925  1.0000
  Zn  Zn11      1.0  0.08763  0.10739000000000004  0.43985  1.0000
  Zn  Zn12      1.0  0.08760000000000001  0.56018  0.66747  1.0000
  Zn  Zn13      1.0  0.58745  0.66748  0.5602  1.0000
  Zn  Zn14      1.0  0.58746  0.8925700000000001  0.33244  1.0000
  Zn  Zn15      1.0  0.58743  0.4398100000000001  0.10731  1.0000
  Zn  Zn16      1.0  0.08760000000000001  0.33253  0.43982  1.0000
  Zn  Zn17      1.0  0.08762  0.10749999999999998  0.66764  1.0000
  Zn  Zn18      1.0  0.08762  0.5601500000000001  0.8926100000000001  1.0000
  Zn  Zn19      1.0  0.41253000000000006  0.33244000000000007  0.8925700000000001  1.0000
  Zn  Zn20      1.0  0.41256  0.10731  0.43981  1.0000
  Zn  Zn21      1.0  0.41254  0.56021  0.66747  1.0000
  Zn  Zn22      1.0  0.9123700000000001  0.6676400000000001  0.1075  1.0000
  Zn  Zn23      1.0  0.91236  0.89262  0.56015  1.0000
  Zn  Zn24      1.0  0.9123799999999999  0.43982000000000004  0.33253000000000005  1.0000
  H   H1        1.0  0.5796  0.30778  0.42776  1.0000
  H   H2        1.0  0.69211  0.25723  0.42239  1.0000
  H   H3        1.0  0.50357  0.34928  0.54681  1.0000
  H   H4        1.0  0.42832  0.21915  0.3106  1.0000
  H   H5        1.0  0.46484  0.16285  0.20757  1.0000
  H   H6        1.0  0.32361  0.31577  0.33195  1.0000
  H   H7        1.0  0.57956  0.12011000000000001  0.69222  1.0000
  H   H8        1.0  0.69208  0.16518000000000008  0.7428000000000001  1.0000
  H   H9        1.0  0.50354  0.19732999999999998  0.65079  1.0000
  H   H10       1.0  0.4282500000000001  0.09139000000000003  0.78064  1.0000
  H   H11       1.0  0.4648300000000001  0.044749999999999984  0.83706  1.0000
  H   H12       1.0  0.32361  0.016189999999999972  0.68421  1.0000
  H   H13       1.0  0.57952  0.57203  0.87987  1.0000
  H   H14       1.0  0.69206  0.57761  0.83486  1.0000
  H   H15       1.0  0.50345  0.45306  0.80237  1.0000
  H   H16       1.0  0.42826  0.68943  0.90862  1.0000
  H   H17       1.0  0.4649  0.7924700000000002  0.9553600000000001  1.0000
  H   H18       1.0  0.32363  0.6680400000000001  0.98385  1.0000
  H   H19       1.0  0.07962  0.6922400000000001  0.57226  1.0000
  H   H20       1.0  0.19215  0.74279  0.57764  1.0000
  H   H21       1.0  0.00513  0.65054  0.45343  1.0000
  H   H22       1.0  0.9281900000000001  0.7806400000000002  0.68924  1.0000
  H   H23       1.0  0.9647700000000001  0.83695  0.79225  1.0000
  H   H24       1.0  0.82343  0.6847700000000002  0.6683  1.0000
  H   H25       1.0  0.07957  0.8799  0.30776  1.0000
  H   H26       1.0  0.19208  0.8348300000000001  0.25719  1.0000
  H   H27       1.0  0.00506  0.80307  0.34939  1.0000
  H   H28       1.0  0.9281400000000001  0.90868  0.21958  1.0000
  H   H29       1.0  0.9647700000000001  0.9552699999999998  0.16314  1.0000
  H   H30       1.0  0.82342  0.98353  0.31525  1.0000
  H   H31       1.0  0.07955  0.42794  0.12013000000000001  1.0000
  H   H32       1.0  0.1921  0.42237  0.16514  1.0000
  H   H33       1.0  0.00491  0.54661  0.19716000000000003  1.0000
  H   H34       1.0  0.9281400000000001  0.31072  0.09133000000000001  1.0000
  H   H35       1.0  0.9648500000000001  0.20769000000000007  0.0446  1.0000
  H   H36       1.0  0.82346  0.33174  0.01644  1.0000
  H   H37       1.0  0.42043  0.6922300000000001  0.12011  1.0000
  H   H38       1.0  0.30791  0.7428  0.16518  1.0000
  H   H39       1.0  0.49645000000000006  0.6508  0.19733  1.0000
  H   H40       1.0  0.57174  0.7806400000000002  0.09139  1.0000
  H   H41       1.0  0.53516  0.8370600000000002  0.04476000000000001  1.0000
  H   H42       1.0  0.67638  0.6842200000000002  0.01619  1.0000
  H   H43       1.0  0.42046000000000006  0.87987  0.57203  1.0000
  H   H44       1.0  0.30793  0.83486  0.57761  1.0000
  H   H45       1.0  0.49654000000000004  0.8023700000000002  0.4530600000000001  1.0000
  H   H46       1.0  0.57172  0.90862  0.68942  1.0000
  H   H47       1.0  0.53508  0.95536  0.79247  1.0000
  H   H48       1.0  0.67635  0.9838500000000002  0.66804  1.0000
  H   H49       1.0  0.42039  0.42776  0.30778  1.0000
  H   H50       1.0  0.30788000000000004  0.42239  0.25723  1.0000
  H   H51       1.0  0.4964199999999999  0.54681  0.34928000000000003  1.0000
  H   H52       1.0  0.57167  0.3106  0.21915  1.0000
  H   H53       1.0  0.53516  0.20757  0.16285  1.0000
  H   H54       1.0  0.67639  0.33195  0.31577  1.0000
  H   H55       1.0  0.9204200000000001  0.30776  0.8799  1.0000
  H   H56       1.0  0.8079  0.25719000000000003  0.8348300000000001  1.0000
  H   H57       1.0  0.99492  0.34939  0.80306  1.0000
  H   H58       1.0  0.07184  0.21958  0.90868  1.0000
  H   H59       1.0  0.03521  0.16313999999999998  0.95526  1.0000
  H   H60       1.0  0.17657  0.31524999999999986  0.98352  1.0000
  H   H61       1.0  0.9204400000000001  0.12013  0.42794  1.0000
  H   H62       1.0  0.80789  0.16514000000000006  0.4223700000000001  1.0000
  H   H63       1.0  0.99508  0.19715999999999997  0.54661  1.0000
  H   H64       1.0  0.07185  0.09133  0.31072  1.0000
  H   H65       1.0  0.03514  0.044599999999999994  0.20769  1.0000
  H   H66       1.0  0.17653  0.01644000000000001  0.33174  1.0000
  H   H67       1.0  0.92036  0.57226  0.69224  1.0000
  H   H68       1.0  0.80783  0.5776400000000003  0.7427900000000001  1.0000
  H   H69       1.0  0.99485  0.45343000000000006  0.65054  1.0000
  H   H70       1.0  0.07179  0.68925  0.78064  1.0000
  H   H71       1.0  0.03521  0.79225  0.8369500000000002  1.0000
  H   H72       1.0  0.17655  0.6683  0.68477  1.0000
  H   H73       1.0  0.42039  0.6922200000000002  0.57224  1.0000
  H   H74       1.0  0.30787  0.74277  0.57761  1.0000
  H   H75       1.0  0.4964199999999999  0.65072  0.45319000000000004  1.0000
  H   H76       1.0  0.57167  0.7808500000000002  0.6894  1.0000
  H   H77       1.0  0.53515  0.83715  0.79243  1.0000
  H   H78       1.0  0.67638  0.6842300000000001  0.66805  1.0000
  H   H79       1.0  0.42043  0.8799  0.30778  1.0000
  H   H80       1.0  0.30791  0.8348200000000001  0.2572  1.0000
  H   H81       1.0  0.49645000000000006  0.80267  0.34921  1.0000
  H   H82       1.0  0.57173  0.90861  0.21936000000000003  1.0000
  H   H83       1.0  0.53516  0.9552500000000003  0.16294  1.0000
  H   H84       1.0  0.67637  0.98381  0.31578  1.0000
  H   H85       1.0  0.42047  0.42797000000000013  0.12013000000000001  1.0000
  H   H86       1.0  0.30793  0.42239  0.16514  1.0000
  H   H87       1.0  0.49654000000000004  0.54695  0.19763  1.0000
  H   H88       1.0  0.57172  0.31058  0.09138000000000002  1.0000
  H   H89       1.0  0.53509  0.20753  0.04464  1.0000
  H   H90       1.0  0.67635  0.33196  0.01615  1.0000
  H   H91       1.0  0.92036  0.30776  0.42774000000000006  1.0000
  H   H92       1.0  0.80784  0.25721000000000005  0.42236000000000007  1.0000
  H   H93       1.0  0.99485  0.34946  0.54657  1.0000
  H   H94       1.0  0.0718  0.21936  0.31076  1.0000
  H   H95       1.0  0.03521  0.16305000000000003  0.20775  1.0000
  H   H96       1.0  0.17655  0.31523000000000007  0.3317  1.0000
  H   H97       1.0  0.9204200000000001  0.12009999999999998  0.69224  1.0000
  H   H98       1.0  0.8079  0.16517000000000004  0.7428100000000001  1.0000
  H   H99       1.0  0.99493  0.19694000000000006  0.65061  1.0000
  H   H100      1.0  0.07185  0.09132000000000003  0.78042  1.0000
  H   H101      1.0  0.03522  0.04472999999999994  0.83686  1.0000
  H   H102      1.0  0.17657  0.016479999999999988  0.68475  1.0000
  H   H103      1.0  0.9204299999999999  0.57206  0.87987  1.0000
  H   H104      1.0  0.80789  0.57763  0.83486  1.0000
  H   H105      1.0  0.99508  0.45339  0.8028400000000001  1.0000
  H   H106      1.0  0.07185  0.68929  0.90867  1.0000
  H   H107      1.0  0.03513  0.7923100000000001  0.95539  1.0000
  H   H108      1.0  0.17653  0.66826  0.98356  1.0000
  H   H109      1.0  0.57956  0.30778  0.87989  1.0000
  H   H110      1.0  0.69208  0.2572  0.83482  1.0000
  H   H111      1.0  0.50353  0.34921  0.80267  1.0000
  H   H112      1.0  0.4282500000000001  0.2193600000000001  0.90861  1.0000
  H   H113      1.0  0.4648300000000001  0.16294  0.95524  1.0000
  H   H114      1.0  0.32361  0.31578  0.98381  1.0000
  H   H115      1.0  0.57952  0.12013  0.42797  1.0000
  H   H116      1.0  0.69206  0.16514000000000004  0.42239  1.0000
  H   H117      1.0  0.50345  0.19763  0.54694  1.0000
  H   H118      1.0  0.42827  0.09138  0.31058  1.0000
  H   H119      1.0  0.4649  0.04464  0.20753000000000002  1.0000
  H   H120      1.0  0.32364  0.016149999999999994  0.33196  1.0000
  H   H121      1.0  0.57959  0.57224  0.69222  1.0000
  H   H122      1.0  0.69211  0.57761  0.74277  1.0000
  H   H123      1.0  0.50357  0.45319000000000004  0.65071  1.0000
  H   H124      1.0  0.4283100000000001  0.6894  0.78085  1.0000
  H   H125      1.0  0.4648300000000001  0.79243  0.83715  1.0000
  H   H126      1.0  0.3236  0.66805  0.68423  1.0000
  H   H127      1.0  0.07957  0.6922400000000001  0.12010000000000003  1.0000
  H   H128      1.0  0.19208  0.74281  0.16517  1.0000
  H   H129      1.0  0.00506  0.65061  0.19694  1.0000
  H   H130      1.0  0.9281400000000001  0.78042  0.09132  1.0000
  H   H131      1.0  0.9647700000000001  0.8368700000000002  0.04474000000000001  1.0000
  H   H132      1.0  0.82342  0.68475  0.01648  1.0000
  H   H133      1.0  0.07955  0.87988  0.57206  1.0000
  H   H134      1.0  0.1921  0.83487  0.57763  1.0000
  H   H135      1.0  0.00491  0.80284  0.45339000000000007  1.0000
  H   H136      1.0  0.9281300000000001  0.90867  0.68928  1.0000
  H   H137      1.0  0.9648500000000001  0.9554  0.7923100000000001  1.0000
  H   H138      1.0  0.82345  0.98356  0.66826  1.0000
  H   H139      1.0  0.07963  0.42774  0.30776  1.0000
  H   H140      1.0  0.19215  0.42236000000000007  0.25721  1.0000
  H   H141      1.0  0.00513  0.5465800000000002  0.34946000000000005  1.0000
  H   H142      1.0  0.9281900000000001  0.31076000000000004  0.21936000000000003  1.0000
  H   H143      1.0  0.9647800000000001  0.20775000000000002  0.16305  1.0000
  H   H144      1.0  0.82344  0.3317  0.31523  1.0000
  H   H145      1.0  0.35142  0.22275000000000006  0.44534  1.0000
  H   H146      1.0  0.35147  0.22266999999999998  0.77733  1.0000
  H   H147      1.0  0.35141  0.5546600000000002  0.7772500000000002  1.0000
  H   H148      1.0  0.8514600000000001  0.77721  0.55457  1.0000
  H   H149      1.0  0.8514800000000001  0.77729  0.22272000000000003  1.0000
  H   H150      1.0  0.8514600000000001  0.44543000000000005  0.22279000000000002  1.0000
  H   H151      1.0  0.64852  0.77733  0.22267  1.0000
  H   H152      1.0  0.64857  0.7772500000000001  0.55466  1.0000
  H   H153      1.0  0.64857  0.44534  0.22275  1.0000
  H   H154      1.0  0.14851  0.22271999999999997  0.77728  1.0000
  H   H155      1.0  0.14853  0.22279000000000002  0.44543000000000005  1.0000
  H   H156      1.0  0.14853  0.5545700000000001  0.7772100000000001  1.0000
  H   H157      1.0  0.49999  0.42617000000000005  0.42617  1.0000
  H   H158      1.0  0.49999  0.99983  0.57357  1.0000
  H   H159      1.0  0.5  0.57357  0.9998300000000001  1.0000
  H   H160      1.0  0.99999  0.57362  0.57362  1.0000
  H   H161      1.0  4e-05  0.00020999999999999911  0.42666  1.0000
  H   H162      1.0  0.99995  0.42666000000000004  0.00021  1.0000
  H   H163      1.0  0.49999  0.57384  0.57383  1.0000
  H   H164      1.0  0.5  0.0001700000000000229  0.42643  1.0000
  H   H165      1.0  0.5  0.42643  0.00017000000000000004  1.0000
  H   H166      1.0  0.0  0.42638  0.42638000000000004  1.0000
  H   H167      1.0  0.99995  0.99979  0.57334  1.0000
  H   H168      1.0  4e-05  0.57334  0.99979  1.0000
  C   C1        1.0  0.51652  0.24237  0.43186  1.0000
  C   C2        1.0  0.57959  0.26753  0.42818  1.0000
  C   C3        1.0  0.64215  0.23874  0.42496  1.0000
  C   C4        1.0  0.48015  0.39026  0.55787  1.0000
  C   C5        1.0  0.47936  0.29655  0.32204  1.0000
  C   C6        1.0  0.45881  0.23882000000000003  0.29065  1.0000
  C   C7        1.0  0.47984000000000004  0.20778  0.2333  1.0000
  C   C8        1.0  0.28684  0.31843  0.36404  1.0000
  C   C9        1.0  0.51653  0.1895400000000001  0.7576600000000001  1.0000
  C   C10       1.0  0.5795800000000001  0.16071999999999992  0.73248  1.0000
  C   C11       1.0  0.64212  0.18625000000000005  0.76127  1.0000
  C   C12       1.0  0.48008  0.16751000000000002  0.6098  1.0000
  C   C13       1.0  0.47931999999999997  0.025480000000000027  0.7032900000000001  1.0000
  C   C14       1.0  0.45876999999999996  0.05180000000000005  0.7610200000000001  1.0000
  C   C15       1.0  0.47982  0.025530000000000188  0.7921200000000002  1.0000
  C   C16       1.0  0.28685  0.04559000000000005  0.68149  1.0000
  C   C17       1.0  0.51649  0.5681000000000003  0.81043  1.0000
  C   C18       1.0  0.57955  0.5717300000000001  0.8392600000000001  1.0000
  C   C19       1.0  0.64212  0.57501  0.81375  1.0000
  C   C20       1.0  0.48012000000000005  0.44202  0.83235  1.0000
  C   C21       1.0  0.47938  0.67786  0.97452  1.0000
  C   C22       1.0  0.45879  0.7093000000000002  0.9482100000000001  1.0000
  C   C23       1.0  0.47984000000000004  0.76666  0.97452  1.0000
  C   C24       1.0  0.28685  0.63596  0.95443  1.0000
  C   C25       1.0  0.01652  0.7576200000000001  0.56813  1.0000
  C   C26       1.0  0.07961  0.73248  0.57183  1.0000
  C   C27       1.0  0.14217  0.76127  0.57505  1.0000
  C   C28       1.0  0.9810200000000001  0.6097  0.44221  1.0000
  C   C29       1.0  0.97931  0.70323  0.67776  1.0000
  C   C30       1.0  0.95873  0.76096  0.70916  1.0000
  C   C31       1.0  0.9798100000000001  0.79202  0.76651  1.0000
  C   C32       1.0  0.78667  0.68183  0.63606  1.0000
  C   C33       1.0  0.01651  0.81045  0.24235  1.0000
  C   C34       1.0  0.07956  0.83928  0.26751  1.0000
  C   C35       1.0  0.14212  0.81376  0.23873  1.0000
  C   C36       1.0  0.9809900000000001  0.8326  0.39026  1.0000
  C   C37       1.0  0.97929  0.97457  0.29694  1.0000
  C   C38       1.0  0.95871  0.94825  0.23921  1.0000
  C   C39       1.0  0.97979  0.97449  0.20808  1.0000
  C   C40       1.0  0.78667  0.95426  0.31826  1.0000
  C   C41       1.0  0.0165  0.43191  0.18957000000000002  1.0000
  C   C42       1.0  0.07956  0.42827000000000004  0.16074  1.0000
  C   C43       1.0  0.14215  0.42498  0.18624  1.0000
  C   C44       1.0  0.9809900000000001  0.5578700000000001  0.16750000000000004  1.0000
  C   C45       1.0  0.97933  0.32234  0.025480000000000006  1.0000
  C   C46       1.0  0.95872  0.29086  0.05176000000000001  1.0000
  C   C47       1.0  0.97982  0.23352000000000006  0.025470000000000007  1.0000
  C   C48       1.0  0.78667  0.36396  0.04573000000000001  1.0000
  C   C49       1.0  0.48346  0.75766  0.18954  1.0000
  C   C50       1.0  0.42041  0.73248  0.16072  1.0000
  C   C51       1.0  0.35786  0.76127  0.18625  1.0000
  C   C52       1.0  0.51991  0.6098  0.16751  1.0000
  C   C53       1.0  0.52067  0.7032900000000001  0.025480000000000006  1.0000
  C   C54       1.0  0.54122  0.7610200000000001  0.051800000000000006  1.0000
  C   C55       1.0  0.52017  0.79212  0.02553  1.0000
  C   C56       1.0  0.71314  0.68149  0.04559  1.0000
  C   C57       1.0  0.48349  0.81044  0.5681  1.0000
  C   C58       1.0  0.42043  0.83926  0.57173  1.0000
  C   C59       1.0  0.35786  0.81375  0.57501  1.0000
  C   C60       1.0  0.51987  0.83235  0.44202  1.0000
  C   C61       1.0  0.5206  0.9745200000000002  0.67786  1.0000
  C   C62       1.0  0.54119  0.9482100000000002  0.7093  1.0000
  C   C63       1.0  0.5201400000000002  0.9745200000000002  0.76666  1.0000
  C   C64       1.0  0.71313  0.95443  0.63596  1.0000
  C   C65       1.0  0.48347  0.43186  0.24237000000000003  1.0000
  C   C66       1.0  0.42040000000000005  0.42818000000000006  0.26753  1.0000
  C   C67       1.0  0.35784  0.42495999999999995  0.23874  1.0000
  C   C68       1.0  0.51984  0.55787  0.39026  1.0000
  C   C69       1.0  0.52063  0.32204  0.29655  1.0000
  C   C70       1.0  0.54118  0.29065  0.23882  1.0000
  C   C71       1.0  0.52015  0.2333  0.20778000000000002  1.0000
  C   C72       1.0  0.71315  0.36404000000000003  0.31842  1.0000
  C   C73       1.0  0.9834700000000001  0.24235  0.81045  1.0000
  C   C74       1.0  0.9204200000000001  0.2675100000000001  0.8392800000000001  1.0000
  C   C75       1.0  0.85786  0.23872000000000004  0.81375  1.0000
  C   C76       1.0  0.01899  0.39026  0.8325900000000002  1.0000
  C   C77       1.0  0.02069  0.29694000000000004  0.9745600000000001  1.0000
  C   C78       1.0  0.04128  0.2392100000000001  0.9482500000000001  1.0000
  C   C79       1.0  0.0202  0.20808000000000007  0.97448  1.0000
  C   C80       1.0  0.21331999999999998  0.31826  0.95426  1.0000
  C   C81       1.0  0.9835  0.18957  0.43191  1.0000
  C   C82       1.0  0.9204299999999999  0.16074  0.42826  1.0000
  C   C83       1.0  0.85784  0.18623999999999996  0.42498  1.0000
  C   C84       1.0  0.019  0.1675  0.55787  1.0000
  C   C85       1.0  0.020670000000000004  0.025480000000000027  0.32234000000000007  1.0000
  C   C86       1.0  0.04127  0.05176000000000001  0.29086  1.0000
  C   C87       1.0  0.02018  0.025470000000000007  0.23352000000000003  1.0000
  C   C88       1.0  0.21331999999999998  0.045720000000000025  0.36395000000000005  1.0000
  C   C89       1.0  0.98346  0.5681300000000001  0.7576200000000001  1.0000
  C   C90       1.0  0.9203800000000001  0.57183  0.73248  1.0000
  C   C91       1.0  0.85781  0.57506  0.76127  1.0000
  C   C92       1.0  0.01896  0.44221  0.6097  1.0000
  C   C93       1.0  0.020670000000000004  0.67776  0.70323  1.0000
  C   C94       1.0  0.04125  0.7091700000000002  0.7609600000000001  1.0000
  C   C95       1.0  0.02017  0.76651  0.7920200000000001  1.0000
  C   C96       1.0  0.21331  0.63606  0.68183  1.0000
  C   C97       1.0  0.48347  0.75763  0.56814  1.0000
  C   C98       1.0  0.42040000000000005  0.7324700000000001  0.57182  1.0000
  C   C99       1.0  0.35784  0.76126  0.57504  1.0000
  C   C100      1.0  0.51984  0.60974  0.44213  1.0000
  C   C101      1.0  0.52063  0.7034500000000002  0.67796  1.0000
  C   C102      1.0  0.54118  0.76118  0.70935  1.0000
  C   C103      1.0  0.5201400000000002  0.79222  0.7667  1.0000
  C   C104      1.0  0.71315  0.68158  0.63596  1.0000
  C   C105      1.0  0.48346  0.81046  0.24234  1.0000
  C   C106      1.0  0.42041  0.83929  0.26752  1.0000
  C   C107      1.0  0.35786  0.81375  0.23873  1.0000
  C   C108      1.0  0.5199  0.83249  0.3902  1.0000
  C   C109      1.0  0.52066  0.9745200000000002  0.29671  1.0000
  C   C110      1.0  0.54122  0.9482000000000003  0.23898  1.0000
  C   C111      1.0  0.52017  0.97447  0.20788000000000004  1.0000
  C   C112      1.0  0.71313  0.95441  0.31851  1.0000
  C   C113      1.0  0.48349  0.43191  0.18957000000000002  1.0000
  C   C114      1.0  0.42044  0.42827000000000004  0.16074  1.0000
  C   C115      1.0  0.35787  0.42499  0.18625  1.0000
  C   C116      1.0  0.51987  0.55798  0.16765  1.0000
  C   C117      1.0  0.52061  0.32214  0.025480000000000006  1.0000
  C   C118      1.0  0.54119  0.2907  0.05179  1.0000
  C   C119      1.0  0.52015  0.23334000000000002  0.025480000000000006  1.0000
  C   C120      1.0  0.71314  0.36404000000000003  0.04557  1.0000
  C   C121      1.0  0.9834700000000001  0.24237999999999998  0.43187  1.0000
  C   C122      1.0  0.9203800000000001  0.26752  0.42817  1.0000
  C   C123      1.0  0.85781  0.23873000000000003  0.42494  1.0000
  C   C124      1.0  0.01896  0.3903  0.55779  1.0000
  C   C125      1.0  0.020670000000000004  0.29677  0.32224  1.0000
  C   C126      1.0  0.04125  0.23904  0.29084  1.0000
  C   C127      1.0  0.02018  0.20798000000000005  0.23349  1.0000
  C   C128      1.0  0.21331999999999998  0.3181700000000001  0.36394000000000004  1.0000
  C   C129      1.0  0.9834700000000001  0.18955000000000002  0.7576500000000002  1.0000
  C   C130      1.0  0.9204200000000001  0.16072000000000006  0.73249  1.0000
  C   C131      1.0  0.85786  0.18625000000000005  0.76127  1.0000
  C   C132      1.0  0.01899  0.1674100000000001  0.60974  1.0000
  C   C133      1.0  0.0207  0.025440000000000018  0.70306  1.0000
  C   C134      1.0  0.04128  0.051749999999999956  0.76079  1.0000
  C   C135      1.0  0.0202  0.025510000000000015  0.79192  1.0000
  C   C136      1.0  0.21331999999999998  0.04574000000000003  0.68174  1.0000
  C   C137      1.0  0.98349  0.56809  0.81043  1.0000
  C   C138      1.0  0.9204299999999999  0.5717400000000001  0.8392600000000001  1.0000
  C   C139      1.0  0.85784  0.57502  0.81376  1.0000
  C   C140      1.0  0.019  0.44213  0.8325  1.0000
  C   C141      1.0  0.02066  0.67766  0.97452  1.0000
  C   C142      1.0  0.041260000000000005  0.7091400000000003  0.9482400000000001  1.0000
  C   C143      1.0  0.02017  0.76648  0.97453  1.0000
  C   C144      1.0  0.21331999999999998  0.63605  0.9542700000000001  1.0000
  C   C145      1.0  0.51653  0.24233999999999994  0.81046  1.0000
  C   C146      1.0  0.57957  0.2675199999999999  0.8392800000000001  1.0000
  C   C147      1.0  0.64212  0.23873000000000003  0.81375  1.0000
  C   C148      1.0  0.48008  0.39020000000000005  0.8324900000000001  1.0000
  C   C149      1.0  0.47931999999999997  0.29671  0.97452  1.0000
  C   C150      1.0  0.45876999999999996  0.23898  0.9482  1.0000
  C   C151      1.0  0.47982  0.2078800000000001  0.97447  1.0000
  C   C152      1.0  0.28685  0.31851  0.95441  1.0000
  C   C153      1.0  0.5165  0.18957  0.4319  1.0000
  C   C154      1.0  0.57955  0.16074  0.42827  1.0000
  C   C155      1.0  0.64212  0.18625000000000005  0.42499  1.0000
  C   C156      1.0  0.48012000000000005  0.16765  0.55798  1.0000
  C   C157      1.0  0.47939  0.025479999999999992  0.32214  1.0000
  C   C158      1.0  0.4588  0.05179000000000003  0.2907  1.0000
  C   C159      1.0  0.47985  0.02548000000000001  0.23334000000000002  1.0000
  C   C160      1.0  0.28686  0.04556999999999999  0.36404  1.0000
  C   C161      1.0  0.51652  0.5681400000000001  0.7576300000000001  1.0000
  C   C162      1.0  0.57959  0.57183  0.73247  1.0000
  C   C163      1.0  0.64214  0.57504  0.76126  1.0000
  C   C164      1.0  0.48015  0.4421300000000001  0.60974  1.0000
  C   C165      1.0  0.47935  0.67796  0.70345  1.0000
  C   C166      1.0  0.4588  0.7093500000000003  0.76118  1.0000
  C   C167      1.0  0.47984000000000004  0.7667  0.79222  1.0000
  C   C168      1.0  0.28684  0.63596  0.68157  1.0000
  C   C169      1.0  0.01651  0.7576500000000002  0.18955  1.0000
  C   C170      1.0  0.07957  0.73249  0.16072  1.0000
  C   C171      1.0  0.14212  0.76128  0.18625  1.0000
  C   C172      1.0  0.9810000000000001  0.60974  0.16741000000000003  1.0000
  C   C173      1.0  0.97929  0.7030700000000002  0.02544  1.0000
  C   C174      1.0  0.95871  0.7608  0.05175  1.0000
  C   C175      1.0  0.97979  0.7919300000000001  0.02552  1.0000
  C   C176      1.0  0.78667  0.6817400000000001  0.04574  1.0000
  C   C177      1.0  0.01649  0.8104300000000001  0.56809  1.0000
  C   C178      1.0  0.07956  0.83926  0.57174  1.0000
  C   C179      1.0  0.14215  0.81376  0.57502  1.0000
  C   C180      1.0  0.9809900000000001  0.8324999999999999  0.44213  1.0000
  C   C181      1.0  0.97932  0.9745200000000002  0.67766  1.0000
  C   C182      1.0  0.95872  0.9482400000000001  0.70914  1.0000
  C   C183      1.0  0.9798100000000001  0.9745300000000001  0.7664800000000002  1.0000
  C   C184      1.0  0.78666  0.95428  0.63605  1.0000
  C   C185      1.0  0.01652  0.43187  0.24238000000000004  1.0000
  C   C186      1.0  0.07961  0.42817000000000005  0.26752  1.0000
  C   C187      1.0  0.14218  0.42495  0.23873  1.0000
  C   C188      1.0  0.9810200000000001  0.5578000000000002  0.3903000000000001  1.0000
  C   C189      1.0  0.97932  0.32224  0.29677  1.0000
  C   C190      1.0  0.95874  0.29084  0.23904  1.0000
  C   C191      1.0  0.9798100000000001  0.23349  0.20798  1.0000
  C   C192      1.0  0.78668  0.36394000000000004  0.31817  1.0000
  C   C193      1.0  0.40821  0.22004000000000004  0.43999  1.0000
  C   C194      1.0  0.40825  0.21999000000000005  0.78001  1.0000
  C   C195      1.0  0.40821  0.56001  0.77996  1.0000
  C   C196      1.0  0.9082300000000001  0.77993  0.55997  1.0000
  C   C197      1.0  0.90824  0.77999  0.22001  1.0000
  C   C198      1.0  0.9082300000000001  0.44003  0.22008  1.0000
  C   C199      1.0  0.59174  0.78001  0.21999  1.0000
  C   C200      1.0  0.59178  0.77996  0.56001  1.0000
  C   C201      1.0  0.59178  0.43999000000000005  0.22004000000000004  1.0000
  C   C202      1.0  0.09175  0.22000999999999996  0.77999  1.0000
  C   C203      1.0  0.09176  0.22008000000000008  0.44003000000000003  1.0000
  C   C204      1.0  0.09175  0.55997  0.77992  1.0000
  C   C205      1.0  0.42174  0.45274  0.54726  1.0000
  C   C206      1.0  0.42173  0.09445999999999999  0.5472  1.0000
  C   C207      1.0  0.42173  0.4528  0.90554  1.0000
  C   C208      1.0  0.9207300000000002  0.54767  0.45233  1.0000
  C   C209      1.0  0.9207900000000001  0.9047300000000003  0.45233  1.0000
  C   C210      1.0  0.9207900000000001  0.54767  0.09527  1.0000
  C   C211      1.0  0.57826  0.5472  0.09446000000000003  1.0000
  C   C212      1.0  0.57826  0.9055400000000001  0.4528  1.0000
  C   C213      1.0  0.57825  0.54726  0.45274  1.0000
  C   C214      1.0  0.07919  0.45233000000000007  0.9047300000000001  1.0000
  C   C215      1.0  0.07920000000000002  0.09527  0.54767  1.0000
  C   C216      1.0  0.07925  0.45233  0.54767  1.0000
  C   C217      1.0  0.49999  0.38588  0.38587  1.0000
  C   C218      1.0  0.49993  0.9999700000000001  0.61394  1.0000
  C   C219      1.0  0.50006  0.61395  0.9999700000000001  1.0000
  C   C220      1.0  0.99999  0.61391  0.61391  1.0000
  C   C221      1.0  0.99997  6.000000000008001e-05  0.3862700000000001  1.0000
  C   C222      1.0  3e-05  0.38627  6.000000000000001e-05  1.0000
  C   C223      1.0  0.49999  0.61413  0.61413  1.0000
  C   C224      1.0  0.50006  2.9999999999990433e-05  0.38606  1.0000
  C   C225      1.0  0.49993  0.38606  3.0000000000000004e-05  1.0000
  C   C226      1.0  0.0  0.38609  0.3860900000000001  1.0000
  C   C227      1.0  3e-05  0.9999399999999999  0.61373  1.0000
  C   C228      1.0  0.99997  0.6137300000000001  0.9999400000000002  1.0000
  C   C229      1.0  0.25015  0.32526  0.44289  1.0000
  C   C230      1.0  0.25015  0.11755000000000007  0.67459  1.0000
  C   C231      1.0  0.25017  0.5571300000000001  0.88241  1.0000
  C   C232      1.0  0.74984  0.67474  0.55711  1.0000
  C   C233      1.0  0.7498300000000001  0.8824500000000002  0.32541  1.0000
  C   C234      1.0  0.74982  0.44287  0.11759  1.0000
  C   C235      1.0  0.74984  0.67459  0.11756000000000001  1.0000
  C   C236      1.0  0.74982  0.8824100000000005  0.55713  1.0000
  C   C237      1.0  0.74984  0.44289  0.32526  1.0000
  C   C238      1.0  0.25015  0.32541000000000014  0.8824400000000001  1.0000
  C   C239      1.0  0.25017  0.11758999999999997  0.44287  1.0000
  C   C240      1.0  0.25015  0.5571100000000001  0.67474  1.0000
  N   N1        1.0  0.44672  0.26063  0.43694  1.0000
  N   N2        1.0  0.44284999999999997  0.39737  0.5184  1.0000
  N   N3        1.0  0.4666600000000001  0.33851  0.37886  1.0000
  N   N4        1.0  0.30987  0.323  0.41439000000000004  1.0000
  N   N5        1.0  0.44672999999999996  0.17638000000000006  0.7394200000000001  1.0000
  N   N6        1.0  0.4428000000000001  0.12089000000000003  0.60258  1.0000
  N   N7        1.0  0.46662  0.04034  0.66131  1.0000
  N   N8        1.0  0.30988  0.09134999999999999  0.67688  1.0000
  N   N9        1.0  0.4466800000000001  0.56301  0.8236  1.0000
  N   N10       1.0  0.44288  0.48156000000000004  0.87891  1.0000
  N   N11       1.0  0.46673  0.62102  0.95964  1.0000
  N   N12       1.0  0.30988  0.58563  0.90864  1.0000
  N   N13       1.0  0.94672  0.73934  0.56304  1.0000
  N   N14       1.0  0.9426  0.60285  0.48137  1.0000
  N   N15       1.0  0.9666  0.66126  0.62094  1.0000
  N   N16       1.0  0.8096300000000001  0.6774  0.58573  1.0000
  N   N17       1.0  0.94671  0.8236  0.26059  1.0000
  N   N18       1.0  0.94263  0.8786500000000002  0.39715  1.0000
  N   N19       1.0  0.9665699999999999  0.95971  0.33893  1.0000
  N   N20       1.0  0.8096300000000001  0.9083700000000002  0.32272  1.0000
  N   N21       1.0  0.94668  0.43702000000000013  0.17643000000000003  1.0000
  N   N22       1.0  0.94265  0.51867  0.12148  1.0000
  N   N23       1.0  0.96663  0.3791800000000001  0.04036  1.0000
  N   N24       1.0  0.8096100000000002  0.41427  0.09164  1.0000
  N   N25       1.0  0.55326  0.73942  0.17638  1.0000
  N   N26       1.0  0.55719  0.60258  0.12089000000000001  1.0000
  N   N27       1.0  0.53337  0.6613100000000004  0.04034  1.0000
  N   N28       1.0  0.69011  0.67688  0.09135  1.0000
  N   N29       1.0  0.5533  0.8236  0.56301  1.0000
  N   N30       1.0  0.5571  0.8789100000000001  0.48156000000000004  1.0000
  N   N31       1.0  0.53326  0.9596400000000002  0.62102  1.0000
  N   N32       1.0  0.6901000000000002  0.90865  0.58563  1.0000
  N   N33       1.0  0.55327  0.43694000000000005  0.26063  1.0000
  N   N34       1.0  0.55713  0.5184000000000002  0.39737000000000006  1.0000
  N   N35       1.0  0.53333  0.37886  0.33851  1.0000
  N   N36       1.0  0.6901200000000001  0.41439  0.32299  1.0000
  N   N37       1.0  0.05327  0.26059  0.8236  1.0000
  N   N38       1.0  0.05735  0.39715  0.87865  1.0000
  N   N39       1.0  0.033420000000000005  0.33893000000000006  0.9597000000000001  1.0000
  N   N40       1.0  0.19035000000000002  0.32272  0.90837  1.0000
  N   N41       1.0  0.05331000000000001  0.17643000000000006  0.4370200000000001  1.0000
  N   N42       1.0  0.05735  0.12147  0.51866  1.0000
  N   N43       1.0  0.03336  0.04036000000000004  0.3791800000000001  1.0000
  N   N44       1.0  0.19038000000000002  0.09164000000000001  0.4142700000000001  1.0000
  N   N45       1.0  0.05326000000000001  0.5630400000000001  0.73934  1.0000
  N   N46       1.0  0.05738  0.48137  0.60284  1.0000
  N   N47       1.0  0.03339  0.62094  0.66126  1.0000
  N   N48       1.0  0.19035000000000002  0.5857300000000001  0.6774  1.0000
  N   N49       1.0  0.55327  0.73937  0.56306  1.0000
  N   N50       1.0  0.55713  0.6026300000000001  0.4816  1.0000
  N   N51       1.0  0.53332  0.66149  0.62114  1.0000
  N   N52       1.0  0.6901200000000001  0.67701  0.58561  1.0000
  N   N53       1.0  0.55325  0.82362  0.26058  1.0000
  N   N54       1.0  0.55719  0.87911  0.39742  1.0000
  N   N55       1.0  0.53337  0.9596600000000002  0.33869  1.0000
  N   N56       1.0  0.69011  0.90865  0.32312  1.0000
  N   N57       1.0  0.55331  0.437  0.1764  1.0000
  N   N58       1.0  0.5571  0.51844  0.12109  1.0000
  N   N59       1.0  0.53326  0.37898  0.04036  1.0000
  N   N60       1.0  0.69011  0.41437  0.09136  1.0000
  N   N61       1.0  0.05327  0.26066  0.43696  1.0000
  N   N62       1.0  0.05739  0.39716  0.51863  1.0000
  N   N63       1.0  0.03339  0.33874  0.37906  1.0000
  N   N64       1.0  0.19036  0.3226  0.4142700000000001  1.0000
  N   N65       1.0  0.05327  0.17640000000000006  0.7394100000000001  1.0000
  N   N66       1.0  0.05736  0.12135  0.60284  1.0000
  N   N67       1.0  0.033420000000000005  0.040290000000000006  0.66107  1.0000
  N   N68       1.0  0.19036  0.09162999999999999  0.67728  1.0000
  N   N69       1.0  0.05331000000000001  0.56298  0.82357  1.0000
  N   N70       1.0  0.05734000000000001  0.4813400000000001  0.87852  1.0000
  N   N71       1.0  0.03336  0.62082  0.95964  1.0000
  N   N72       1.0  0.19037  0.5857300000000001  0.9083600000000001  1.0000
  N   N73       1.0  0.44672999999999996  0.2605800000000001  0.82362  1.0000
  N   N74       1.0  0.4428000000000001  0.3974200000000001  0.8791100000000002  1.0000
  N   N75       1.0  0.4666100000000001  0.33869000000000005  0.9596600000000001  1.0000
  N   N76       1.0  0.30988  0.32312  0.90865  1.0000
  N   N77       1.0  0.4466800000000001  0.1764  0.43699000000000005  1.0000
  N   N78       1.0  0.44289  0.12109  0.51844  1.0000
  N   N79       1.0  0.46673  0.04036000000000004  0.37898000000000004  1.0000
  N   N80       1.0  0.30989  0.09135999999999997  0.41437  1.0000
  N   N81       1.0  0.44672  0.56306  0.7393700000000001  1.0000
  N   N82       1.0  0.44284999999999997  0.4816  0.60263  1.0000
  N   N83       1.0  0.4666600000000001  0.62114  0.66149  1.0000
  N   N84       1.0  0.30987  0.58561  0.67701  1.0000
  N   N85       1.0  0.94671  0.73941  0.1764  1.0000
  N   N86       1.0  0.94263  0.60285  0.12135  1.0000
  N   N87       1.0  0.9665699999999999  0.66108  0.0403  1.0000
  N   N88       1.0  0.8096300000000001  0.67729  0.09163000000000002  1.0000
  N   N89       1.0  0.94667  0.8235700000000001  0.56298  1.0000
  N   N90       1.0  0.94264  0.87853  0.48134  1.0000
  N   N91       1.0  0.96662  0.9596400000000002  0.62082  1.0000
  N   N92       1.0  0.8096100000000002  0.90836  0.58573  1.0000
  N   N93       1.0  0.94672  0.43696  0.26066  1.0000
  N   N94       1.0  0.9426  0.51863  0.39716  1.0000
  N   N95       1.0  0.9666  0.37906  0.33874  1.0000
  N   N96       1.0  0.8096300000000001  0.41427  0.3226  1.0000
  N   N97       1.0  0.38173  0.47855  0.52145  1.0000
  N   N98       1.0  0.38195  0.04270000000000002  0.52122  1.0000
  N   N99       1.0  0.38194  0.4787800000000001  0.9573  1.0000
  N   N100      1.0  0.8797300000000001  0.52205  0.47795  1.0000
  N   N101      1.0  0.8797100000000001  0.9559  0.47796  1.0000
  N   N102      1.0  0.87972  0.52204  0.0441  1.0000
  N   N103      1.0  0.61804  0.52122  0.0427  1.0000
  N   N104      1.0  0.61804  0.9573  0.47878  1.0000
  N   N105      1.0  0.61825  0.52145  0.47855  1.0000
  N   N106      1.0  0.12027  0.47796  0.9559  1.0000
  N   N107      1.0  0.12028  0.04409999999999998  0.52204  1.0000
  N   N108      1.0  0.12026000000000002  0.47795  0.52205  1.0000
  N   N109      1.0  0.25042  0.32929  0.49788  1.0000
  N   N110      1.0  0.25042  0.1685  0.67057  1.0000
  N   N111      1.0  0.25043  0.50221  0.83138  1.0000
  N   N112      1.0  0.74957  0.67071  0.50212  1.0000
  N   N113      1.0  0.74956  0.8315  0.32943  1.0000
  N   N114      1.0  0.74956  0.49779  0.16862  1.0000
  N   N115      1.0  0.74957  0.67057  0.1685  1.0000
  N   N116      1.0  0.74955  0.8313800000000001  0.50221  1.0000
  N   N117      1.0  0.74957  0.49788  0.32929  1.0000
  N   N118      1.0  0.25042  0.32943000000000006  0.8315000000000001  1.0000
  N   N119      1.0  0.25043  0.16862000000000008  0.4977900000000001  1.0000
  N   N120      1.0  0.25042  0.50212  0.67071  1.0000
  O   O1        1.0  0.36595  0.44795  0.46952  1.0000
  O   O2        1.0  0.30907  0.33077000000000006  0.51984  1.0000
  O   O3        1.0  0.36623  0.021129999999999993  0.55163  1.0000
  O   O4        1.0  0.30908  0.18899  0.6691  1.0000
  O   O5        1.0  0.3665  0.5307600000000001  0.9785900000000001  1.0000
  O   O6        1.0  0.30908  0.48027  0.81085  1.0000
  O   O7        1.0  0.8636300000000001  0.55268  0.52977  1.0000
  O   O8        1.0  0.80798  0.66969  0.48002000000000006  1.0000
  O   O9        1.0  0.8635900000000001  0.9771900000000001  0.44742  1.0000
  O   O10       1.0  0.80799  0.81042  0.33045  1.0000
  O   O11       1.0  0.8635199999999998  0.47026  0.02308  1.0000
  O   O12       1.0  0.80796  0.51988  0.18973  1.0000
  O   O13       1.0  0.63376  0.55164  0.02113  1.0000
  O   O14       1.0  0.69091  0.6691  0.18899000000000002  1.0000
  O   O15       1.0  0.6334800000000002  0.9786  0.53076  1.0000
  O   O16       1.0  0.69091  0.81085  0.48027  1.0000
  O   O17       1.0  0.63404  0.46952  0.44795  1.0000
  O   O18       1.0  0.69092  0.51984  0.33077000000000006  1.0000
  O   O19       1.0  0.13639  0.4474200000000001  0.97719  1.0000
  O   O20       1.0  0.192  0.33045  0.81041  1.0000
  O   O21       1.0  0.13647  0.02308000000000003  0.47026000000000007  1.0000
  O   O22       1.0  0.19203  0.18973000000000007  0.51988  1.0000
  O   O23       1.0  0.13636  0.52977  0.55268  1.0000
  O   O24       1.0  0.19201  0.48002000000000006  0.66969  1.0000
  O   O25       1.0  0.63404  0.55205  0.53048  1.0000
  O   O26       1.0  0.69092  0.66923  0.48016000000000003  1.0000
  O   O27       1.0  0.63376  0.9788700000000002  0.44837  1.0000
  O   O28       1.0  0.69091  0.81102  0.3309  1.0000
  O   O29       1.0  0.63349  0.4692400000000001  0.02141  1.0000
  O   O30       1.0  0.69091  0.51973  0.18915  1.0000
  O   O31       1.0  0.13636  0.4473200000000001  0.47023000000000004  1.0000
  O   O32       1.0  0.19201  0.33031  0.51998  1.0000
  O   O33       1.0  0.1364  0.022809999999999987  0.55258  1.0000
  O   O34       1.0  0.192  0.18957999999999997  0.66955  1.0000
  O   O35       1.0  0.13646  0.5297400000000001  0.9769200000000001  1.0000
  O   O36       1.0  0.19203  0.4801200000000001  0.8102700000000002  1.0000
  O   O37       1.0  0.36622  0.4483700000000001  0.97887  1.0000
  O   O38       1.0  0.30908  0.33090000000000014  0.8110100000000002  1.0000
  O   O39       1.0  0.36651  0.021410000000000023  0.46924000000000005  1.0000
  O   O40       1.0  0.30908  0.18915  0.51973  1.0000
  O   O41       1.0  0.36595  0.53048  0.55205  1.0000
  O   O42       1.0  0.30907  0.48016  0.66923  1.0000
  O   O43       1.0  0.8636  0.55258  0.02281  1.0000
  O   O44       1.0  0.80799  0.6695500000000001  0.18958000000000003  1.0000
  O   O45       1.0  0.8635199999999998  0.97693  0.52974  1.0000
  O   O46       1.0  0.80796  0.81027  0.48012  1.0000
  O   O47       1.0  0.8636300000000001  0.47023000000000004  0.44732000000000005  1.0000
  O   O48       1.0  0.80798  0.51998  0.33031  1.0000
