data_image0
_chemical_formula_structural       Cd8H160C200S20N40
_chemical_formula_sum              "Cd8 H160 C200 S20 N40"
_cell_length_a       16.997
_cell_length_b       16.997
_cell_length_c       28.39034
_cell_angle_alpha    90.0
_cell_angle_beta     90.0
_cell_angle_gamma    90.0

_symmetry_space_group_name_H-M    'P 1'
_symmetry_Int_Tables_number       1

loop_
  _symmetry_equiv_pos_as_xyz
  'x,y,z'

loop_
  _atom_site_type_symbol
  _atom_site_label
  _atom_site_symmetry_multiplicity
  _atom_site_fract_x
  _atom_site_fract_y
  _atom_site_fract_z
  _atom_site_occupancy
  Cd  Cd1       1.0  0.70444  0.21998  0.0063  1.0000
  Cd  Cd2       1.0  0.29556  0.78002  0.5063  1.0000
  Cd  Cd3       1.0  0.28002  0.20444  0.2563  1.0000
  Cd  Cd4       1.0  0.71997  0.79556  0.7562999999999999  1.0000
  Cd  Cd5       1.0  0.79556  0.71997  0.24369999999999994  1.0000
  Cd  Cd6       1.0  0.20444  0.28002  0.7437  1.0000
  Cd  Cd7       1.0  0.21998  0.70444  0.9936999999999998  1.0000
  Cd  Cd8       1.0  0.78002  0.29556  0.4937  1.0000
  H   H1        1.0  0.5656  0.33722  0.9632399999999998  1.0000
  H   H2        1.0  0.52944  0.47837  0.9600999999999997  1.0000
  H   H3        1.0  0.7408999999999999  0.52811  0.04039  1.0000
  H   H4        1.0  0.76888  0.38506  0.03992  1.0000
  H   H5        1.0  0.74703  0.30508  0.91494  1.0000
  H   H6        1.0  0.71697  0.31791  0.82944  1.0000
  H   H7        1.0  0.53838  0.13826  0.8481399999999998  1.0000
  H   H8        1.0  0.57759  0.13057  0.93217  1.0000
  H   H9        1.0  0.34099  0.31632  0.82225  1.0000
  H   H10       1.0  0.48460999999999993  0.30325  0.83428  1.0000
  H   H11       1.0  0.49681999999999993  0.18582  0.69899  1.0000
  H   H12       1.0  0.35363  0.20609  0.6910699999999997  1.0000
  H   H13       1.0  0.6332  0.32754  0.09467  1.0000
  H   H14       1.0  0.68846  0.37867  0.16922  1.0000
  H   H15       1.0  0.85918  0.18911  0.16401999999999997  1.0000
  H   H16       1.0  0.7956  0.14423  0.09031  1.0000
  H   H17       1.0  0.84302  0.58657  0.16571999999999998  1.0000
  H   H18       1.0  0.84565  0.44136  0.15563  1.0000
  H   H19       1.0  0.77543  0.42044  0.30193  1.0000
  H   H20       1.0  0.77512  0.56668  0.30621  1.0000
  H   H21       1.0  0.4344  0.66278  0.46324  1.0000
  H   H22       1.0  0.4705599999999999  0.5216299999999999  0.4600999999999999  1.0000
  H   H23       1.0  0.2591  0.4718899999999999  0.54039  1.0000
  H   H24       1.0  0.23112  0.61494  0.53992  1.0000
  H   H25       1.0  0.25297  0.69491  0.41494  1.0000
  H   H26       1.0  0.28303  0.68209  0.32944  1.0000
  H   H27       1.0  0.46162  0.8617399999999998  0.34813  1.0000
  H   H28       1.0  0.42241  0.86943  0.4321699999999999  1.0000
  H   H29       1.0  0.65901  0.68368  0.32225  1.0000
  H   H30       1.0  0.51539  0.69675  0.33426999999999996  1.0000
  H   H31       1.0  0.50318  0.81418  0.19898999999999994  1.0000
  H   H32       1.0  0.64637  0.79391  0.19107  1.0000
  H   H33       1.0  0.3668  0.67246  0.59467  1.0000
  H   H34       1.0  0.31154  0.62132  0.66922  1.0000
  H   H35       1.0  0.14081  0.81089  0.6640199999999998  1.0000
  H   H36       1.0  0.20439  0.85577  0.5903099999999998  1.0000
  H   H37       1.0  0.15698  0.41342  0.66572  1.0000
  H   H38       1.0  0.15435  0.55864  0.6556299999999999  1.0000
  H   H39       1.0  0.22456  0.57956  0.80193  1.0000
  H   H40       1.0  0.22488  0.43331  0.80621  1.0000
  H   H41       1.0  0.16278  0.0656  0.21323999999999996  1.0000
  H   H42       1.0  0.02163  0.02944  0.2101  1.0000
  H   H43       1.0  0.97189  0.2409  0.29039  1.0000
  H   H44       1.0  0.11494  0.26888  0.28992  1.0000
  H   H45       1.0  0.19490999999999997  0.24703  0.16494  1.0000
  H   H46       1.0  0.18209  0.21697  0.07944  1.0000
  H   H47       1.0  0.36174  0.03838  0.09813  1.0000
  H   H48       1.0  0.36943  0.07759  0.18217  1.0000
  H   H49       1.0  0.18368  0.84099  0.07224999999999997  1.0000
  H   H50       1.0  0.19675  0.98461  0.08427  1.0000
  H   H51       1.0  0.31418  0.99682  0.94899  1.0000
  H   H52       1.0  0.29391  0.85363  0.94107  1.0000
  H   H53       1.0  0.17246  0.1332  0.34467  1.0000
  H   H54       1.0  0.12132  0.18846  0.41922  1.0000
  H   H55       1.0  0.31089  0.35919  0.4140199999999999  1.0000
  H   H56       1.0  0.35577  0.29561  0.34031  1.0000
  H   H57       1.0  0.9134199999999999  0.34302  0.41572  1.0000
  H   H58       1.0  0.05864  0.34564999999999996  0.40562999999999994  1.0000
  H   H59       1.0  0.07956  0.27544  0.55193  1.0000
  H   H60       1.0  0.93331  0.27512  0.55621  1.0000
  H   H61       1.0  0.83722  0.9344  0.71324  1.0000
  H   H62       1.0  0.9783699999999999  0.97056  0.7101  1.0000
  H   H63       1.0  0.02811  0.7591  0.7903899999999998  1.0000
  H   H64       1.0  0.88506  0.73112  0.78992  1.0000
  H   H65       1.0  0.80508  0.75296  0.66494  1.0000
  H   H66       1.0  0.81791  0.78303  0.5794399999999997  1.0000
  H   H67       1.0  0.63826  0.96162  0.59814  1.0000
  H   H68       1.0  0.63057  0.9224  0.6821699999999998  1.0000
  H   H69       1.0  0.81632  0.15901  0.5722499999999998  1.0000
  H   H70       1.0  0.80325  0.015389999999999997  0.58427  1.0000
  H   H71       1.0  0.68582  0.00318  0.4489899999999999  1.0000
  H   H72       1.0  0.70609  0.14637  0.44107  1.0000
  H   H73       1.0  0.82754  0.8668  0.84467  1.0000
  H   H74       1.0  0.87867  0.81153  0.91923  1.0000
  H   H75       1.0  0.68911  0.64081  0.91402  1.0000
  H   H76       1.0  0.64422  0.70439  0.84031  1.0000
  H   H77       1.0  0.08658  0.65698  0.91572  1.0000
  H   H78       1.0  0.94136  0.65435  0.90563  1.0000
  H   H79       1.0  0.92043  0.72456  0.05192999999999999  1.0000
  H   H80       1.0  0.06669  0.7248799999999999  0.05621  1.0000
  H   H81       1.0  0.9344  0.83722  0.28676  1.0000
  H   H82       1.0  0.97056  0.9783699999999999  0.2899  1.0000
  H   H83       1.0  0.7591  0.02811  0.20961  1.0000
  H   H84       1.0  0.73112  0.88506  0.21007999999999993  1.0000
  H   H85       1.0  0.75296  0.80508  0.33506  1.0000
  H   H86       1.0  0.78303  0.81791  0.42056  1.0000
  H   H87       1.0  0.96162  0.63826  0.40187  1.0000
  H   H88       1.0  0.9224  0.63057  0.31783  1.0000
  H   H89       1.0  0.15901  0.81632  0.4277499999999999  1.0000
  H   H90       1.0  0.015389999999999997  0.80325  0.41573  1.0000
  H   H91       1.0  0.00318  0.68582  0.55101  1.0000
  H   H92       1.0  0.14637  0.70609  0.55893  1.0000
  H   H93       1.0  0.8668  0.82754  0.15533  1.0000
  H   H94       1.0  0.81153  0.87867  0.08078  1.0000
  H   H95       1.0  0.64081  0.68911  0.08598  1.0000
  H   H96       1.0  0.70439  0.64422  0.15969  1.0000
  H   H97       1.0  0.65698  0.08658  0.08428  1.0000
  H   H98       1.0  0.65435  0.94136  0.09436999999999997  1.0000
  H   H99       1.0  0.72456  0.92043  0.94807  1.0000
  H   H100      1.0  0.7248799999999999  0.06669  0.94379  1.0000
  H   H101      1.0  0.0656  0.16278  0.7867599999999999  1.0000
  H   H102      1.0  0.02944  0.02163  0.7899  1.0000
  H   H103      1.0  0.2409  0.97189  0.7096099999999997  1.0000
  H   H104      1.0  0.26888  0.11494  0.71008  1.0000
  H   H105      1.0  0.24703  0.19490999999999997  0.83507  1.0000
  H   H106      1.0  0.21697  0.18209  0.9205599999999998  1.0000
  H   H107      1.0  0.03838  0.36174  0.9018699999999997  1.0000
  H   H108      1.0  0.07759  0.36943  0.8178299999999997  1.0000
  H   H109      1.0  0.84099  0.18368  0.92776  1.0000
  H   H110      1.0  0.98461  0.19675  0.9157299999999999  1.0000
  H   H111      1.0  0.99682  0.31418  0.05101  1.0000
  H   H112      1.0  0.85363  0.29391  0.05893  1.0000
  H   H113      1.0  0.1332  0.17246  0.65533  1.0000
  H   H114      1.0  0.18846  0.12132  0.58078  1.0000
  H   H115      1.0  0.35919  0.31089  0.58598  1.0000
  H   H116      1.0  0.29561  0.35577  0.65969  1.0000
  H   H117      1.0  0.34302  0.9134199999999999  0.58428  1.0000
  H   H118      1.0  0.34564999999999996  0.05864  0.59437  1.0000
  H   H119      1.0  0.27544  0.07956  0.44807  1.0000
  H   H120      1.0  0.27512  0.93331  0.4437899999999999  1.0000
  H   H121      1.0  0.33722  0.5656  0.03676  1.0000
  H   H122      1.0  0.47837  0.52944  0.0399  1.0000
  H   H123      1.0  0.52811  0.7408999999999999  0.95961  1.0000
  H   H124      1.0  0.38506  0.76888  0.96008  1.0000
  H   H125      1.0  0.30508  0.74703  0.08506  1.0000
  H   H126      1.0  0.31791  0.71697  0.17056  1.0000
  H   H127      1.0  0.13826  0.53838  0.15187  1.0000
  H   H128      1.0  0.13057  0.57759  0.06783  1.0000
  H   H129      1.0  0.31632  0.34099  0.17775  1.0000
  H   H130      1.0  0.30325  0.48460999999999993  0.16573  1.0000
  H   H131      1.0  0.18582  0.49681999999999993  0.3010099999999999  1.0000
  H   H132      1.0  0.20609  0.35363  0.30893  1.0000
  H   H133      1.0  0.32754  0.6332  0.90533  1.0000
  H   H134      1.0  0.37867  0.68846  0.83078  1.0000
  H   H135      1.0  0.18911  0.85918  0.8359799999999997  1.0000
  H   H136      1.0  0.14423  0.7956  0.9096899999999998  1.0000
  H   H137      1.0  0.58657  0.84302  0.83428  1.0000
  H   H138      1.0  0.44136  0.84565  0.84437  1.0000
  H   H139      1.0  0.42044  0.77543  0.69807  1.0000
  H   H140      1.0  0.56668  0.77512  0.6937899999999999  1.0000
  H   H141      1.0  0.66278  0.4344  0.53676  1.0000
  H   H142      1.0  0.5216299999999999  0.4705599999999999  0.5399  1.0000
  H   H143      1.0  0.4718899999999999  0.2591  0.45961  1.0000
  H   H144      1.0  0.61494  0.23112  0.46008  1.0000
  H   H145      1.0  0.69491  0.25297  0.5850699999999998  1.0000
  H   H146      1.0  0.68209  0.28303  0.67056  1.0000
  H   H147      1.0  0.8617399999999998  0.46162  0.65187  1.0000
  H   H148      1.0  0.86943  0.42241  0.56783  1.0000
  H   H149      1.0  0.68368  0.65901  0.67776  1.0000
  H   H150      1.0  0.69675  0.51539  0.6657299999999998  1.0000
  H   H151      1.0  0.81418  0.50318  0.80101  1.0000
  H   H152      1.0  0.79391  0.64637  0.8089299999999998  1.0000
  H   H153      1.0  0.67246  0.3668  0.40532999999999997  1.0000
  H   H154      1.0  0.62132  0.31154  0.33077999999999996  1.0000
  H   H155      1.0  0.81089  0.14081  0.3359799999999999  1.0000
  H   H156      1.0  0.85577  0.20439  0.4096899999999999  1.0000
  H   H157      1.0  0.41342  0.15698  0.33428  1.0000
  H   H158      1.0  0.55864  0.15435  0.34437  1.0000
  H   H159      1.0  0.57956  0.22456  0.19807  1.0000
  H   H160      1.0  0.43331  0.22488  0.19379  1.0000
  C   C1        1.0  0.60214  0.38112999999999997  0.98065  1.0000
  C   C2        1.0  0.58221  0.45986  0.9786399999999997  1.0000
  C   C3        1.0  0.63238  0.51597  0.00043  1.0000
  C   C4        1.0  0.70053  0.48748  0.02328  1.0000
  C   C5        1.0  0.7159199999999999  0.40775  0.023289999999999995  1.0000
  C   C6        1.0  0.70244  0.26835  0.8984199999999999  1.0000
  C   C7        1.0  0.68552  0.27539  0.85105  1.0000
  C   C8        1.0  0.62618  0.22743  0.83084  1.0000
  C   C9        1.0  0.58538  0.17543  0.86156  1.0000
  C   C10       1.0  0.60665  0.17167  0.90845  1.0000
  C   C11       1.0  0.3771  0.28761  0.79559  1.0000
  C   C12       1.0  0.45735  0.28076  0.80235  1.0000
  C   C13       1.0  0.50399  0.24466  0.7670199999999999  1.0000
  C   C14       1.0  0.46447  0.21571  0.72681  1.0000
  C   C15       1.0  0.384  0.22557  0.72274  1.0000
  C   C16       1.0  0.6828799999999999  0.29815  0.11120999999999998  1.0000
  C   C17       1.0  0.71382  0.32673  0.15282  1.0000
  C   C18       1.0  0.77853  0.28741  0.17394999999999994  1.0000
  C   C19       1.0  0.80893  0.22093  0.14996  1.0000
  C   C20       1.0  0.77369  0.19585  0.10885  1.0000
  C   C21       1.0  0.82821  0.5478  0.19495  1.0000
  C   C22       1.0  0.83028  0.4671  0.18947999999999995  1.0000
  C   C23       1.0  0.81369  0.41796999999999995  0.22867999999999994  1.0000
  C   C24       1.0  0.7919  0.45543  0.27134  1.0000
  C   C25       1.0  0.79086  0.53665  0.27366  1.0000
  C   C26       1.0  0.39786  0.61887  0.48065  1.0000
  C   C27       1.0  0.41778999999999994  0.54014  0.4786399999999999  1.0000
  C   C28       1.0  0.36762  0.48403000000000007  0.50043  1.0000
  C   C29       1.0  0.29947  0.51252  0.52328  1.0000
  C   C30       1.0  0.28408  0.59225  0.52329  1.0000
  C   C31       1.0  0.29755  0.73165  0.39842  1.0000
  C   C32       1.0  0.31448  0.72461  0.35105  1.0000
  C   C33       1.0  0.37382  0.77257  0.33083999999999997  1.0000
  C   C34       1.0  0.41462  0.82457  0.3615599999999999  1.0000
  C   C35       1.0  0.39335  0.82832  0.40844999999999987  1.0000
  C   C36       1.0  0.6229  0.71239  0.29559  1.0000
  C   C37       1.0  0.54265  0.71924  0.30235  1.0000
  C   C38       1.0  0.49601  0.75534  0.26702  1.0000
  C   C39       1.0  0.53553  0.78429  0.22681  1.0000
  C   C40       1.0  0.616  0.77443  0.22274  1.0000
  C   C41       1.0  0.31712  0.70185  0.61121  1.0000
  C   C42       1.0  0.28618  0.67326  0.6528199999999997  1.0000
  C   C43       1.0  0.22146  0.71258  0.67395  1.0000
  C   C44       1.0  0.19107  0.77906  0.64996  1.0000
  C   C45       1.0  0.2263  0.80415  0.6088499999999998  1.0000
  C   C46       1.0  0.17178  0.4522  0.69495  1.0000
  C   C47       1.0  0.16972  0.5329  0.6894799999999998  1.0000
  C   C48       1.0  0.1863  0.58202  0.72868  1.0000
  C   C49       1.0  0.2081  0.54457  0.7713399999999998  1.0000
  C   C50       1.0  0.20913  0.46335  0.77366  1.0000
  C   C51       1.0  0.11887  0.10214  0.23064999999999994  1.0000
  C   C52       1.0  0.040139999999999995  0.08221  0.22864  1.0000
  C   C53       1.0  0.98403  0.13238  0.25043  1.0000
  C   C54       1.0  0.01252  0.20053  0.27328  1.0000
  C   C55       1.0  0.09225  0.21592  0.27329  1.0000
  C   C56       1.0  0.23165  0.20245  0.14842  1.0000
  C   C57       1.0  0.22461  0.18551999999999996  0.10104  1.0000
  C   C58       1.0  0.27257  0.12618  0.08084  1.0000
  C   C59       1.0  0.32457  0.08538  0.11156  1.0000
  C   C60       1.0  0.32833  0.10665  0.15844999999999995  1.0000
  C   C61       1.0  0.21239  0.8771  0.045589999999999985  1.0000
  C   C62       1.0  0.21924  0.95735  0.05235  1.0000
  C   C63       1.0  0.25534  0.00399  0.01702  1.0000
  C   C64       1.0  0.28429  0.9644600000000001  0.9768099999999997  1.0000
  C   C65       1.0  0.27443  0.884  0.97274  1.0000
  C   C66       1.0  0.20185  0.18288  0.36121  1.0000
  C   C67       1.0  0.17327  0.21382  0.40282  1.0000
  C   C68       1.0  0.21259  0.27854  0.4239499999999999  1.0000
  C   C69       1.0  0.27906  0.30893  0.39996  1.0000
  C   C70       1.0  0.3041499999999999  0.27369  0.35885  1.0000
  C   C71       1.0  0.9521999999999999  0.32822  0.44495  1.0000
  C   C72       1.0  0.0329  0.33028  0.43947999999999987  1.0000
  C   C73       1.0  0.08202  0.31369  0.47868  1.0000
  C   C74       1.0  0.04457  0.2919  0.52134  1.0000
  C   C75       1.0  0.9633499999999999  0.29086  0.52366  1.0000
  C   C76       1.0  0.88113  0.89786  0.73065  1.0000
  C   C77       1.0  0.9598599999999999  0.91779  0.72864  1.0000
  C   C78       1.0  0.01597  0.86762  0.7504299999999998  1.0000
  C   C79       1.0  0.9874799999999999  0.79947  0.77328  1.0000
  C   C80       1.0  0.90775  0.78408  0.77329  1.0000
  C   C81       1.0  0.76835  0.79755  0.64842  1.0000
  C   C82       1.0  0.77539  0.81448  0.60105  1.0000
  C   C83       1.0  0.72743  0.87382  0.5808399999999999  1.0000
  C   C84       1.0  0.67543  0.91462  0.61156  1.0000
  C   C85       1.0  0.67167  0.89335  0.6584499999999998  1.0000
  C   C86       1.0  0.78761  0.1229  0.54559  1.0000
  C   C87       1.0  0.78076  0.04265  0.55235  1.0000
  C   C88       1.0  0.74465  0.99601  0.51702  1.0000
  C   C89       1.0  0.71571  0.03553  0.47680999999999996  1.0000
  C   C90       1.0  0.72557  0.116  0.4727399999999999  1.0000
  C   C91       1.0  0.7981499999999999  0.81712  0.86121  1.0000
  C   C92       1.0  0.82673  0.78618  0.90282  1.0000
  C   C93       1.0  0.78741  0.72146  0.92395  1.0000
  C   C94       1.0  0.72093  0.69107  0.89996  1.0000
  C   C95       1.0  0.69585  0.7263  0.85885  1.0000
  C   C96       1.0  0.0478  0.67178  0.94495  1.0000
  C   C97       1.0  0.96709  0.66972  0.93948  1.0000
  C   C98       1.0  0.91797  0.6863  0.97868  1.0000
  C   C99       1.0  0.95543  0.7081  0.02134  1.0000
  C   C100      1.0  0.03665  0.70913  0.02366  1.0000
  C   C101      1.0  0.89786  0.88113  0.26935  1.0000
  C   C102      1.0  0.91779  0.9598599999999999  0.27136  1.0000
  C   C103      1.0  0.86762  0.01597  0.24957999999999994  1.0000
  C   C104      1.0  0.79947  0.9874799999999999  0.22672  1.0000
  C   C105      1.0  0.78408  0.90775  0.22670999999999994  1.0000
  C   C106      1.0  0.79755  0.76835  0.35158  1.0000
  C   C107      1.0  0.81448  0.77539  0.39896  1.0000
  C   C108      1.0  0.87382  0.72743  0.41916  1.0000
  C   C109      1.0  0.91462  0.67543  0.3884399999999999  1.0000
  C   C110      1.0  0.89335  0.67167  0.3415499999999999  1.0000
  C   C111      1.0  0.1229  0.78761  0.45440999999999987  1.0000
  C   C112      1.0  0.04265  0.78076  0.44765  1.0000
  C   C113      1.0  0.99601  0.74465  0.48297999999999996  1.0000
  C   C114      1.0  0.03553  0.71571  0.52319  1.0000
  C   C115      1.0  0.116  0.72557  0.52727  1.0000
  C   C116      1.0  0.81712  0.7981499999999999  0.13879  1.0000
  C   C117      1.0  0.78618  0.82673  0.09718  1.0000
  C   C118      1.0  0.72146  0.78741  0.07604999999999998  1.0000
  C   C119      1.0  0.69107  0.72093  0.10004  1.0000
  C   C120      1.0  0.7263  0.69585  0.14115  1.0000
  C   C121      1.0  0.67178  0.0478  0.05505  1.0000
  C   C122      1.0  0.66972  0.96709  0.06052  1.0000
  C   C123      1.0  0.6863  0.91797  0.02132  1.0000
  C   C124      1.0  0.7081  0.95543  0.97866  1.0000
  C   C125      1.0  0.70913  0.03665  0.97634  1.0000
  C   C126      1.0  0.10214  0.11887  0.76935  1.0000
  C   C127      1.0  0.08221  0.040139999999999995  0.77136  1.0000
  C   C128      1.0  0.13238  0.98403  0.74958  1.0000
  C   C129      1.0  0.20053  0.01252  0.72672  1.0000
  C   C130      1.0  0.21592  0.09225  0.7267099999999997  1.0000
  C   C131      1.0  0.20245  0.23165  0.8515799999999998  1.0000
  C   C132      1.0  0.18551999999999996  0.22461  0.8989599999999999  1.0000
  C   C133      1.0  0.12618  0.27257  0.91916  1.0000
  C   C134      1.0  0.08538  0.32457  0.88844  1.0000
  C   C135      1.0  0.10665  0.32833  0.8415499999999998  1.0000
  C   C136      1.0  0.8771  0.21239  0.9544099999999998  1.0000
  C   C137      1.0  0.95735  0.21924  0.94765  1.0000
  C   C138      1.0  0.00399  0.25534  0.9829799999999997  1.0000
  C   C139      1.0  0.9644600000000001  0.28429  0.023189999999999992  1.0000
  C   C140      1.0  0.884  0.27443  0.02726  1.0000
  C   C141      1.0  0.18288  0.20185  0.63879  1.0000
  C   C142      1.0  0.21382  0.17327  0.59718  1.0000
  C   C143      1.0  0.27854  0.21259  0.5760499999999998  1.0000
  C   C144      1.0  0.30893  0.27906  0.60005  1.0000
  C   C145      1.0  0.27369  0.3041499999999999  0.64115  1.0000
  C   C146      1.0  0.32822  0.9521999999999999  0.55505  1.0000
  C   C147      1.0  0.33028  0.0329  0.56052  1.0000
  C   C148      1.0  0.31369  0.08202  0.52132  1.0000
  C   C149      1.0  0.2919  0.04457  0.47866  1.0000
  C   C150      1.0  0.29086  0.9633499999999999  0.47634  1.0000
  C   C151      1.0  0.38112999999999997  0.60214  0.01935  1.0000
  C   C152      1.0  0.45986  0.58221  0.021359999999999994  1.0000
  C   C153      1.0  0.51597  0.63238  0.99958  1.0000
  C   C154      1.0  0.48748  0.70053  0.9767199999999998  1.0000
  C   C155      1.0  0.40775  0.7159199999999999  0.97671  1.0000
  C   C156      1.0  0.26835  0.70244  0.10157999999999998  1.0000
  C   C157      1.0  0.27539  0.68552  0.14896  1.0000
  C   C158      1.0  0.22743  0.62618  0.16916  1.0000
  C   C159      1.0  0.17543  0.58538  0.13844  1.0000
  C   C160      1.0  0.17167  0.60665  0.09154999999999998  1.0000
  C   C161      1.0  0.28761  0.3771  0.20440999999999998  1.0000
  C   C162      1.0  0.28076  0.45735  0.19764999999999994  1.0000
  C   C163      1.0  0.24466  0.50399  0.23298  1.0000
  C   C164      1.0  0.21571  0.46447  0.27319  1.0000
  C   C165      1.0  0.22557  0.384  0.27726  1.0000
  C   C166      1.0  0.29815  0.6828799999999999  0.88879  1.0000
  C   C167      1.0  0.32673  0.71382  0.8471799999999998  1.0000
  C   C168      1.0  0.28741  0.77853  0.82605  1.0000
  C   C169      1.0  0.22093  0.80893  0.8500499999999999  1.0000
  C   C170      1.0  0.19585  0.77369  0.8911499999999998  1.0000
  C   C171      1.0  0.5478  0.82821  0.80505  1.0000
  C   C172      1.0  0.4671  0.83028  0.81052  1.0000
  C   C173      1.0  0.41796999999999995  0.81369  0.77132  1.0000
  C   C174      1.0  0.45543  0.7919  0.7286599999999998  1.0000
  C   C175      1.0  0.53665  0.79086  0.72634  1.0000
  C   C176      1.0  0.61887  0.39786  0.51935  1.0000
  C   C177      1.0  0.54014  0.41778999999999994  0.52136  1.0000
  C   C178      1.0  0.48403000000000007  0.36762  0.49958  1.0000
  C   C179      1.0  0.51252  0.29947  0.47672  1.0000
  C   C180      1.0  0.59225  0.28408  0.4767099999999999  1.0000
  C   C181      1.0  0.73165  0.29755  0.60158  1.0000
  C   C182      1.0  0.72461  0.31448  0.64896  1.0000
  C   C183      1.0  0.77257  0.37382  0.66916  1.0000
  C   C184      1.0  0.82457  0.41462  0.6384399999999999  1.0000
  C   C185      1.0  0.82832  0.39335  0.59155  1.0000
  C   C186      1.0  0.71239  0.6229  0.70441  1.0000
  C   C187      1.0  0.71924  0.54265  0.69765  1.0000
  C   C188      1.0  0.75534  0.49601  0.73298  1.0000
  C   C189      1.0  0.78429  0.53553  0.7731899999999999  1.0000
  C   C190      1.0  0.77443  0.616  0.7772699999999998  1.0000
  C   C191      1.0  0.70185  0.31712  0.38879  1.0000
  C   C192      1.0  0.67326  0.28618  0.34717999999999993  1.0000
  C   C193      1.0  0.71258  0.22146  0.3260499999999999  1.0000
  C   C194      1.0  0.77906  0.19107  0.35003999999999996  1.0000
  C   C195      1.0  0.80415  0.2263  0.3911499999999999  1.0000
  C   C196      1.0  0.4522  0.17178  0.30505  1.0000
  C   C197      1.0  0.5329  0.16972  0.3105199999999999  1.0000
  C   C198      1.0  0.58202  0.1863  0.27132  1.0000
  C   C199      1.0  0.54457  0.2081  0.22866  1.0000
  C   C200      1.0  0.46335  0.20913  0.22634  1.0000
  S   S1        1.0  0.60631  0.23422  0.7705599999999998  1.0000
  S   S2        1.0  0.82125  0.31562  0.2273  1.0000
  S   S3        1.0  0.39368  0.76577  0.27056  1.0000
  S   S4        1.0  0.17875  0.68438  0.7273  1.0000
  S   S5        1.0  0.26577  0.10631  0.02056  1.0000
  S   S6        1.0  0.18438  0.32125  0.4773  1.0000
  S   S7        1.0  0.73422  0.89368  0.52056  1.0000
  S   S8        1.0  0.81562  0.67875  0.9773  1.0000
  S   S9        1.0  0.89368  0.73422  0.47944  1.0000
  S   S10       1.0  0.67875  0.81562  0.0227  1.0000
  S   S11       1.0  0.10631  0.26577  0.9794399999999999  1.0000
  S   S12       1.0  0.32125  0.18438  0.5227  1.0000
  S   S13       1.0  0.23422  0.60631  0.22944  1.0000
  S   S14       1.0  0.31562  0.82125  0.7727  1.0000
  S   S15       1.0  0.76577  0.39368  0.7294399999999998  1.0000
  S   S16       1.0  0.68438  0.17875  0.2727  1.0000
  S   S17       1.0  0.61733  0.61733  0.0  1.0000
  S   S18       1.0  0.38266999999999995  0.38266999999999995  0.5  1.0000
  S   S19       1.0  0.88266  0.11733  0.25  1.0000
  S   S20       1.0  0.11733  0.88266  0.75  1.0000
  N   N1        1.0  0.66788  0.35332  0.00249  1.0000
  N   N2        1.0  0.66508  0.21654  0.92782  1.0000
  N   N3        1.0  0.33875  0.26114  0.75643  1.0000
  N   N4        1.0  0.7105799999999999  0.23287999999999998  0.08844  1.0000
  N   N5        1.0  0.80953  0.5842  0.23641  1.0000
  N   N6        1.0  0.33212  0.64668  0.50249  1.0000
  N   N7        1.0  0.33492  0.78345  0.42782  1.0000
  N   N8        1.0  0.66125  0.73886  0.25643  1.0000
  N   N9        1.0  0.28942  0.76712  0.58844  1.0000
  N   N10       1.0  0.19047  0.4158  0.7364099999999999  1.0000
  N   N11       1.0  0.14668  0.16788  0.25249  1.0000
  N   N12       1.0  0.28346  0.16508  0.17781999999999998  1.0000
  N   N13       1.0  0.23885999999999996  0.83875  0.006429999999999998  1.0000
  N   N14       1.0  0.26712  0.21058  0.33844  1.0000
  N   N15       1.0  0.9158  0.30953  0.48640999999999995  1.0000
  N   N16       1.0  0.8533199999999999  0.83212  0.75249  1.0000
  N   N17       1.0  0.71654  0.83492  0.67782  1.0000
  N   N18       1.0  0.76114  0.16125  0.50643  1.0000
  N   N19       1.0  0.73288  0.78942  0.83844  1.0000
  N   N20       1.0  0.0842  0.69047  0.98641  1.0000
  N   N21       1.0  0.83212  0.8533199999999999  0.24751  1.0000
  N   N22       1.0  0.83492  0.71654  0.32218  1.0000
  N   N23       1.0  0.16125  0.76114  0.4935699999999999  1.0000
  N   N24       1.0  0.78942  0.73288  0.16156  1.0000
  N   N25       1.0  0.69047  0.0842  0.013589999999999996  1.0000
  N   N26       1.0  0.16788  0.14668  0.74751  1.0000
  N   N27       1.0  0.16508  0.28346  0.82218  1.0000
  N   N28       1.0  0.83875  0.23885999999999996  0.99357  1.0000
  N   N29       1.0  0.21058  0.26712  0.6615599999999999  1.0000
  N   N30       1.0  0.30953  0.9158  0.51359  1.0000
  N   N31       1.0  0.35332  0.66788  0.9975099999999998  1.0000
  N   N32       1.0  0.21654  0.66508  0.07218  1.0000
  N   N33       1.0  0.26114  0.33875  0.24357  1.0000
  N   N34       1.0  0.23287999999999998  0.7105799999999999  0.91156  1.0000
  N   N35       1.0  0.5842  0.80953  0.76359  1.0000
  N   N36       1.0  0.64668  0.33212  0.4975099999999999  1.0000
  N   N37       1.0  0.78345  0.33492  0.57218  1.0000
  N   N38       1.0  0.73886  0.66125  0.7435699999999998  1.0000
  N   N39       1.0  0.76712  0.28942  0.41156  1.0000
  N   N40       1.0  0.4158  0.19047  0.26359  1.0000
