data_image0
_chemical_formula_structural       Zn16H128C176N16Cl32O64
_chemical_formula_sum              "Zn16 H128 C176 N16 Cl32 O64"
_cell_length_a       22.03462
_cell_length_b       22.03411
_cell_length_c       24.66425
_cell_angle_alpha    116.45798
_cell_angle_beta     116.46745
_cell_angle_gamma    90.05131

_symmetry_space_group_name_H-M    'P 1'
_symmetry_Int_Tables_number       1

loop_
  _symmetry_equiv_pos_as_xyz
  'x,y,z'

loop_
  _atom_site_type_symbol
  _atom_site_label
  _atom_site_symmetry_multiplicity
  _atom_site_fract_x
  _atom_site_fract_y
  _atom_site_fract_z
  _atom_site_occupancy
  Zn  Zn1       1.0  0.02702999999999995  0.023369999999999964  0.5739999999999998  1.0000
  Zn  Zn2       1.0  0.54777  0.55131  0.57419  1.0000
  Zn  Zn3       1.0  0.30036  0.2765  0.07383  1.0000
  Zn  Zn4       1.0  0.7729  0.79687  0.07392  1.0000
  Zn  Zn5       1.0  0.70313  0.7271000000000001  0.92608  1.0000
  Zn  Zn6       1.0  0.22349999999999998  0.19964  0.9261699999999999  1.0000
  Zn  Zn7       1.0  0.47662  0.47297  0.426  1.0000
  Zn  Zn8       1.0  0.9486900000000001  0.95224  0.42582  1.0000
  Zn  Zn9       1.0  0.7235  0.2271000000000001  0.92605  1.0000
  Zn  Zn10      1.0  0.2031399999999999  0.6995599999999998  0.92608  1.0000
  Zn  Zn11      1.0  0.4487500000000001  0.9729900000000001  0.42596  1.0000
  Zn  Zn12      1.0  0.97639  0.45231  0.42586  1.0000
  Zn  Zn13      1.0  0.047709999999999995  0.52361  0.57414  1.0000
  Zn  Zn14      1.0  0.52702  0.051250000000000004  0.57404  1.0000
  Zn  Zn15      1.0  0.27291  0.7765000000000001  0.07394999999999999  1.0000
  Zn  Zn16      1.0  0.8004500000000001  0.29686  0.07392  1.0000
  H   H1        1.0  0.21037000000000003  0.21725999999999998  0.8071699999999999  1.0000
  H   H2        1.0  0.25087  0.14769  0.80519  1.0000
  H   H3        1.0  0.06819999999999994  0.1517300000000001  0.81847  1.0000
  H   H4        1.0  0.10683999999999999  0.22081999999999993  0.81656  1.0000
  H   H5        1.0  0.018170000000000026  0.35286  0.59866  1.0000
  H   H6        1.0  0.72124  0.016529999999999993  0.59742  1.0000
  H   H7        1.0  0.19823999999999997  0.0532299999999999  0.8085599999999998  1.0000
  H   H8        1.0  0.12151999999999995  0.05615999999999994  0.8151199999999997  1.0000
  H   H9        1.0  0.597  0.5900999999999998  0.80758  1.0000
  H   H10       1.0  0.55447  0.65763  0.80552  1.0000
  H   H11       1.0  0.7502700000000001  0.6667  0.81852  1.0000
  H   H12       1.0  0.70976  0.59583  0.81678  1.0000
  H   H13       1.0  0.5804  0.24545999999999996  0.5985299999999999  1.0000
  H   H14       1.0  0.8760399999999999  0.58093  0.5975299999999999  1.0000
  H   H15       1.0  0.61028  0.75529  0.80854  1.0000
  H   H16       1.0  0.6935  0.75892  0.81503  1.0000
  H   H17       1.0  0.3400800000000001  0.46048  0.30743  1.0000
  H   H18       1.0  0.40765  0.50099  0.30537  1.0000
  H   H19       1.0  0.41670000000000007  0.31833  0.31864  1.0000
  H   H20       1.0  0.3458  0.35697  0.31683  1.0000
  H   H21       1.0  0.9954699999999999  0.26808  0.09866  1.0000
  H   H22       1.0  0.33088  0.9713400000000001  0.09731  1.0000
  H   H23       1.0  0.50534  0.44830000000000003  0.30855  1.0000
  H   H24       1.0  0.50885  0.37158000000000013  0.31509  1.0000
  H   H25       1.0  0.96728  0.84686  0.30729999999999996  1.0000
  H   H26       1.0  0.8977  0.80426  0.30531  1.0000
  H   H27       1.0  0.90175  0.00010000000000000383  0.31833  1.0000
  H   H28       1.0  0.97084  0.95965  0.31651  1.0000
  H   H29       1.0  0.10316000000000003  0.83049  0.09864  1.0000
  H   H30       1.0  0.7664800000000002  0.12578  0.09733  1.0000
  H   H31       1.0  0.8031500000000003  0.86021  0.30858  1.0000
  H   H32       1.0  0.8062000000000001  0.94347  0.31507  1.0000
  H   H33       1.0  0.65315  0.53273  0.69273  1.0000
  H   H34       1.0  0.69575  0.60231  0.6947099999999999  1.0000
  H   H35       1.0  0.49990000000000007  0.5982500000000001  0.68167  1.0000
  H   H36       1.0  0.54036  0.52917  0.68349  1.0000
  H   H37       1.0  0.66952  0.39685  0.90136  1.0000
  H   H38       1.0  0.37422  0.73352  0.90266  1.0000
  H   H39       1.0  0.63979  0.69686  0.69142  1.0000
  H   H40       1.0  0.55653  0.6938  0.68491  1.0000
  H   H41       1.0  0.039510000000000024  0.15990999999999997  0.69255  1.0000
  H   H42       1.0  0.9990000000000001  0.09235  0.69462  1.0000
  H   H43       1.0  0.18168  0.08331  0.68138  1.0000
  H   H44       1.0  0.14302999999999993  0.15421000000000004  0.6831799999999999  1.0000
  H   H45       1.0  0.2319400000000001  0.50455  0.90135  1.0000
  H   H46       1.0  0.5286599999999999  0.16912999999999995  0.9026999999999998  1.0000
  H   H47       1.0  0.051710000000000006  0.99467  0.69146  1.0000
  H   H48       1.0  0.1284299999999999  0.99116  0.6849299999999999  1.0000
  H   H49       1.0  0.28274  0.28963  0.19283  1.0000
  H   H50       1.0  0.35232  0.24915000000000004  0.19483  1.0000
  H   H51       1.0  0.34826  0.4318000000000001  0.18152  1.0000
  H   H52       1.0  0.27917  0.39316  0.18343  1.0000
  H   H53       1.0  0.14713000000000007  0.48184  0.40134  1.0000
  H   H54       1.0  0.48348  0.77878  0.40259  1.0000
  H   H55       1.0  0.44678  0.30178  0.19146999999999997  1.0000
  H   H56       1.0  0.44384000000000007  0.3784900000000001  0.18489  1.0000
  H   H57       1.0  0.9099  0.90301  0.19243  1.0000
  H   H58       1.0  0.8423700000000001  0.9455300000000001  0.19446999999999998  1.0000
  H   H59       1.0  0.8333200000000002  0.74975  0.1815  1.0000
  H   H60       1.0  0.9041900000000002  0.79027  0.18324999999999994  1.0000
  H   H61       1.0  0.25453  0.9196100000000003  0.40148  1.0000
  H   H62       1.0  0.9190700000000002  0.6239800000000001  0.40246  1.0000
  H   H63       1.0  0.7447  0.88971  0.19144  1.0000
  H   H64       1.0  0.7410800000000002  0.8065000000000001  0.18496  1.0000
  H   H65       1.0  0.53953  0.03267999999999999  0.69267  1.0000
  H   H66       1.0  0.49904000000000004  0.10225000000000002  0.69469  1.0000
  H   H67       1.0  0.68174  0.09819999999999997  0.6814399999999999  1.0000
  H   H68       1.0  0.64302  0.02912  0.6833  1.0000
  H   H69       1.0  0.73185  0.8969200000000002  0.9012599999999998  1.0000
  H   H70       1.0  0.028600000000000136  0.2336000000000001  0.90259  1.0000
  H   H71       1.0  0.55171  0.19674000000000003  0.69134  1.0000
  H   H72       1.0  0.62844  0.19381000000000007  0.6848  1.0000
  H   H73       1.0  0.15320000000000003  0.6600399999999998  0.6926499999999999  1.0000
  H   H74       1.0  0.19572  0.59248  0.69468  1.0000
  H   H75       1.0  0.9998900000000001  0.58335  0.68162  1.0000
  H   H76       1.0  0.040360000000000014  0.6543  0.68341  1.0000
  H   H77       1.0  0.16954999999999995  0.004659999999999945  0.9014699999999999  1.0000
  H   H78       1.0  0.87416  0.66927  0.90275  1.0000
  H   H79       1.0  0.13981  0.49476000000000003  0.69158  1.0000
  H   H80       1.0  0.05654  0.49121  0.68505  1.0000
  H   H81       1.0  0.4099900000000001  0.78965  0.19268  1.0000
  H   H82       1.0  0.3424500000000001  0.7491000000000001  0.19477  1.0000
  H   H83       1.0  0.33335  0.9317600000000001  0.18147  1.0000
  H   H84       1.0  0.40424000000000004  0.8931000000000001  0.18327  1.0000
  H   H85       1.0  0.75451  0.9818799999999999  0.4013699999999999  1.0000
  H   H86       1.0  0.41914  0.27879  0.40265  1.0000
  H   H87       1.0  0.24472  0.8017800000000002  0.1916  1.0000
  H   H88       1.0  0.24118000000000006  0.87849  0.18503  1.0000
  H   H89       1.0  0.78267  0.40303  0.19255  1.0000
  H   H90       1.0  0.8522500000000001  0.44555  0.19451  1.0000
  H   H91       1.0  0.84817  0.24976  0.18152  1.0000
  H   H92       1.0  0.7791100000000001  0.29022000000000003  0.18336  1.0000
  H   H93       1.0  0.64715  0.41957999999999995  0.40141999999999994  1.0000
  H   H94       1.0  0.9833800000000001  0.12402  0.40243  1.0000
  H   H95       1.0  0.9467300000000002  0.38969  0.19128  1.0000
  H   H96       1.0  0.9437900000000001  0.30649  0.18481999999999998  1.0000
  H   H97       1.0  0.09697000000000001  0.7173300000000002  0.80743  1.0000
  H   H98       1.0  0.054450000000000054  0.6477400000000001  0.80548  1.0000
  H   H99       1.0  0.25024999999999986  0.65184  0.8184999999999998  1.0000
  H   H100      1.0  0.20978999999999995  0.72089  0.8166499999999998  1.0000
  H   H101      1.0  0.08041999999999996  0.8528500000000001  0.5985899999999998  1.0000
  H   H102      1.0  0.37599999999999995  0.51663  0.5975799999999999  1.0000
  H   H103      1.0  0.11032000000000002  0.55327  0.80873  1.0000
  H   H104      1.0  0.19353000000000004  0.55622  0.8152  1.0000
  H   H105      1.0  0.71037  0.09001999999999995  0.80735  1.0000
  H   H106      1.0  0.75092  0.15756000000000006  0.80526  1.0000
  H   H107      1.0  0.56824  0.16664  0.81852  1.0000
  H   H108      1.0  0.60691  0.09576  0.81673  1.0000
  H   H109      1.0  0.51812  0.7454800000000001  0.59863  1.0000
  H   H110      1.0  0.22123000000000012  0.08086000000000008  0.59735  1.0000
  H   H111      1.0  0.6982199999999998  0.2552799999999999  0.8083999999999998  1.0000
  H   H112      1.0  0.6215000000000003  0.25881  0.81496  1.0000
  H   H113      1.0  0.46732  0.9604700000000002  0.30732999999999994  1.0000
  H   H114      1.0  0.39774000000000004  0.0009599999999999843  0.3053  1.0000
  H   H115      1.0  0.40181  0.81827  0.31858  1.0000
  H   H116      1.0  0.4709  0.85699  0.31672  1.0000
  H   H117      1.0  0.6031  0.7681600000000002  0.09875  1.0000
  H   H118      1.0  0.2664000000000001  0.47139  0.0974  1.0000
  H   H119      1.0  0.30326  0.9482900000000001  0.30864  1.0000
  H   H120      1.0  0.3061900000000001  0.87156  0.3152  1.0000
  H   H121      1.0  0.83997  0.3468000000000001  0.30736  1.0000
  H   H122      1.0  0.9075400000000002  0.30429  0.30534  1.0000
  H   H123      1.0  0.91665  0.5001  0.31837  1.0000
  H   H124      1.0  0.8457000000000001  0.45963  0.31657  1.0000
  H   H125      1.0  0.49535  0.33045  0.09852999999999999  1.0000
  H   H126      1.0  0.8307400000000001  0.62584  0.09726  1.0000
  H   H127      1.0  0.005250000000000007  0.36021  0.30845  1.0000
  H   H128      1.0  0.008800000000000021  0.44347000000000003  0.31496  1.0000
  C   C1        1.0  0.67141  0.003740000000000014  0.49458  1.0000
  C   C2        1.0  0.80429  0.9950000000000001  0.50423  1.0000
  C   C3        1.0  0.8724900000000002  0.9911599999999999  0.50433  1.0000
  C   C4        1.0  0.6031100000000001  0.00784000000000001  0.49425  1.0000
  C   C5        1.0  0.20013000000000003  0.16047999999999998  0.78607  1.0000
  C   C6        1.0  0.09438999999999993  0.16391  0.79447  1.0000
  C   C7        1.0  0.010650000000000007  0.30247  0.55563  1.0000
  C   C8        1.0  0.72868  0.009209999999999977  0.55444  1.0000
  C   C9        1.0  0.7940299999999999  0.0047999999999999415  0.5596699999999999  1.0000
  C   C10       1.0  0.006260000000000013  0.24234  0.56082  1.0000
  C   C11       1.0  0.14777000000000007  0.06672000000000003  0.79038  1.0000
  C   C12       1.0  0.8233  0.49093  0.49482  1.0000
  C   C13       1.0  0.6999400000000001  0.5093  0.50427  1.0000
  C   C14       1.0  0.6319100000000001  0.51326  0.50457  1.0000
  C   C15       1.0  0.8913500000000001  0.4866599999999999  0.49463999999999997  1.0000
  C   C16       1.0  0.58609  0.62573  0.78637  1.0000
  C   C17       1.0  0.7001199999999999  0.63058  0.79458  1.0000
  C   C18       1.0  0.54498  0.25299  0.55557  1.0000
  C   C19       1.0  0.82572  0.54526  0.55457  1.0000
  C   C20       1.0  0.7655500000000001  0.55493  0.55968  1.0000
  C   C21       1.0  0.5545  0.31837  0.56089  1.0000
  C   C22       1.0  0.64256  0.72365  0.79033  1.0000
  C   C23       1.0  0.24089000000000002  0.9215500000000001  0.9945899999999999  1.0000
  C   C24       1.0  0.2593  0.054470000000000005  0.00424  1.0000
  C   C25       1.0  0.26319  0.12274000000000002  0.00443  1.0000
  C   C26       1.0  0.2364500000000001  0.8532200000000001  0.9941999999999999  1.0000
  C   C27       1.0  0.37572000000000005  0.4502400000000001  0.28624  1.0000
  C   C28       1.0  0.38057  0.3444900000000001  0.29465  1.0000
  C   C29       1.0  0.0029500000000000004  0.26063  0.05567  1.0000
  C   C30       1.0  0.29523000000000005  0.97881  0.05439000000000001  1.0000
  C   C31       1.0  0.3049  0.044180000000000004  0.05963  1.0000
  C   C32       1.0  0.06829000000000002  0.25646000000000013  0.06095  1.0000
  C   C33       1.0  0.47363  0.39781000000000005  0.29034  1.0000
  C   C34       1.0  0.75358  0.07298999999999999  0.99447  1.0000
  C   C35       1.0  0.74496  0.94968  0.0041  1.0000
  C   C36       1.0  0.74111  0.88148  0.00407  1.0000
  C   C37       1.0  0.75746  0.14092000000000005  0.99403  1.0000
  C   C38       1.0  0.91048  0.83591  0.28614999999999996  1.0000
  C   C39       1.0  0.91392  0.94998  0.29437  1.0000
  C   C40       1.0  0.052730000000000006  0.79505  0.055709999999999996  1.0000
  C   C41       1.0  0.7591600000000002  0.07544  0.05436  1.0000
  C   C42       1.0  0.75476  0.015279999999999998  0.059559999999999995  1.0000
  C   C43       1.0  0.9926900000000001  0.80462  0.06100999999999999  1.0000
  C   C44       1.0  0.81666  0.89248  0.2903299999999999  1.0000
  C   C45       1.0  0.42701  0.74643  0.00554  1.0000
  C   C46       1.0  0.55032  0.75504  0.9958999999999999  1.0000
  C   C47       1.0  0.6185200000000002  0.75889  0.99592  1.0000
  C   C48       1.0  0.35908  0.74255  0.00597  1.0000
  C   C49       1.0  0.6641  0.58954  0.71387  1.0000
  C   C50       1.0  0.55002  0.5860900000000001  0.70563  1.0000
  C   C51       1.0  0.70495  0.44728  0.94429  1.0000
  C   C52       1.0  0.4245600000000001  0.74085  0.94565  1.0000
  C   C53       1.0  0.4847199999999999  0.7452400000000001  0.9404399999999999  1.0000
  C   C54       1.0  0.69538  0.50732  0.93899  1.0000
  C   C55       1.0  0.60752  0.6833400000000001  0.70966  1.0000
  C   C56       1.0  0.57845  0.25912  0.00541  1.0000
  C   C57       1.0  0.44554  0.2407000000000001  0.99577  1.0000
  C   C58       1.0  0.37726  0.2368100000000001  0.99557  1.0000
  C   C59       1.0  0.64678  0.26355  0.00579  1.0000
  C   C60       1.0  0.049749999999999996  0.12427999999999995  0.7137499999999999  1.0000
  C   C61       1.0  0.15551000000000006  0.11943000000000002  0.70536  1.0000
  C   C62       1.0  0.23938  0.49706  0.94434  1.0000
  C   C63       1.0  0.52119  0.20477999999999996  0.9456199999999999  1.0000
  C   C64       1.0  0.45582  0.19510999999999987  0.9403799999999999  1.0000
  C   C65       1.0  0.24355000000000007  0.43171000000000004  0.93906  1.0000
  C   C66       1.0  0.10219999999999992  0.026379999999999945  0.7096799999999999  1.0000
  C   C67       1.0  0.4962700000000001  0.8285900000000003  0.5054199999999999  1.0000
  C   C68       1.0  0.5050000000000001  0.69572  0.49576999999999993  1.0000
  C   C69       1.0  0.50885  0.62752  0.49567999999999995  1.0000
  C   C70       1.0  0.49217  0.89689  0.50576  1.0000
  C   C71       1.0  0.33952  0.29987  0.21394  1.0000
  C   C72       1.0  0.33609  0.40561  0.20551999999999998  1.0000
  C   C73       1.0  0.19751999999999997  0.4893499999999999  0.44436999999999993  1.0000
  C   C74       1.0  0.4908  0.77133  0.44557  1.0000
  C   C75       1.0  0.49521  0.7059800000000002  0.44033  1.0000
  C   C76       1.0  0.25764999999999993  0.49374  0.43918  1.0000
  C   C77       1.0  0.43329000000000006  0.35223999999999994  0.20963999999999997  1.0000
  C   C78       1.0  0.009080000000000006  0.6767100000000003  0.50519  1.0000
  C   C79       1.0  0.9907  0.80007  0.49572999999999995  1.0000
  C   C80       1.0  0.98675  0.8681000000000002  0.49544  1.0000
  C   C81       1.0  0.01335000000000006  0.60866  0.50537  1.0000
  C   C82       1.0  0.87427  0.9139200000000001  0.21362999999999996  1.0000
  C   C83       1.0  0.86943  0.79989  0.20544  1.0000
  C   C84       1.0  0.247  0.95502  0.44444  1.0000
  C   C85       1.0  0.9547400000000003  0.67429  0.44543  1.0000
  C   C86       1.0  0.94507  0.73446  0.44032  1.0000
  C   C87       1.0  0.18163000000000007  0.9455100000000001  0.43911999999999995  1.0000
  C   C88       1.0  0.77635  0.85744  0.20965999999999999  1.0000
  C   C89       1.0  0.07844  0.24634000000000003  0.00538  1.0000
  C   C90       1.0  0.9455700000000001  0.25499999999999995  0.9957899999999998  1.0000
  C   C91       1.0  0.8773199999999999  0.25869  0.9956499999999999  1.0000
  C   C92       1.0  0.14668  0.24226  0.00563  1.0000
  C   C93       1.0  0.54978  0.08947999999999998  0.71383  1.0000
  C   C94       1.0  0.6555500000000001  0.08603999999999998  0.70544  1.0000
  C   C95       1.0  0.73935  0.9473199999999999  0.9442299999999999  1.0000
  C   C96       1.0  0.021159999999999943  0.24087000000000003  0.9455599999999998  1.0000
  C   C97       1.0  0.95581  0.24523999999999993  0.94035  1.0000
  C   C98       1.0  0.74356  0.007389999999999972  0.93896  1.0000
  C   C99       1.0  0.6021999999999998  0.18328999999999998  0.7095699999999999  1.0000
  C   C100      1.0  0.9270300000000001  0.75922  0.00555  1.0000
  C   C101      1.0  0.0502999999999999  0.74078  0.9958999999999999  1.0000
  C   C102      1.0  0.11846999999999988  0.73684  0.9958999999999999  1.0000
  C   C103      1.0  0.8591800000000002  0.7637200000000001  0.00612  1.0000
  C   C104      1.0  0.16410000000000005  0.62438  0.71382  1.0000
  C   C105      1.0  0.05002000000000002  0.6195  0.70558  1.0000
  C   C106      1.0  0.20503999999999992  0.99713  0.9444099999999999  1.0000
  C   C107      1.0  0.9245100000000003  0.70489  0.94571  1.0000
  C   C108      1.0  0.98466  0.6952100000000001  0.9404899999999999  1.0000
  C   C109      1.0  0.19551  0.9317700000000002  0.93911  1.0000
  C   C110      1.0  0.10751999999999996  0.5264299999999998  0.7097799999999999  1.0000
  C   C111      1.0  0.50908  0.32858  0.50541  1.0000
  C   C112      1.0  0.49074000000000007  0.19566  0.49572  1.0000
  C   C113      1.0  0.48678  0.12742  0.49557  1.0000
  C   C114      1.0  0.51346  0.39689  0.50572  1.0000
  C   C115      1.0  0.3743500000000001  0.79985  0.21386  1.0000
  C   C116      1.0  0.36946  0.9055800000000002  0.20544  1.0000
  C   C117      1.0  0.74696  0.9894100000000001  0.44434  1.0000
  C   C118      1.0  0.45476000000000005  0.27131  0.44558999999999993  1.0000
  C   C119      1.0  0.4451300000000001  0.20594999999999997  0.44033999999999995  1.0000
  C   C120      1.0  0.68162  0.9936400000000002  0.43903999999999993  1.0000
  C   C121      1.0  0.2764  0.85225  0.20976  1.0000
  C   C122      1.0  0.99608  0.17671  0.50523  1.0000
  C   C123      1.0  0.005039999999999984  0.30009  0.49575  1.0000
  C   C124      1.0  0.008639999999999998  0.36814  0.49549  1.0000
  C   C125      1.0  0.9920100000000001  0.10866000000000005  0.50545  1.0000
  C   C126      1.0  0.8394600000000002  0.41394000000000003  0.2137  1.0000
  C   C127      1.0  0.83602  0.29988000000000004  0.2055  1.0000
  C   C128      1.0  0.6975300000000001  0.45508  0.44444  1.0000
  C   C129      1.0  0.9906700000000002  0.17431000000000005  0.44543  1.0000
  C   C130      1.0  0.9952600000000001  0.23449000000000003  0.4403099999999999  1.0000
  C   C131      1.0  0.75765  0.44554000000000005  0.43925999999999993  1.0000
  C   C132      1.0  0.9332600000000001  0.3574300000000001  0.20954  1.0000
  C   C133      1.0  0.3233  0.50392  0.49477  1.0000
  C   C134      1.0  0.19992000000000004  0.4949600000000001  0.50425  1.0000
  C   C135      1.0  0.1318699999999999  0.49137  0.5045199999999999  1.0000
  C   C136      1.0  0.39133999999999997  0.5079999999999999  0.49455999999999994  1.0000
  C   C137      1.0  0.08605999999999991  0.6605300000000001  0.7862899999999999  1.0000
  C   C138      1.0  0.20013000000000003  0.66398  0.79451  1.0000
  C   C139      1.0  0.044919999999999974  0.80247  0.55557  1.0000
  C   C140      1.0  0.3257  0.50933  0.55458  1.0000
  C   C141      1.0  0.26552  0.50475  0.5597  1.0000
  C   C142      1.0  0.054469999999999984  0.74235  0.56075  1.0000
  C   C143      1.0  0.1425899999999999  0.5667499999999999  0.7904699999999999  1.0000
  C   C144      1.0  0.17141999999999996  0.99092  0.49459999999999993  1.0000
  C   C145      1.0  0.30434  0.00926  0.50428  1.0000
  C   C146      1.0  0.37258  0.013219999999999997  0.50443  1.0000
  C   C147      1.0  0.10312  0.98655  0.49429  1.0000
  C   C148      1.0  0.7001600000000001  0.12566000000000005  0.78616  1.0000
  C   C149      1.0  0.59442  0.13053  0.79456  1.0000
  C   C150      1.0  0.51059  0.7530300000000001  0.5556499999999999  1.0000
  C   C151      1.0  0.22870000000000004  0.04523999999999999  0.55442  1.0000
  C   C152      1.0  0.29406  0.05485999999999993  0.5596599999999999  1.0000
  C   C153      1.0  0.5063700000000001  0.8183800000000002  0.56096  1.0000
  C   C154      1.0  0.64775  0.22360000000000002  0.79023  1.0000
  C   C155      1.0  0.25366  0.42156  0.99462  1.0000
  C   C156      1.0  0.24501  0.55444  0.00421  1.0000
  C   C157      1.0  0.24131  0.62269  0.00435  1.0000
  C   C158      1.0  0.2577500000000001  0.35332  0.99437  1.0000
  C   C159      1.0  0.41052  0.95022  0.28617  1.0000
  C   C160      1.0  0.41398  0.84446  0.29458  1.0000
  C   C161      1.0  0.55269  0.7606600000000001  0.05577  1.0000
  C   C162      1.0  0.25913  0.47884000000000004  0.05444  1.0000
  C   C163      1.0  0.25476  0.54419  0.059649999999999995  1.0000
  C   C164      1.0  0.49262  0.75645  0.06104999999999999  1.0000
  C   C165      1.0  0.31671000000000005  0.8978000000000003  0.29042  1.0000
  C   C166      1.0  0.7407900000000001  0.57297  0.9944599999999999  1.0000
  C   C167      1.0  0.7592200000000002  0.4497  0.0041  1.0000
  C   C168      1.0  0.76316  0.3815300000000001  0.0041  1.0000
  C   C169      1.0  0.73629  0.64082  0.99388  1.0000
  C   C170      1.0  0.8756300000000001  0.3359  0.28619  1.0000
  C   C171      1.0  0.88049  0.44998  0.29442  1.0000
  C   C172      1.0  0.50287  0.29497  0.0556  1.0000
  C   C173      1.0  0.79511  0.57549  0.054299999999999994  1.0000
  C   C174      1.0  0.8047900000000002  0.51535  0.05950999999999999  1.0000
  C   C175      1.0  0.56823  0.3045  0.06088999999999999  1.0000
  C   C176      1.0  0.97358  0.39249  0.29024  1.0000
  N   N1        1.0  0.16238999999999998  0.14363  0.81704  1.0000
  N   N2        1.0  0.6547000000000002  0.67347  0.81713  1.0000
  N   N3        1.0  0.42344000000000004  0.41245  0.31710999999999995  1.0000
  N   N4        1.0  0.89357  0.9045300000000001  0.31697  1.0000
  N   N5        1.0  0.5954800000000001  0.60644  0.68303  1.0000
  N   N6        1.0  0.08754999999999998  0.07655999999999999  0.6829  1.0000
  N   N7        1.0  0.35637  0.33762  0.18296  1.0000
  N   N8        1.0  0.8265300000000002  0.84531  0.18287  1.0000
  N   N9        1.0  0.5875800000000001  0.10638999999999993  0.6829199999999999  1.0000
  N   N10       1.0  0.09547000000000003  0.57665  0.68303  1.0000
  N   N11       1.0  0.32658  0.8376100000000002  0.18298  1.0000
  N   N12       1.0  0.8563500000000002  0.34532000000000007  0.18287999999999996  1.0000
  N   N13       1.0  0.15469000000000008  0.6436499999999999  0.81713  1.0000
  N   N14       1.0  0.6624000000000001  0.17342  0.81703  1.0000
  N   N15       1.0  0.39362  0.91242  0.31708  1.0000
  N   N16       1.0  0.92335  0.40453  0.31697999999999993  1.0000
  Cl  Cl1       1.0  0.9915300000000001  0.22439  0.36458  1.0000
  Cl  Cl2       1.0  0.010990000000000003  0.2524  0.63691  1.0000
  Cl  Cl3       1.0  0.37323000000000006  0.14046000000000006  0.36466  1.0000
  Cl  Cl4       1.0  0.62584  0.38420000000000004  0.63693  1.0000
  Cl  Cl5       1.0  0.8903500000000001  0.24131000000000008  0.86452  1.0000
  Cl  Cl6       1.0  0.13422  0.26123  0.13705  1.0000
  Cl  Cl7       1.0  0.9744500000000003  0.62332  0.86478  1.0000
  Cl  Cl8       1.0  0.0028499999999999966  0.876  0.13702  1.0000
  Cl  Cl9       1.0  0.87669  0.52554  0.13523  1.0000
  Cl  Cl10      1.0  0.6239999999999999  0.49716000000000005  0.86298  1.0000
  Cl  Cl11      1.0  0.25869  0.60964  0.13547  1.0000
  Cl  Cl12      1.0  0.23876999999999995  0.36580999999999997  0.8629699999999999  1.0000
  Cl  Cl13      1.0  0.27563999999999994  0.50848  0.6354299999999999  1.0000
  Cl  Cl14      1.0  0.24758  0.48901  0.36309  1.0000
  Cl  Cl15      1.0  0.35955  0.12677000000000002  0.63534  1.0000
  Cl  Cl16      1.0  0.11579000000000002  0.8741700000000001  0.36309  1.0000
  Cl  Cl17      1.0  0.75858  0.02537  0.13531  1.0000
  Cl  Cl18      1.0  0.73893  0.99736  0.8629099999999998  1.0000
  Cl  Cl19      1.0  0.3767700000000001  0.10961000000000001  0.13542  1.0000
  Cl  Cl20      1.0  0.12422000000000008  0.86591  0.86304  1.0000
  Cl  Cl21      1.0  0.8594900000000001  0.008559999999999972  0.63542  1.0000
  Cl  Cl22      1.0  0.61581  0.9889400000000003  0.36294  1.0000
  Cl  Cl23      1.0  0.77565  0.62685  0.63533  1.0000
  Cl  Cl24      1.0  0.7476  0.3742500000000001  0.36324  1.0000
  Cl  Cl25      1.0  0.87315  0.7243700000000001  0.36467  1.0000
  Cl  Cl26      1.0  0.12577000000000002  0.7524  0.63677  1.0000
  Cl  Cl27      1.0  0.4914400000000001  0.64054  0.3646  1.0000
  Cl  Cl28      1.0  0.51107  0.8841800000000001  0.63706  1.0000
  Cl  Cl29      1.0  0.47461  0.74141  0.86468  1.0000
  Cl  Cl30      1.0  0.50267  0.7610900000000002  0.1371  1.0000
  Cl  Cl31      1.0  0.39039  0.12323000000000009  0.8646  1.0000
  Cl  Cl32      1.0  0.63411  0.37579  0.13695  1.0000
  O   O1        1.0  0.8674  0.9498200000000001  0.44548  1.0000
  O   O2        1.0  0.92838  0.030220000000000004  0.56132  1.0000
  O   O3        1.0  0.54764  0.9658900000000002  0.43818  1.0000
  O   O4        1.0  0.9479000000000002  0.055319999999999994  0.44789999999999996  1.0000
  O   O5        1.0  0.57799  0.49625000000000014  0.44606  1.0000
  O   O6        1.0  0.63327  0.53088  0.56169  1.0000
  O   O7        1.0  0.8906000000000001  0.47245000000000004  0.4384  1.0000
  O   O8        1.0  0.50023  0.39251  0.44806999999999997  1.0000
  O   O9        1.0  0.24536  0.11803000000000005  0.94569  1.0000
  O   O10       1.0  0.28154  0.17856  0.06169  1.0000
  O   O11       1.0  0.22239999999999988  0.79785  0.9379899999999999  1.0000
  O   O12       1.0  0.14246999999999996  0.1977199999999999  0.9482099999999999  1.0000
  O   O13       1.0  0.7  0.82773  0.9452  1.0000
  O   O14       1.0  0.77997  0.88244  0.06107  1.0000
  O   O15       1.0  0.71536  0.14019  0.93788  1.0000
  O   O16       1.0  0.8058800000000002  0.7507700000000002  0.94869  1.0000
  O   O17       1.0  0.67228  0.80001  0.05480999999999999  1.0000
  O   O18       1.0  0.61757  0.72005  0.9389399999999999  1.0000
  O   O19       1.0  0.3598200000000001  0.7846400000000002  0.06212  1.0000
  O   O20       1.0  0.74923  0.69412  0.05131  1.0000
  O   O21       1.0  0.38198  0.2546400000000001  0.05431  1.0000
  O   O22       1.0  0.32144  0.21847  0.93832  1.0000
  O   O23       1.0  0.7021600000000001  0.27761  0.06202  1.0000
  O   O24       1.0  0.30229  0.35753  0.051809999999999995  1.0000
  O   O25       1.0  0.5502  0.6326  0.55453  1.0000
  O   O26       1.0  0.46978  0.57163  0.43869  1.0000
  O   O27       1.0  0.53412  0.9523600000000002  0.56182  1.0000
  O   O28       1.0  0.44467999999999996  0.5521  0.5520999999999999  1.0000
  O   O29       1.0  0.003750000000000007  0.92201  0.55394  1.0000
  O   O30       1.0  0.96912  0.8667400000000002  0.4383099999999999  1.0000
  O   O31       1.0  0.027560000000000025  0.6094  0.56161  1.0000
  O   O32       1.0  0.1075  0.9997699999999999  0.55193  1.0000
  O   O33       1.0  0.8821  0.29969  0.05437  1.0000
  O   O34       1.0  0.82145  0.21972  0.9384799999999999  1.0000
  O   O35       1.0  0.20211  0.28453  0.06173  1.0000
  O   O36       1.0  0.80189  0.19418  0.05153  1.0000
  O   O37       1.0  0.17225  0.7546400000000001  0.05480999999999999  1.0000
  O   O38       1.0  0.11747999999999988  0.71853  0.9388399999999999  1.0000
  O   O39       1.0  0.8600200000000002  0.77784  0.06236  1.0000
  O   O40       1.0  0.24946000000000004  0.8573400000000001  0.05166  1.0000
  O   O41       1.0  0.50388  0.13238  0.55431  1.0000
  O   O42       1.0  0.46923  0.07156999999999995  0.43865  1.0000
  O   O43       1.0  0.52755  0.45235000000000003  0.56178  1.0000
  O   O44       1.0  0.60746  0.052250000000000005  0.55182  1.0000
  O   O45       1.0  0.04959999999999992  0.4221499999999999  0.5541199999999998  1.0000
  O   O46       1.0  0.9695600000000001  0.36665000000000003  0.43823  1.0000
  O   O47       1.0  0.03393999999999997  0.10944000000000005  0.56169  1.0000
  O   O48       1.0  0.94466  0.49999000000000005  0.55218  1.0000
  O   O49       1.0  0.07785000000000003  0.45041  0.44588  1.0000
  O   O50       1.0  0.13336000000000006  0.53044  0.56177  1.0000
  O   O51       1.0  0.3905600000000001  0.46607  0.43832  1.0000
  O   O52       1.0  9.999999999964288e-06  0.55536  0.44783  1.0000
  O   O53       1.0  0.36761  0.9961299999999998  0.4456899999999999  1.0000
  O   O54       1.0  0.42844  0.030770000000000044  0.56135  1.0000
  O   O55       1.0  0.04763999999999995  0.9724500000000001  0.43821999999999994  1.0000
  O   O56       1.0  0.44775000000000004  0.8925500000000001  0.44818  1.0000
  O   O57       1.0  0.20030999999999993  0.6179000000000002  0.94563  1.0000
  O   O58       1.0  0.28029999999999994  0.67855  0.061529999999999994  1.0000
  O   O59       1.0  0.21547999999999995  0.29790000000000005  0.9382799999999999  1.0000
  O   O60       1.0  0.30582  0.69811  0.94848  1.0000
  O   O61       1.0  0.7453600000000001  0.32776  0.9452  1.0000
  O   O62       1.0  0.78148  0.38252000000000014  0.06116  1.0000
  O   O63       1.0  0.7221599999999999  0.63999  0.9376399999999999  1.0000
  O   O64       1.0  0.64266  0.25054  0.94835  1.0000
