data_image0
_chemical_formula_structural       Ni12H192C216N24O48
_chemical_formula_sum              "Ni12 H192 C216 N24 O48"
_cell_length_a       21.88776
_cell_length_b       21.88781
_cell_length_c       21.8873
_cell_angle_alpha    59.92838
_cell_angle_beta     59.92616999999999
_cell_angle_gamma    59.92694

_symmetry_space_group_name_H-M    'P 1'
_symmetry_Int_Tables_number       1

loop_
  _symmetry_equiv_pos_as_xyz
  'x,y,z'

loop_
  _atom_site_type_symbol
  _atom_site_label
  _atom_site_symmetry_multiplicity
  _atom_site_fract_x
  _atom_site_fract_y
  _atom_site_fract_z
  _atom_site_occupancy
  Ni  Ni1       1.0  0.14581  0.60413  0.8748  1.0000
  Ni  Ni2       1.0  0.6052100000000001  0.14512  0.37486  1.0000
  Ni  Ni3       1.0  0.3748699999999999  0.8753700000000001  0.60413  1.0000
  Ni  Ni4       1.0  0.8747199999999998  0.37534  0.14563  1.0000
  Ni  Ni5       1.0  0.37532999999999994  0.14564  0.87476  1.0000
  Ni  Ni6       1.0  0.8753299999999999  0.60416  0.37486  1.0000
  Ni  Ni7       1.0  0.14511000000000016  0.37482  0.60523  1.0000
  Ni  Ni8       1.0  0.6041300000000001  0.87479  0.14585  1.0000
  Ni  Ni9       1.0  0.6041200000000001  0.37487  0.87537  1.0000
  Ni  Ni10      1.0  0.14564000000000007  0.8747299999999999  0.37533  1.0000
  Ni  Ni11      1.0  0.8748  0.14582999999999996  0.60412  1.0000
  Ni  Ni12      1.0  0.37483  0.60521  0.14514  1.0000
  H   H1        1.0  0.17670000000000002  0.69716  0.64549  1.0000
  H   H2        1.0  0.20054999999999998  0.7162300000000001  0.73021  1.0000
  H   H3        1.0  0.17446000000000011  0.8556799999999998  0.67902  1.0000
  H   H4        1.0  0.035549999999999984  0.9782899999999999  0.80074  1.0000
  H   H5        1.0  0.05568000000000001  0.9779  0.71092  1.0000
  H   H6        1.0  0.12718999999999991  0.9693299999999999  0.73243  1.0000
  H   H7        1.0  0.02751000000000004  0.86033  0.9019  1.0000
  H   H8        1.0  0.06197999999999991  0.72105  0.9439100000000001  1.0000
  H   H9        1.0  0.6979900000000001  0.17668999999999999  0.4798200000000001  1.0000
  H   H10       1.0  0.71676  0.20042  0.35187  1.0000
  H   H11       1.0  0.85616  0.17450999999999997  0.28956  1.0000
  H   H12       1.0  0.9795100000000001  0.035120000000000005  0.18485  1.0000
  H   H13       1.0  0.97849  0.0556  0.25496  1.0000
  H   H14       1.0  0.97025  0.12688  0.17023  1.0000
  H   H15       1.0  0.8615800000000001  0.026809999999999997  0.20963  1.0000
  H   H16       1.0  0.72218  0.06107000000000001  0.2727  1.0000
  H   H17       1.0  0.4804999999999999  0.6454100000000002  0.69804  1.0000
  H   H18       1.0  0.3522000000000001  0.7311699999999999  0.71605  1.0000
  H   H19       1.0  0.29017999999999994  0.6798300000000002  0.85559  1.0000
  H   H20       1.0  0.18496000000000004  0.8009299999999999  0.97854  1.0000
  H   H21       1.0  0.25557  0.71138  0.97762  1.0000
  H   H22       1.0  0.17104000000000014  0.7325299999999999  0.96939  1.0000
  H   H23       1.0  0.21010999999999996  0.9023500000000001  0.8606  1.0000
  H   H24       1.0  0.27274000000000004  0.9445799999999999  0.72116  1.0000
  H   H25       1.0  0.64489  0.48081  0.17627  1.0000
  H   H26       1.0  0.7304  0.3525  0.20084  1.0000
  H   H27       1.0  0.6794  0.29057  0.17463  1.0000
  H   H28       1.0  0.8009300000000001  0.18582  0.03513  1.0000
  H   H29       1.0  0.7111200000000001  0.25591  0.05548  1.0000
  H   H30       1.0  0.73269  0.17112  0.12681  1.0000
  H   H31       1.0  0.90217  0.21048  0.02723  1.0000
  H   H32       1.0  0.94408  0.27295  0.061810000000000004  1.0000
  H   H33       1.0  0.48081000000000007  0.17622  0.64494  1.0000
  H   H34       1.0  0.35248999999999986  0.20086000000000004  0.73042  1.0000
  H   H35       1.0  0.29059000000000024  0.17460999999999996  0.67942  1.0000
  H   H36       1.0  0.18583  0.035139999999999984  0.80096  1.0000
  H   H37       1.0  0.25593  0.05546000000000004  0.71115  1.0000
  H   H38       1.0  0.17113999999999996  0.12681  0.73271  1.0000
  H   H39       1.0  0.21048000000000006  0.02724999999999993  0.9021900000000002  1.0000
  H   H40       1.0  0.27291  0.06185000000000003  0.94412  1.0000
  H   H41       1.0  0.6454100000000002  0.69801  0.48052  1.0000
  H   H42       1.0  0.73108  0.71613  0.3522  1.0000
  H   H43       1.0  0.67981  0.8556500000000001  0.29016  1.0000
  H   H44       1.0  0.80098  0.9785  0.18495  1.0000
  H   H45       1.0  0.7114099999999999  0.97768  0.25551  1.0000
  H   H46       1.0  0.73258  0.9694  0.17101  1.0000
  H   H47       1.0  0.9023500000000002  0.8605499999999999  0.21013  1.0000
  H   H48       1.0  0.9445200000000001  0.72111  0.27278  1.0000
  H   H49       1.0  0.1766600000000001  0.47982  0.69801  1.0000
  H   H50       1.0  0.20042999999999994  0.35187  0.71679  1.0000
  H   H51       1.0  0.17450000000000007  0.28954999999999986  0.85619  1.0000
  H   H52       1.0  0.035130000000000015  0.18483000000000005  0.9794699999999998  1.0000
  H   H53       1.0  0.055580000000000004  0.2549199999999999  0.97851  1.0000
  H   H54       1.0  0.12688000000000002  0.17021  0.97023  1.0000
  H   H55       1.0  0.026820000000000028  0.20963999999999997  0.86153  1.0000
  H   H56       1.0  0.061120000000000056  0.27272  0.72212  1.0000
  H   H57       1.0  0.69714  0.64552  0.1767  1.0000
  H   H58       1.0  0.7162700000000002  0.73018  0.20055  1.0000
  H   H59       1.0  0.85571  0.67901  0.17443  1.0000
  H   H60       1.0  0.9782900000000002  0.80075  0.03554  1.0000
  H   H61       1.0  0.97795  0.71093  0.05567  1.0000
  H   H62       1.0  0.96936  0.73246  0.12717  1.0000
  H   H63       1.0  0.8603199999999998  0.9019  0.02754  1.0000
  H   H64       1.0  0.72104  0.9439  0.06203999999999999  1.0000
  H   H65       1.0  0.698  0.48052  0.64544  1.0000
  H   H66       1.0  0.71613  0.35220999999999997  0.73108  1.0000
  H   H67       1.0  0.8556500000000001  0.29016999999999993  0.6798  1.0000
  H   H68       1.0  0.9785100000000001  0.18494000000000005  0.80098  1.0000
  H   H69       1.0  0.97768  0.25551000000000007  0.71142  1.0000
  H   H70       1.0  0.9694300000000002  0.17099999999999999  0.73256  1.0000
  H   H71       1.0  0.8605500000000003  0.21014000000000002  0.9023499999999999  1.0000
  H   H72       1.0  0.72112  0.2727899999999999  0.94453  1.0000
  H   H73       1.0  0.17619999999999997  0.64491  0.48081  1.0000
  H   H74       1.0  0.20085000000000006  0.7303399999999999  0.3525  1.0000
  H   H75       1.0  0.1746000000000001  0.6793699999999999  0.29058  1.0000
  H   H76       1.0  0.035139999999999956  0.80096  0.18579  1.0000
  H   H77       1.0  0.055440000000000024  0.71114  0.25589  1.0000
  H   H78       1.0  0.12678999999999999  0.73269  0.1711  1.0000
  H   H79       1.0  0.027240000000000052  0.90215  0.2105  1.0000
  H   H80       1.0  0.06185000000000004  0.9440399999999999  0.27295  1.0000
  H   H81       1.0  0.64553  0.17663000000000004  0.69719  1.0000
  H   H82       1.0  0.7301400000000001  0.20054999999999995  0.7163  1.0000
  H   H83       1.0  0.67901  0.17443  0.85573  1.0000
  H   H84       1.0  0.8007699999999999  0.03552999999999993  0.9782900000000001  1.0000
  H   H85       1.0  0.71095  0.05562999999999998  0.97797  1.0000
  H   H86       1.0  0.73244  0.12714999999999999  0.9694  1.0000
  H   H87       1.0  0.90189  0.02750999999999999  0.86031  1.0000
  H   H88       1.0  0.9438700000000001  0.06202000000000002  0.72103  1.0000
  H   H89       1.0  0.4798200000000001  0.69803  0.17663  1.0000
  H   H90       1.0  0.35187  0.7168  0.20043  1.0000
  H   H91       1.0  0.28956000000000004  0.8561799999999999  0.17449  1.0000
  H   H92       1.0  0.1848600000000001  0.9794599999999999  0.0351  1.0000
  H   H93       1.0  0.25495000000000007  0.97849  0.05557  1.0000
  H   H94       1.0  0.17022  0.97025  0.12686  1.0000
  H   H95       1.0  0.20966000000000018  0.8615299999999999  0.02681  1.0000
  H   H96       1.0  0.27272  0.72213  0.06111  1.0000
  H   H97       1.0  0.57382  0.05153999999999999  0.27001  1.0000
  H   H98       1.0  0.5495400000000001  0.03366  0.39832  1.0000
  H   H99       1.0  0.5753600000000001  0.8943  0.46043  1.0000
  H   H100      1.0  0.71481  0.7707099999999999  0.56504  1.0000
  H   H101      1.0  0.69428  0.77191  0.49480999999999997  1.0000
  H   H102      1.0  0.62299  0.78009  0.57958  1.0000
  H   H103      1.0  0.7232599999999998  0.88845  0.54041  1.0000
  H   H104      1.0  0.68903  0.027890000000000005  0.47752  1.0000
  H   H105      1.0  0.05267000000000001  0.57359  0.10427  1.0000
  H   H106      1.0  0.034019999999999995  0.54937  0.01918  1.0000
  H   H107      1.0  0.89455  0.57546  0.07072  1.0000
  H   H108      1.0  0.7715600000000001  0.7143900000000001  0.9494700000000001  1.0000
  H   H109      1.0  0.77221  0.69418  0.03921  1.0000
  H   H110      1.0  0.78071  0.62269  0.01771  1.0000
  H   H111      1.0  0.88933  0.7225699999999999  0.8481  1.0000
  H   H112      1.0  0.02866000000000009  0.6881099999999999  0.80571  1.0000
  H   H113      1.0  0.2687899999999999  0.10501000000000002  0.57423  1.0000
  H   H114      1.0  0.39748  0.019709999999999984  0.54917  1.0000
  H   H115      1.0  0.4593600000000001  0.07070999999999997  0.57545  1.0000
  H   H116      1.0  0.5642700000000003  0.9491199999999999  0.7148  1.0000
  H   H117      1.0  0.49411  0.03893  0.69458  1.0000
  H   H118      1.0  0.57887  0.017429999999999984  0.62318  1.0000
  H   H119      1.0  0.5396000000000001  0.8479  0.72269  1.0000
  H   H120      1.0  0.4772600000000001  0.80595  0.68802  1.0000
  H   H121      1.0  0.10455  0.26937  0.05183  1.0000
  H   H122      1.0  0.018869999999999987  0.39795  0.03379  1.0000
  H   H123      1.0  0.07020000000000005  0.45992  0.89425  1.0000
  H   H124      1.0  0.9490400000000002  0.56504  0.77139  1.0000
  H   H125      1.0  0.03867000000000001  0.49453999999999987  0.77224  1.0000
  H   H126      1.0  0.017400000000000016  0.57912  0.78046  1.0000
  H   H127      1.0  0.8477099999999999  0.53991  0.88929  1.0000
  H   H128      1.0  0.80547  0.47736999999999996  0.02872  1.0000
  H   H129      1.0  0.26996  0.5739  0.05149  1.0000
  H   H130      1.0  0.39831000000000005  0.54954  0.03364  1.0000
  H   H131      1.0  0.46042  0.57536  0.89429  1.0000
  H   H132      1.0  0.56502  0.71482  0.7707  1.0000
  H   H133      1.0  0.4947899999999999  0.6943099999999999  0.77191  1.0000
  H   H134      1.0  0.57958  0.62301  0.78005  1.0000
  H   H135      1.0  0.5403900000000001  0.7232600000000001  0.88845  1.0000
  H   H136      1.0  0.4775  0.68905  0.02789  1.0000
  H   H137      1.0  0.10425999999999999  0.05266000000000001  0.57363  1.0000
  H   H138      1.0  0.01921  0.03402999999999999  0.54935  1.0000
  H   H139      1.0  0.07071000000000002  0.8945599999999999  0.57546  1.0000
  H   H140      1.0  0.94943  0.77161  0.7144  1.0000
  H   H141      1.0  0.03918000000000001  0.7722399999999999  0.6942  1.0000
  H   H142      1.0  0.017709999999999892  0.7807200000000001  0.6227  1.0000
  H   H143      1.0  0.8480900000000005  0.88936  0.72259  1.0000
  H   H144      1.0  0.80572  0.028700000000000028  0.68811  1.0000
  H   H145      1.0  0.5742800000000001  0.26881  0.10499  1.0000
  H   H146      1.0  0.5491600000000002  0.39748  0.01973  1.0000
  H   H147      1.0  0.5754300000000001  0.45933999999999997  0.07073  1.0000
  H   H148      1.0  0.7147799999999999  0.56427  0.9491200000000001  1.0000
  H   H149      1.0  0.69457  0.4941  0.03893  1.0000
  H   H150      1.0  0.62317  0.57887  0.01744  1.0000
  H   H151      1.0  0.7226900000000002  0.53957  0.84791  1.0000
  H   H152      1.0  0.68801  0.47724  0.80596  1.0000
  H   H153      1.0  0.05175999999999998  0.10455  0.26933  1.0000
  H   H154      1.0  0.033780000000000004  0.01890000000000001  0.39792  1.0000
  H   H155      1.0  0.8942500000000001  0.07023999999999998  0.45989  1.0000
  H   H156      1.0  0.7713699999999994  0.94908  0.56505  1.0000
  H   H157      1.0  0.77222  0.038690000000000016  0.49454  1.0000
  H   H158      1.0  0.78041  0.017460000000000014  0.57912  1.0000
  H   H159      1.0  0.8892600000000002  0.8477500000000001  0.5399  1.0000
  H   H160      1.0  0.028680000000000015  0.80551  0.47735  1.0000
  H   H161      1.0  0.051499999999999914  0.2700000000000001  0.57385  1.0000
  H   H162      1.0  0.03366999999999999  0.39829  0.54956  1.0000
  H   H163      1.0  0.89431  0.46042000000000005  0.57534  1.0000
  H   H164      1.0  0.7706500000000001  0.56502  0.71482  1.0000
  H   H165      1.0  0.77191  0.49479  0.69426  1.0000
  H   H166      1.0  0.7800600000000001  0.57958  0.62299  1.0000
  H   H167      1.0  0.8883999999999999  0.54041  0.72327  1.0000
  H   H168      1.0  0.02783  0.47751999999999994  0.68909  1.0000
  H   H169      1.0  0.57358  0.1043  0.05267  1.0000
  H   H170      1.0  0.54935  0.019150000000000004  0.03411  1.0000
  H   H171      1.0  0.57543  0.07069999999999997  0.89462  1.0000
  H   H172      1.0  0.7143900000000003  0.9494599999999999  0.77161  1.0000
  H   H173      1.0  0.6941600000000001  0.039199999999999964  0.7723  1.0000
  H   H174      1.0  0.6226700000000001  0.017710000000000024  0.78078  1.0000
  H   H175      1.0  0.7225700000000002  0.84809  0.88937  1.0000
  H   H176      1.0  0.6881200000000001  0.80569  0.0287  1.0000
  H   H177      1.0  0.10498999999999997  0.57421  0.26882  1.0000
  H   H178      1.0  0.019649999999999983  0.54918  0.39747  1.0000
  H   H179      1.0  0.07067999999999998  0.57542  0.45935  1.0000
  H   H180      1.0  0.9491399999999999  0.71479  0.56425  1.0000
  H   H181      1.0  0.03894999999999996  0.69453  0.49408  1.0000
  H   H182      1.0  0.017439999999999987  0.62316  0.57885  1.0000
  H   H183      1.0  0.8478900000000001  0.7226900000000002  0.53961  1.0000
  H   H184      1.0  0.80592  0.68805  0.47727  1.0000
  H   H185      1.0  0.26936  0.05183  0.10457  1.0000
  H   H186      1.0  0.39790999999999993  0.03383  0.01888  1.0000
  H   H187      1.0  0.45988  0.89429  0.07024  1.0000
  H   H188      1.0  0.5650100000000001  0.7713799999999998  0.9491000000000002  1.0000
  H   H189      1.0  0.4944799999999999  0.77228  0.03871  1.0000
  H   H190      1.0  0.57908  0.78046  0.01746  1.0000
  H   H191      1.0  0.5399000000000004  0.8892799999999998  0.84775  1.0000
  H   H192      1.0  0.47734999999999994  0.028690000000000025  0.8055  1.0000
  C   C1        1.0  0.17109000000000008  0.56335  0.7596  1.0000
  C   C2        1.0  0.1769799999999999  0.58549  0.68023  1.0000
  C   C3        1.0  0.17728  0.6573600000000002  0.62926  1.0000
  C   C4        1.0  0.16315000000000007  0.7508499999999999  0.76579  1.0000
  C   C5        1.0  0.1474799999999999  0.82784  0.73792  1.0000
  C   C6        1.0  0.09727999999999999  0.86978  0.78628  1.0000
  C   C7        1.0  0.07741000000000003  0.95331  0.7569  1.0000
  C   C8        1.0  0.06646000000000016  0.83063  0.86181  1.0000
  C   C9        1.0  0.08493000000000009  0.75341  0.88587  1.0000
  C   C10       1.0  0.56401  0.17098000000000002  0.50543  1.0000
  C   C11       1.0  0.5862900000000002  0.17687  0.55664  1.0000
  C   C12       1.0  0.6580999999999999  0.17728  0.53533  1.0000
  C   C13       1.0  0.75152  0.16285999999999995  0.31923  1.0000
  C   C14       1.0  0.8284800000000001  0.14732  0.28566  1.0000
  C   C15       1.0  0.87063  0.09693  0.24578  1.0000
  C   C16       1.0  0.95418  0.07711999999999998  0.21168  1.0000
  C   C17       1.0  0.83168  0.06587  0.24036  1.0000
  C   C18       1.0  0.75446  0.08419000000000001  0.27521  1.0000
  C   C19       1.0  0.5057700000000002  0.7596300000000001  0.56404  1.0000
  C   C20       1.0  0.55714  0.68023  0.58629  1.0000
  C   C21       1.0  0.5360000000000003  0.62922  0.65813  1.0000
  C   C22       1.0  0.3195099999999999  0.76665  0.75075  1.0000
  C   C23       1.0  0.28615000000000007  0.7387  0.82776  1.0000
  C   C24       1.0  0.2462400000000001  0.7869199999999998  0.86979  1.0000
  C   C25       1.0  0.2121600000000001  0.75726  0.95333  1.0000
  C   C26       1.0  0.24077  0.8624199999999999  0.83075  1.0000
  C   C27       1.0  0.2753900000000001  0.88657  0.75349  1.0000
  C   C28       1.0  0.75904  0.50586  0.17113  1.0000
  C   C29       1.0  0.6796100000000002  0.55724  0.17694  1.0000
  C   C30       1.0  0.62871  0.53616  0.17712  1.0000
  C   C31       1.0  0.7660600000000001  0.31988  0.16329  1.0000
  C   C32       1.0  0.7382500000000001  0.28653  0.14755  1.0000
  C   C33       1.0  0.7865400000000001  0.24664  0.09716  1.0000
  C   C34       1.0  0.7571399999999999  0.2126  0.07714  1.0000
  C   C35       1.0  0.86203  0.24114  0.06632  1.0000
  C   C36       1.0  0.8860500000000001  0.27571  0.08486  1.0000
  C   C37       1.0  0.5058599999999999  0.1711  0.75909  1.0000
  C   C38       1.0  0.5572400000000001  0.1769  0.67966  1.0000
  C   C39       1.0  0.5361500000000001  0.17709  0.62875  1.0000
  C   C40       1.0  0.31986999999999993  0.16330000000000003  0.7661  1.0000
  C   C41       1.0  0.28653  0.14754999999999996  0.73828  1.0000
  C   C42       1.0  0.24665000000000004  0.09715999999999995  0.78656  1.0000
  C   C43       1.0  0.21262  0.07712999999999998  0.75716  1.0000
  C   C44       1.0  0.24113  0.06634000000000001  0.86206  1.0000
  C   C45       1.0  0.27569  0.08489  0.88609  1.0000
  C   C46       1.0  0.7596199999999999  0.5640200000000001  0.50578  1.0000
  C   C47       1.0  0.68022  0.58627  0.55715  1.0000
  C   C48       1.0  0.6292100000000003  0.65811  0.53602  1.0000
  C   C49       1.0  0.76659  0.75079  0.31953  1.0000
  C   C50       1.0  0.7386700000000003  0.8277999999999999  0.28615  1.0000
  C   C51       1.0  0.7869200000000001  0.86979  0.24624999999999997  1.0000
  C   C52       1.0  0.7573  0.95333  0.21214  1.0000
  C   C53       1.0  0.8624100000000002  0.8307300000000001  0.24079999999999996  1.0000
  C   C54       1.0  0.8865299999999999  0.75347  0.27543  1.0000
  C   C55       1.0  0.17097  0.50541  0.564  1.0000
  C   C56       1.0  0.17684999999999998  0.55662  0.58629  1.0000
  C   C57       1.0  0.17727000000000007  0.53532  0.6581  1.0000
  C   C58       1.0  0.16286000000000006  0.31923999999999997  0.75153  1.0000
  C   C59       1.0  0.14732  0.28566  0.82849  1.0000
  C   C60       1.0  0.09692000000000002  0.24577999999999997  0.87062  1.0000
  C   C61       1.0  0.07710999999999991  0.21167  0.9541700000000001  1.0000
  C   C62       1.0  0.06587999999999995  0.24037999999999998  0.83166  1.0000
  C   C63       1.0  0.08421000000000002  0.27522  0.75443  1.0000
  C   C64       1.0  0.5633  0.75962  0.17113  1.0000
  C   C65       1.0  0.58547  0.68026  0.17698  1.0000
  C   C66       1.0  0.65733  0.62929  0.17729  1.0000
  C   C67       1.0  0.7508699999999998  0.76578  0.16315  1.0000
  C   C68       1.0  0.8278600000000002  0.73791  0.14747  1.0000
  C   C69       1.0  0.8697999999999999  0.78627  0.09727  1.0000
  C   C70       1.0  0.95333  0.75691  0.07739  1.0000
  C   C71       1.0  0.8306300000000001  0.86181  0.06648  1.0000
  C   C72       1.0  0.7534  0.88586  0.08497  1.0000
  C   C73       1.0  0.56401  0.5057600000000001  0.75964  1.0000
  C   C74       1.0  0.58626  0.55715  0.68025  1.0000
  C   C75       1.0  0.6581000000000002  0.53602  0.62924  1.0000
  C   C76       1.0  0.75079  0.31954  0.76659  1.0000
  C   C77       1.0  0.82779  0.28615  0.73867  1.0000
  C   C78       1.0  0.8698000000000001  0.24624999999999994  0.78691  1.0000
  C   C79       1.0  0.9533399999999999  0.21213  0.75729  1.0000
  C   C80       1.0  0.83073  0.2408  0.8624  1.0000
  C   C81       1.0  0.75347  0.27543  0.88653  1.0000
  C   C82       1.0  0.17112000000000008  0.75906  0.50584  1.0000
  C   C83       1.0  0.17692999999999998  0.67963  0.55721  1.0000
  C   C84       1.0  0.17708  0.62873  0.53614  1.0000
  C   C85       1.0  0.16329000000000013  0.76603  0.31988  1.0000
  C   C86       1.0  0.14753  0.73822  0.28653  1.0000
  C   C87       1.0  0.09716000000000004  0.78652  0.24664  1.0000
  C   C88       1.0  0.07712999999999996  0.75714  0.21259  1.0000
  C   C89       1.0  0.06632999999999997  0.86201  0.24115  1.0000
  C   C90       1.0  0.08489000000000016  0.8860299999999999  0.27571  1.0000
  C   C91       1.0  0.7596  0.17112  0.56334  1.0000
  C   C92       1.0  0.68024  0.17697  0.5855  1.0000
  C   C93       1.0  0.62929  0.17723999999999998  0.65738  1.0000
  C   C94       1.0  0.7657599999999999  0.16315  0.75088  1.0000
  C   C95       1.0  0.7379  0.14747  0.82788  1.0000
  C   C96       1.0  0.7862700000000001  0.09726999999999998  0.86981  1.0000
  C   C97       1.0  0.75691  0.07738000000000003  0.9533499999999999  1.0000
  C   C98       1.0  0.8618  0.06645999999999999  0.83063  1.0000
  C   C99       1.0  0.88584  0.08494999999999996  0.7534  1.0000
  C   C100      1.0  0.50539  0.56403  0.171  1.0000
  C   C101      1.0  0.55661  0.58631  0.17687  1.0000
  C   C102      1.0  0.53531  0.65813  0.17726  1.0000
  C   C103      1.0  0.31922999999999996  0.7515199999999999  0.16287  1.0000
  C   C104      1.0  0.28566  0.8284900000000001  0.14732  1.0000
  C   C105      1.0  0.24578  0.8706199999999998  0.09693  1.0000
  C   C106      1.0  0.21168000000000006  0.9541699999999999  0.0771  1.0000
  C   C107      1.0  0.24037999999999998  0.83165  0.06588  1.0000
  C   C108      1.0  0.27522  0.75442  0.08422  1.0000
  C   C109      1.0  0.5796600000000001  0.1853  0.24458000000000002  1.0000
  C   C110      1.0  0.5736900000000001  0.16321  0.19327  1.0000
  C   C111      1.0  0.5732  0.09143999999999997  0.21451  1.0000
  C   C112      1.0  0.5870699999999999  0.99884  0.43097  1.0000
  C   C113      1.0  0.60259  0.9218799999999999  0.4644  1.0000
  C   C114      1.0  0.65304  0.8796200000000001  0.50422  1.0000
  C   C115      1.0  0.67281  0.79608  0.53819  1.0000
  C   C116      1.0  0.6841499999999999  0.91846  0.5097  1.0000
  C   C117      1.0  0.6658300000000003  0.9956999999999998  0.47498  1.0000
  C   C118      1.0  0.18664999999999998  0.5788900000000001  0.9900099999999998  1.0000
  C   C119      1.0  0.16438000000000003  0.57334  0.06935  1.0000
  C   C120      1.0  0.09253000000000004  0.57304  0.12040999999999999  1.0000
  C   C121      1.0  0.9992700000000001  0.5867999999999999  0.9837400000000001  1.0000
  C   C122      1.0  0.92228  0.60247  0.0118  1.0000
  C   C123      1.0  0.8801699999999999  0.6527100000000001  0.9636099999999999  1.0000
  C   C124      1.0  0.7966499999999996  0.6725300000000001  0.99321  1.0000
  C   C125      1.0  0.9191900000000003  0.6835699999999999  0.88804  1.0000
  C   C126      1.0  0.9964300000000001  0.6651099999999999  0.86378  1.0000
  C   C127      1.0  0.24399999999999994  0.99094  0.57898  1.0000
  C   C128      1.0  0.19242000000000004  0.07027000000000001  0.57348  1.0000
  C   C129      1.0  0.21342000000000005  0.12119000000000002  0.57341  1.0000
  C   C130      1.0  0.43013999999999997  0.98403  0.5867  1.0000
  C   C131      1.0  0.4634500000000001  0.011849999999999986  0.60249  1.0000
  C   C132      1.0  0.50337  0.96355  0.65283  1.0000
  C   C133      1.0  0.5374200000000001  0.9929399999999999  0.67287  1.0000
  C   C134      1.0  0.5089300000000001  0.8880499999999999  0.68361  1.0000
  C   C135      1.0  0.47442000000000023  0.864  0.66502  1.0000
  C   C136      1.0  0.99033  0.24435000000000004  0.18582  1.0000
  C   C137      1.0  0.06961999999999999  0.19276000000000001  0.16357  1.0000
  C   C138      1.0  0.12068000000000002  0.21385999999999997  0.09174  1.0000
  C   C139      1.0  0.9833799999999997  0.4306099999999999  0.9991100000000002  1.0000
  C   C140      1.0  0.011339999999999932  0.4639400000000001  0.9221  1.0000
  C   C141      1.0  0.9631200000000004  0.50383  0.88008  1.0000
  C   C142      1.0  0.99274  0.53793  0.79654  1.0000
  C   C143      1.0  0.8876299999999998  0.50929  0.91914  1.0000
  C   C144      1.0  0.86347  0.47472  0.9964000000000001  1.0000
  C   C145      1.0  0.24455000000000005  0.57966  0.18528  1.0000
  C   C146      1.0  0.19324000000000005  0.5737  0.1632  1.0000
  C   C147      1.0  0.21449  0.57324  0.0914  1.0000
  C   C148      1.0  0.43096  0.58707  0.99884  1.0000
  C   C149      1.0  0.4644000000000002  0.60258  0.92187  1.0000
  C   C150      1.0  0.5042199999999998  0.6530300000000001  0.87961  1.0000
  C   C151      1.0  0.5381799999999997  0.6728200000000001  0.79607  1.0000
  C   C152      1.0  0.5096900000000001  0.6841499999999999  0.9184599999999999  1.0000
  C   C153      1.0  0.4749700000000001  0.6658300000000001  0.9957099999999999  1.0000
  C   C154      1.0  0.9900200000000001  0.18666  0.57888  1.0000
  C   C155      1.0  0.06934999999999997  0.16438  0.57334  1.0000
  C   C156      1.0  0.12040000000000005  0.09252  0.57307  1.0000
  C   C157      1.0  0.9837499999999999  0.99929  0.58679  1.0000
  C   C158      1.0  0.01180000000000009  0.9222999999999999  0.60246  1.0000
  C   C159      1.0  0.9635999999999998  0.8802100000000002  0.65271  1.0000
  C   C160      1.0  0.99319  0.79668  0.67253  1.0000
  C   C161      1.0  0.8880300000000001  0.9192200000000001  0.68358  1.0000
  C   C162      1.0  0.8637799999999999  0.99646  0.66511  1.0000
  C   C163      1.0  0.57898  0.24402000000000004  0.99097  1.0000
  C   C164      1.0  0.57349  0.19244  0.07029  1.0000
  C   C165      1.0  0.5734299999999999  0.21343999999999996  0.12119  1.0000
  C   C166      1.0  0.58667  0.43014  0.98404  1.0000
  C   C167      1.0  0.60247  0.46343999999999996  0.01186  1.0000
  C   C168      1.0  0.6528100000000001  0.50337  0.96356  1.0000
  C   C169      1.0  0.67285  0.53741  0.99296  1.0000
  C   C170      1.0  0.6836  0.5089099999999999  0.88806  1.0000
  C   C171      1.0  0.665  0.47442  0.86401  1.0000
  C   C172      1.0  0.1858000000000001  0.99036  0.24432  1.0000
  C   C173      1.0  0.16355  0.06964999999999999  0.19275  1.0000
  C   C174      1.0  0.09170000000000007  0.12069  0.21383  1.0000
  C   C175      1.0  0.9990900000000004  0.9834099999999999  0.4306  1.0000
  C   C176      1.0  0.9220900000000001  0.011370000000000019  0.46393  1.0000
  C   C177      1.0  0.8800499999999999  0.9631600000000001  0.50383  1.0000
  C   C178      1.0  0.7965100000000003  0.99278  0.53794  1.0000
  C   C179      1.0  0.9191100000000002  0.88767  0.50928  1.0000
  C   C180      1.0  0.99637  0.8634999999999999  0.47471  1.0000
  C   C181      1.0  0.18527000000000002  0.24455  0.57968  1.0000
  C   C182      1.0  0.16319  0.19326  0.57369  1.0000
  C   C183      1.0  0.09139999999999997  0.21451000000000003  0.57321  1.0000
  C   C184      1.0  0.9988300000000001  0.43096  0.58709  1.0000
  C   C185      1.0  0.92187  0.4644  0.60258  1.0000
  C   C186      1.0  0.8795900000000001  0.50422  0.65303  1.0000
  C   C187      1.0  0.79605  0.53818  0.67281  1.0000
  C   C188      1.0  0.9184199999999995  0.5097100000000001  0.68417  1.0000
  C   C189      1.0  0.9956600000000002  0.4749800000000001  0.66587  1.0000
  C   C190      1.0  0.57888  0.99005  0.18667  1.0000
  C   C191      1.0  0.57332  0.06938000000000001  0.16438  1.0000
  C   C192      1.0  0.5730400000000002  0.12044000000000002  0.09253  1.0000
  C   C193      1.0  0.5867799999999999  0.98372  0.9993400000000001  1.0000
  C   C194      1.0  0.60244  0.011779999999999994  0.9223500000000001  1.0000
  C   C195      1.0  0.65269  0.9635899999999998  0.88024  1.0000
  C   C196      1.0  0.67252  0.9931999999999997  0.79671  1.0000
  C   C197      1.0  0.68357  0.88802  0.91924  1.0000
  C   C198      1.0  0.6651100000000001  0.8637599999999998  0.9964800000000001  1.0000
  C   C199      1.0  0.9909400000000002  0.57897  0.24400000000000002  1.0000
  C   C200      1.0  0.07028  0.57347  0.19243  1.0000
  C   C201      1.0  0.12117999999999997  0.5734  0.21344  1.0000
  C   C202      1.0  0.9839899999999999  0.5867  0.43014  1.0000
  C   C203      1.0  0.011819999999999973  0.60248  0.46343999999999996  1.0000
  C   C204      1.0  0.9635300000000001  0.65282  0.50337  1.0000
  C   C205      1.0  0.9929599999999998  0.67284  0.5374  1.0000
  C   C206      1.0  0.8880300000000001  0.6836199999999999  0.50894  1.0000
  C   C207      1.0  0.86397  0.66504  0.4744300000000001  1.0000
  C   C208      1.0  0.24432999999999994  0.18585000000000002  0.99037  1.0000
  C   C209      1.0  0.19276000000000001  0.16359  0.06966  1.0000
  C   C210      1.0  0.21384000000000003  0.09174999999999998  0.12070000000000002  1.0000
  C   C211      1.0  0.4305800000000001  0.99912  0.9834100000000001  1.0000
  C   C212      1.0  0.46392  0.9221199999999999  0.01137  1.0000
  C   C213      1.0  0.5038099999999999  0.8800800000000001  0.96316  1.0000
  C   C214      1.0  0.5379000000000002  0.79654  0.99279  1.0000
  C   C215      1.0  0.50928  0.91913  0.88766  1.0000
  C   C216      1.0  0.47470000000000023  0.9963899999999998  0.8635  1.0000
  N   N1        1.0  0.13187000000000004  0.71386  0.8386  1.0000
  N   N2        1.0  0.7147699999999998  0.13120000000000004  0.31501  1.0000
  N   N3        1.0  0.31506999999999996  0.8394099999999999  0.71385  1.0000
  N   N4        1.0  0.8388100000000001  0.31545  0.13192  1.0000
  N   N5        1.0  0.31543  0.13194  0.83884  1.0000
  N   N6        1.0  0.83935  0.71387  0.3151  1.0000
  N   N7        1.0  0.13123  0.3150200000000001  0.71476  1.0000
  N   N8        1.0  0.71387  0.83859  0.1319  1.0000
  N   N9        1.0  0.71386  0.31511000000000006  0.83935  1.0000
  N   N10       1.0  0.13195000000000007  0.8387699999999999  0.31545  1.0000
  N   N11       1.0  0.8385600000000001  0.13189000000000003  0.71387  1.0000
  N   N12       1.0  0.31501000000000007  0.71475  0.13124  1.0000
  N   N13       1.0  0.6187700000000002  0.035519999999999975  0.43524  1.0000
  N   N14       1.0  0.03612000000000009  0.6181400000000001  0.9109099999999999  1.0000
  N   N15       1.0  0.43466  0.9112599999999998  0.61797  1.0000
  N   N16       1.0  0.9106200000000001  0.43506999999999996  0.03603  1.0000
  N   N17       1.0  0.43522000000000005  0.61877  0.03552  1.0000
  N   N18       1.0  0.9109200000000001  0.03615  0.61812  1.0000
  N   N19       1.0  0.6179399999999999  0.43467  0.91127  1.0000
  N   N20       1.0  0.03601000000000002  0.91065  0.43505  1.0000
  N   N21       1.0  0.03549000000000001  0.43521999999999994  0.61881  1.0000
  N   N22       1.0  0.61813  0.91089  0.03618  1.0000
  N   N23       1.0  0.9112100000000002  0.61799  0.43466  1.0000
  N   N24       1.0  0.43504  0.03603000000000004  0.9106399999999999  1.0000
  O   O1        1.0  0.17721  0.6121599999999998  0.77227  1.0000
  O   O2        1.0  0.15801999999999994  0.5048299999999999  0.80848  1.0000
  O   O3        1.0  0.6127599999999999  0.17710999999999996  0.43771  1.0000
  O   O4        1.0  0.50546  0.15792999999999996  0.52839  1.0000
  O   O5        1.0  0.43805999999999995  0.77259  0.61277  1.0000
  O   O6        1.0  0.52871  0.80824  0.50532  1.0000
  O   O7        1.0  0.77195  0.43813  0.17737  1.0000
  O   O8        1.0  0.8078100000000001  0.52865  0.15803  1.0000
  O   O9        1.0  0.43810000000000004  0.17742000000000002  0.77198  1.0000
  O   O10       1.0  0.52864  0.15796000000000002  0.80788  1.0000
  O   O11       1.0  0.77257  0.61274  0.43806  1.0000
  O   O12       1.0  0.80824  0.50531  0.52872  1.0000
  O   O13       1.0  0.17713  0.43768000000000007  0.61273  1.0000
  O   O14       1.0  0.15791999999999998  0.52837  0.50545  1.0000
  O   O15       1.0  0.61207  0.77227  0.17734  1.0000
  O   O16       1.0  0.5047900000000002  0.8085  0.15802  1.0000
  O   O17       1.0  0.6127400000000001  0.4380499999999999  0.7726  1.0000
  O   O18       1.0  0.50528  0.52868  0.80826  1.0000
  O   O19       1.0  0.17738000000000015  0.77197  0.43809  1.0000
  O   O20       1.0  0.15804999999999983  0.8078200000000001  0.52862  1.0000
  O   O21       1.0  0.7722600000000001  0.17727000000000004  0.61212  1.0000
  O   O22       1.0  0.8084700000000001  0.15806999999999996  0.50479  1.0000
  O   O23       1.0  0.43766  0.61277  0.17714  1.0000
  O   O24       1.0  0.5283300000000001  0.50548  0.15795  1.0000
  O   O25       1.0  0.57396  0.13631000000000001  0.31213  1.0000
  O   O26       1.0  0.5923499999999999  0.24401  0.2219  1.0000
  O   O27       1.0  0.13789000000000004  0.5726199999999999  0.97741  1.0000
  O   O28       1.0  0.24523999999999993  0.59178  0.9411700000000001  1.0000
  O   O29       1.0  0.3116  0.9781600000000001  0.57305  1.0000
  O   O30       1.0  0.22151000000000004  0.94221  0.59144  1.0000
  O   O31       1.0  0.9775100000000001  0.31191  0.13677  1.0000
  O   O32       1.0  0.9417000000000001  0.22180999999999998  0.24479999999999996  1.0000
  O   O33       1.0  0.31209000000000003  0.57399  0.13628  1.0000
  O   O34       1.0  0.2218900000000001  0.59232  0.24402  1.0000
  O   O35       1.0  0.97741  0.13788000000000003  0.57265  1.0000
  O   O36       1.0  0.9412000000000001  0.24528  0.59171  1.0000
  O   O37       1.0  0.57314  0.31159000000000003  0.97818  1.0000
  O   O38       1.0  0.5913500000000003  0.22155999999999998  0.9422599999999999  1.0000
  O   O39       1.0  0.13670999999999991  0.97752  0.31186  1.0000
  O   O40       1.0  0.24481000000000014  0.94175  0.2218  1.0000
  O   O41       1.0  0.13626  0.31209  0.57401  1.0000
  O   O42       1.0  0.24398  0.22189  0.59236  1.0000
  O   O43       1.0  0.57268  0.9774000000000002  0.13789  1.0000
  O   O44       1.0  0.5917099999999998  0.94124  0.24529000000000004  1.0000
  O   O45       1.0  0.97813  0.57307  0.31159  1.0000
  O   O46       1.0  0.94223  0.59142  0.22148  1.0000
  O   O47       1.0  0.3119199999999999  0.13684  0.97755  1.0000
  O   O48       1.0  0.22176  0.24480000000000005  0.94173  1.0000
