data_image0
_chemical_formula_structural       Zr6H34C48N6O32
_chemical_formula_sum              "Zr6 H34 C48 N6 O32"
_cell_length_a       14.79325
_cell_length_b       14.81329
_cell_length_c       14.77244
_cell_angle_alpha    60.02156000000001
_cell_angle_beta     60.11939999999999
_cell_angle_gamma    59.94050000000001

_symmetry_space_group_name_H-M    'P 1'
_symmetry_Int_Tables_number       1

loop_
  _symmetry_equiv_pos_as_xyz
  'x,y,z'

loop_
  _atom_site_type_symbol
  _atom_site_label
  _atom_site_symmetry_multiplicity
  _atom_site_fract_x
  _atom_site_fract_y
  _atom_site_fract_z
  _atom_site_occupancy
  Zr  Zr1       1.0  0.3807800000000002  0.3789599999999999  0.61815  1.0000
  Zr  Zr2       1.0  0.6193399999999999  0.38069  0.61666  1.0000
  Zr  Zr3       1.0  0.3804199999999999  0.6165099999999998  0.62205  1.0000
  Zr  Zr4       1.0  0.61673  0.62125  0.38211  1.0000
  Zr  Zr5       1.0  0.37840000000000007  0.62135  0.3822  1.0000
  Zr  Zr6       1.0  0.61889  0.38471999999999995  0.37721000000000005  1.0000
  H   H1        1.0  0.3549900000000002  0.9177299999999998  0.07915  1.0000
  H   H2        1.0  0.9136  0.35871999999999993  0.65065  1.0000
  H   H3        1.0  0.36287000000000014  0.6425199999999998  0.90792  1.0000
  H   H4        1.0  0.91596  0.07977  0.35434  1.0000
  H   H5        1.0  0.64256  0.35817  0.09149  1.0000
  H   H6        1.0  0.07644  0.3582399999999999  0.9136700000000002  1.0000
  H   H7        1.0  0.64175  0.9084499999999998  0.3578200000000001  1.0000
  H   H8        1.0  0.3635999999999999  0.08606999999999997  0.64237  1.0000
  H   H9        1.0  0.35755000000000015  0.9148699999999997  0.65231  1.0000
  H   H10       1.0  0.9073300000000002  0.36558999999999997  0.08402  1.0000
  H   H11       1.0  0.08944000000000016  0.6446999999999998  0.9071000000000001  1.0000
  H   H12       1.0  0.08487000000000006  0.9089999999999997  0.3631500000000001  1.0000
  H   H13       1.0  0.35595000000000004  0.6515299999999999  0.07683  1.0000
  H   H14       1.0  0.9030700000000002  0.0861  0.64807  1.0000
  H   H15       1.0  0.9082900000000002  0.6437699999999997  0.35630000000000006  1.0000
  H   H16       1.0  0.36338  0.08588  0.90784  1.0000
  H   H17       1.0  0.08369  0.3650599999999999  0.64374  1.0000
  H   H18       1.0  0.6496499999999997  0.9033499999999999  0.08413000000000001  1.0000
  H   H19       1.0  0.40764999999999996  0.40183  0.78168  1.0000
  H   H20       1.0  0.4050400000000002  0.4088299999999999  0.40354000000000007  1.0000
  H   H21       1.0  0.7812200000000005  0.4085099999999999  0.40391  1.0000
  H   H22       1.0  0.4023000000000001  0.7821499999999998  0.4102000000000001  1.0000
  H   H23       1.0  0.1466500000000001  0.6778899999999999  0.3310600000000001  1.0000
  H   H24       1.0  0.03812000000000003  0.73193  0.28109  1.0000
  H   H25       1.0  0.67822  0.14512999999999995  0.33311  1.0000
  H   H26       1.0  0.73553  0.03354  0.28793  1.0000
  H   H27       1.0  0.15156000000000014  0.8503899999999998  0.6717  1.0000
  H   H28       1.0  0.052400000000000085  0.9624999999999998  0.71576  1.0000
  H   H29       1.0  0.6734100000000003  0.1491499999999999  0.8467700000000002  1.0000
  H   H30       1.0  0.7156900000000002  0.05324999999999996  0.9602400000000001  1.0000
  H   H31       1.0  0.8442600000000001  0.6786599999999998  0.14574  1.0000
  H   H32       1.0  0.9449700000000001  0.7344799999999998  0.03433  1.0000
  H   H33       1.0  0.6833900000000004  0.33904999999999996  0.83857  1.0000
  H   H34       1.0  0.7393100000000001  0.29367999999999994  0.93907  1.0000
  C   C1        1.0  0.5947000000000001  0.036640000000000006  0.94743  1.0000
  C   C2        1.0  0.043200000000000134  0.5879499999999998  0.41325  1.0000
  C   C3        1.0  0.4209800000000001  0.9512999999999999  0.0417  1.0000
  C   C4        1.0  0.95013  0.42182  0.5858  1.0000
  C   C5        1.0  0.4236399999999999  0.5810699999999999  0.94923  1.0000
  C   C6        1.0  0.9504200000000002  0.04295999999999999  0.41987  1.0000
  C   C7        1.0  0.58222  0.42082999999999987  0.04978  1.0000
  C   C8        1.0  0.03774999999999996  0.95053  0.59262  1.0000
  C   C9        1.0  0.04190000000000005  0.42141999999999974  0.9502600000000002  1.0000
  C   C10       1.0  0.5817900000000003  0.9477499999999998  0.42042  1.0000
  C   C11       1.0  0.9553000000000001  0.58808  0.04298  1.0000
  C   C12       1.0  0.42428  0.04571999999999999  0.5809  1.0000
  C   C13       1.0  0.42053999999999997  0.9513099999999998  0.58676  1.0000
  C   C14       1.0  0.94895  0.42565999999999987  0.044130000000000016  1.0000
  C   C15       1.0  0.58722  0.04349000000000001  0.41357  1.0000
  C   C16       1.0  0.04918999999999996  0.5834  0.94673  1.0000
  C   C17       1.0  0.58839  0.41492000000000007  0.95449  1.0000
  C   C18       1.0  0.04311000000000001  0.9486599999999998  0.42532000000000003  1.0000
  C   C19       1.0  0.41947000000000007  0.5865  0.0422  1.0000
  C   C20       1.0  0.9434999999999999  0.046650000000000004  0.5858  1.0000
  C   C21       1.0  0.94718  0.5833799999999998  0.41933  1.0000
  C   C22       1.0  0.42635999999999996  0.043429999999999955  0.94684  1.0000
  C   C23       1.0  0.043949999999999996  0.42540999999999995  0.5815  1.0000
  C   C24       1.0  0.5876300000000001  0.9434  0.04429  1.0000
  C   C25       1.0  0.5074899999999999  0.18946999999999997  0.79892  1.0000
  C   C26       1.0  0.5115000000000001  0.08803999999999991  0.8975800000000003  1.0000
  C   C27       1.0  0.19134999999999996  0.50499  0.50084  1.0000
  C   C28       1.0  0.0921100000000001  0.5069999999999998  0.49743  1.0000
  C   C29       1.0  0.5000600000000001  0.8026599999999999  0.19437  1.0000
  C   C30       1.0  0.50298  0.90101  0.09092  1.0000
  C   C31       1.0  0.8000199999999998  0.50194  0.50453  1.0000
  C   C32       1.0  0.9010800000000001  0.5025399999999999  0.50366  1.0000
  C   C33       1.0  0.5047000000000003  0.49906999999999985  0.8030000000000002  1.0000
  C   C34       1.0  0.50642  0.4971499999999999  0.9033  1.0000
  C   C35       1.0  0.80074  0.1946399999999999  0.49894  1.0000
  C   C36       1.0  0.9003499999999999  0.09237999999999998  0.50151  1.0000
  C   C37       1.0  0.5002100000000002  0.5076999999999999  0.19225  1.0000
  C   C38       1.0  0.50039  0.50509  0.09254  1.0000
  C   C39       1.0  0.18986000000000006  0.8015399999999999  0.50704  1.0000
  C   C40       1.0  0.08875999999999996  0.9004199999999999  0.50994  1.0000
  C   C41       1.0  0.19312999999999994  0.5007  0.80026  1.0000
  C   C42       1.0  0.09213000000000018  0.5020499999999998  0.90095  1.0000
  C   C43       1.0  0.5002999999999999  0.8001799999999999  0.50721  1.0000
  C   C44       1.0  0.50096  0.90169  0.50529  1.0000
  C   C45       1.0  0.8019499999999997  0.5072  0.19102000000000005  1.0000
  C   C46       1.0  0.90317  0.50761  0.09223000000000003  1.0000
  C   C47       1.0  0.5042200000000001  0.19355999999999993  0.4984400000000001  1.0000
  C   C48       1.0  0.5061100000000002  0.09354  0.49652  1.0000
  N   N1        1.0  0.08692000000000027  0.6672499999999998  0.32562  1.0000
  N   N2        1.0  0.6677500000000002  0.08631999999999991  0.32593000000000005  1.0000
  N   N3        1.0  0.07447000000000019  0.9082899999999998  0.67979  1.0000
  N   N4        1.0  0.68267  0.07211999999999995  0.9045900000000001  1.0000
  N   N5        1.0  0.9204999999999999  0.66766  0.08674000000000001  1.0000
  N   N6        1.0  0.6712100000000002  0.3283999999999998  0.91704  1.0000
  O   O1        1.0  0.43311  0.43056  0.70139  1.0000
  O   O2        1.0  0.4316500000000002  0.4348899999999999  0.4312  1.0000
  O   O3        1.0  0.43047  0.70192  0.43582000000000004  1.0000
  O   O4        1.0  0.70093  0.4349099999999999  0.43094  1.0000
  O   O5        1.0  0.54901  0.54929  0.55062  1.0000
  O   O6        1.0  0.5476200000000002  0.55257  0.35058000000000006  1.0000
  O   O7        1.0  0.5495000000000001  0.35196999999999995  0.54696  1.0000
  O   O8        1.0  0.35090000000000016  0.54846  0.55058  1.0000
  O   O9        1.0  0.42957  0.23034999999999994  0.7598700000000002  1.0000
  O   O10       1.0  0.23240000000000008  0.4267199999999999  0.57667  1.0000
  O   O11       1.0  0.5815900000000002  0.42318  0.76011  1.0000
  O   O12       1.0  0.7608800000000001  0.23487999999999987  0.57559  1.0000
  O   O13       1.0  0.23396000000000003  0.5764999999999999  0.76149  1.0000
  O   O14       1.0  0.4234700000000001  0.7607999999999997  0.5842  1.0000
  O   O15       1.0  0.5764400000000002  0.7609399999999996  0.42954000000000003  1.0000
  O   O16       1.0  0.23300000000000004  0.4232999999999998  0.76125  1.0000
  O   O17       1.0  0.4264000000000005  0.5749299999999998  0.76434  1.0000
  O   O18       1.0  0.7630900000000004  0.23573  0.41993  1.0000
  O   O19       1.0  0.5822299999999999  0.23327999999999993  0.7586500000000002  1.0000
  O   O20       1.0  0.23241000000000006  0.58256  0.42563  1.0000
  O   O21       1.0  0.57594  0.7638099999999998  0.23569  1.0000
  O   O22       1.0  0.7586800000000002  0.57975  0.42876  1.0000
  O   O23       1.0  0.4224399999999999  0.58389  0.23226  1.0000
  O   O24       1.0  0.23060999999999995  0.7632499999999998  0.42865000000000003  1.0000
  O   O25       1.0  0.7618700000000004  0.4307399999999998  0.23035000000000003  1.0000
  O   O26       1.0  0.57956  0.23678999999999983  0.4212200000000001  1.0000
  O   O27       1.0  0.7594499999999996  0.5836299999999999  0.23359  1.0000
  O   O28       1.0  0.4273100000000001  0.2330399999999999  0.5757  1.0000
  O   O29       1.0  0.23327999999999996  0.76006  0.58267  1.0000
  O   O30       1.0  0.5780700000000001  0.43153  0.23159  1.0000
  O   O31       1.0  0.7630800000000001  0.4227299999999999  0.57949  1.0000
  O   O32       1.0  0.4214700000000003  0.7651199999999999  0.23554  1.0000
