data_image0
_chemical_formula_structural       Zr6H28C48O32
_chemical_formula_sum              "Zr6 H28 C48 O32"
_cell_length_a       14.7619
_cell_length_b       14.801469999999998
_cell_length_c       14.765390000000002
_cell_angle_alpha    59.84578
_cell_angle_beta     60.047290000000004
_cell_angle_gamma    59.813099999999984

_symmetry_space_group_name_H-M    'P 1'
_symmetry_Int_Tables_number       1

loop_
  _symmetry_equiv_pos_as_xyz
  'x,y,z'

loop_
  _atom_site_type_symbol
  _atom_site_label
  _atom_site_symmetry_multiplicity
  _atom_site_fract_x
  _atom_site_fract_y
  _atom_site_fract_z
  _atom_site_occupancy
  Zr  Zr1       1.0  0.3798599999999999  0.37998  0.61969  1.0000
  Zr  Zr2       1.0  0.6195599999999999  0.61818  0.3807600000000001  1.0000
  Zr  Zr3       1.0  0.38029999999999997  0.61879  0.6192100000000001  1.0000
  Zr  Zr4       1.0  0.61881  0.3797400000000001  0.38013  1.0000
  Zr  Zr5       1.0  0.3800200000000001  0.61956  0.37952000000000014  1.0000
  Zr  Zr6       1.0  0.6201799999999994  0.37843  0.61932  1.0000
  H   H1        1.0  0.07241999999999989  0.6559700000000002  0.90348  1.0000
  H   H2        1.0  0.62309  0.10241999999999997  0.3414300000000001  1.0000
  H   H3        1.0  0.94317  0.33091  0.11272  1.0000
  H   H4        1.0  0.36432000000000014  0.90317  0.65538  1.0000
  H   H5        1.0  0.09674999999999989  0.9264900000000001  0.34034000000000003  1.0000
  H   H6        1.0  0.6280599999999997  0.33654  0.9338000000000002  1.0000
  H   H7        1.0  0.9303900000000002  0.09852999999999994  0.6284200000000001  1.0000
  H   H8        1.0  0.3489999999999999  0.64212  0.0871  1.0000
  H   H9        1.0  0.10434999999999998  0.33846  0.62722  1.0000
  H   H10       1.0  0.65001  0.90643  0.08170000000000001  1.0000
  H   H11       1.0  0.91819  0.63877  0.3497000000000001  1.0000
  H   H12       1.0  0.32918999999999987  0.11600999999999999  0.9432400000000002  1.0000
  H   H13       1.0  0.3281599999999999  0.9450700000000002  0.11425000000000002  1.0000
  H   H14       1.0  0.9332  0.33702  0.62906  1.0000
  H   H15       1.0  0.6515200000000001  0.07701  0.91065  1.0000
  H   H16       1.0  0.08976999999999992  0.63931  0.34732  1.0000
  H   H17       1.0  0.10138000000000018  0.9275199999999999  0.62819  1.0000
  H   H18       1.0  0.6275899999999999  0.33974000000000004  0.10311  1.0000
  H   H19       1.0  0.9266799999999998  0.09807000000000003  0.34005  1.0000
  H   H20       1.0  0.34878999999999993  0.6386899999999999  0.9182400000000002  1.0000
  H   H21       1.0  0.6230599999999998  0.93355  0.33921000000000007  1.0000
  H   H22       1.0  0.11093999999999991  0.33352000000000004  0.93948  1.0000
  H   H23       1.0  0.36388  0.07205999999999996  0.6574700000000001  1.0000
  H   H24       1.0  0.9032599999999998  0.65428  0.07529  1.0000
  H   H25       1.0  0.21693999999999997  0.5949300000000001  0.5935300000000001  1.0000
  H   H26       1.0  0.5954399999999999  0.21645999999999999  0.5935300000000001  1.0000
  H   H27       1.0  0.5967999999999998  0.5892100000000002  0.595  1.0000
  H   H28       1.0  0.5934399999999999  0.5927700000000001  0.21744000000000005  1.0000
  C   C1        1.0  0.04334999999999996  0.58542  0.95007  1.0000
  C   C2        1.0  0.5673799999999999  0.05768  0.4097700000000001  1.0000
  C   C3        1.0  0.97216  0.40149  0.0659  1.0000
  C   C4        1.0  0.42063999999999985  0.9473400000000001  0.5873000000000002  1.0000
  C   C5        1.0  0.05999000000000008  0.9653099999999999  0.40237000000000006  1.0000
  C   C6        1.0  0.5676399999999999  0.40289  0.96797  1.0000
  C   C7        1.0  0.96808  0.06023000000000001  0.56581  1.0000
  C   C8        1.0  0.4093  0.57584  0.05271  1.0000
  C   C9        1.0  0.06260999999999989  0.40339000000000014  0.56723  1.0000
  C   C10       1.0  0.5802799999999999  0.95367  0.0507  1.0000
  C   C11       1.0  0.9599199999999999  0.5735000000000001  0.40965  1.0000
  C   C12       1.0  0.39868000000000003  0.0693999999999999  0.9745500000000001  1.0000
  C   C13       1.0  0.39801  0.97514  0.06904  1.0000
  C   C14       1.0  0.96818  0.40267  0.56821  1.0000
  C   C15       1.0  0.5810799999999998  0.04778999999999989  0.9561500000000003  1.0000
  C   C16       1.0  0.05448999999999994  0.5739900000000001  0.40857  1.0000
  C   C17       1.0  0.062350000000000044  0.96578  0.5657  1.0000
  C   C18       1.0  0.56743  0.40455  0.06150000000000001  1.0000
  C   C19       1.0  0.9658599999999999  0.05994999999999998  0.40238000000000007  1.0000
  C   C20       1.0  0.40941999999999995  0.5740299999999999  0.95929  1.0000
  C   C21       1.0  0.56742  0.96423  0.40856  1.0000
  C   C22       1.0  0.06522999999999995  0.4027  0.9705400000000002  1.0000
  C   C23       1.0  0.42034  0.04103  0.5884  1.0000
  C   C24       1.0  0.9499899999999999  0.58439  0.04515  1.0000
  C   C25       1.0  0.19884999999999997  0.49748  0.80756  1.0000
  C   C26       1.0  0.10086999999999996  0.49499  0.9116400000000001  1.0000
  C   C27       1.0  0.49543  0.19688999999999998  0.49987000000000004  1.0000
  C   C28       1.0  0.49408999999999975  0.09665999999999995  0.4996200000000001  1.0000
  C   C29       1.0  0.80856  0.49548  0.20029  1.0000
  C   C30       1.0  0.91295  0.49313000000000007  0.10267  1.0000
  C   C31       1.0  0.4956899999999998  0.8061800000000001  0.4979800000000001  1.0000
  C   C32       1.0  0.49439999999999984  0.9080200000000002  0.4976800000000001  1.0000
  C   C33       1.0  0.20307999999999998  0.8106700000000001  0.4908500000000001  1.0000
  C   C34       1.0  0.10744  0.9167600000000001  0.4852700000000001  1.0000
  C   C35       1.0  0.49390999999999996  0.49130000000000007  0.8107000000000001  1.0000
  C   C36       1.0  0.48956999999999995  0.48849999999999993  0.9154  1.0000
  C   C37       1.0  0.8115199999999999  0.20168999999999998  0.4915200000000001  1.0000
  C   C38       1.0  0.9181399999999998  0.10643  0.48541  1.0000
  C   C39       1.0  0.49366  0.49634999999999996  0.19979000000000002  1.0000
  C   C40       1.0  0.48949999999999994  0.49192  0.10321000000000001  1.0000
  C   C41       1.0  0.20204999999999998  0.4943399999999999  0.49231000000000014  1.0000
  C   C42       1.0  0.10522999999999991  0.4899  0.48848000000000014  1.0000
  C   C43       1.0  0.49354  0.81011  0.20265  1.0000
  C   C44       1.0  0.48968  0.91584  0.10648  1.0000
  C   C45       1.0  0.8105899999999999  0.49169999999999997  0.4949900000000001  1.0000
  C   C46       1.0  0.9154099999999996  0.48869000000000007  0.49045000000000005  1.0000
  C   C47       1.0  0.49515  0.20124999999999998  0.81067  1.0000
  C   C48       1.0  0.49096000000000006  0.10508999999999998  0.91655  1.0000
  O   O1        1.0  0.29744000000000004  0.56756  0.5664200000000001  1.0000
  O   O2        1.0  0.56749  0.29692  0.56723  1.0000
  O   O3        1.0  0.56663  0.56661  0.29789  1.0000
  O   O4        1.0  0.56848  0.56445  0.56781  1.0000
  O   O5        1.0  0.45015999999999984  0.64823  0.4500900000000001  1.0000
  O   O6        1.0  0.64952  0.44875999999999994  0.4497200000000001  1.0000
  O   O7        1.0  0.45039999999999997  0.44932  0.6483600000000002  1.0000
  O   O8        1.0  0.44943  0.44959  0.44993  1.0000
  O   O9        1.0  0.2368399999999999  0.42162999999999995  0.7670500000000001  1.0000
  O   O10       1.0  0.42049999999999993  0.23474000000000003  0.57884  1.0000
  O   O11       1.0  0.7662800000000003  0.5745700000000001  0.23796000000000003  1.0000
  O   O12       1.0  0.5731099999999999  0.7664400000000001  0.42119  1.0000
  O   O13       1.0  0.23992  0.7686299999999998  0.5707300000000001  1.0000
  O   O14       1.0  0.41890999999999984  0.5706800000000002  0.76852  1.0000
  O   O15       1.0  0.7683700000000001  0.23866999999999994  0.41754  1.0000
  O   O16       1.0  0.5723099999999999  0.42027000000000003  0.23844  1.0000
  O   O17       1.0  0.23852999999999994  0.57415  0.41772  1.0000
  O   O18       1.0  0.41884  0.7689999999999999  0.23849000000000004  1.0000
  O   O19       1.0  0.7693900000000001  0.41657  0.57445  1.0000
  O   O20       1.0  0.57701  0.23549999999999996  0.7664800000000002  1.0000
  O   O21       1.0  0.5737199999999999  0.7668200000000001  0.23966000000000007  1.0000
  O   O22       1.0  0.76816  0.5711799999999999  0.4201700000000001  1.0000
  O   O23       1.0  0.4184800000000001  0.24012999999999995  0.7704  1.0000
  O   O24       1.0  0.2396000000000001  0.4193499999999999  0.57188  1.0000
  O   O25       1.0  0.23892000000000005  0.76798  0.41726  1.0000
  O   O26       1.0  0.4196499999999999  0.5768199999999999  0.23562000000000005  1.0000
  O   O27       1.0  0.7693799999999998  0.23693999999999998  0.5721800000000001  1.0000
  O   O28       1.0  0.5734300000000001  0.4161600000000001  0.76946  1.0000
  O   O29       1.0  0.42012999999999984  0.76499  0.57636  1.0000
  O   O30       1.0  0.23641999999999996  0.5765  0.7654900000000001  1.0000
  O   O31       1.0  0.57229  0.23645999999999998  0.42213  1.0000
  O   O32       1.0  0.7677699999999997  0.42027000000000003  0.23707000000000006  1.0000
