data_image0
_chemical_formula_structural       Ti16H68C96N12O72
_chemical_formula_sum              "Ti16 H68 C96 N12 O72"
_cell_length_a       18.05562
_cell_length_b       19.00345
_cell_length_c       19.02311
_cell_angle_alpha    89.99077999999999
_cell_angle_beta     90.04636
_cell_angle_gamma    90.04549

_space_group_name_H-M_alt    "P 1"
_space_group_IT_number       1

loop_
  _space_group_symop_operation_xyz
  'x, y, z'

loop_
  _atom_site_type_symbol
  _atom_site_label
  _atom_site_symmetry_multiplicity
  _atom_site_fract_x
  _atom_site_fract_y
  _atom_site_fract_z
  _atom_site_occupancy
  Ti  Ti1       1.0  0.4958  0.7901100000000002  0.07159  1.0000
  Ti  Ti2       1.0  0.49646  0.20787000000000005  0.92886  1.0000
  Ti  Ti3       1.0  0.49806000000000006  0.92896  0.7894499999999999  1.0000
  Ti  Ti4       1.0  0.49853  0.07177000000000001  0.21032999999999996  1.0000
  Ti  Ti5       1.0  0.50297  0.9286200000000001  0.20760999999999993  1.0000
  Ti  Ti6       1.0  0.50164  0.07226  0.7898799999999999  1.0000
  Ti  Ti7       1.0  0.5013200000000001  0.79324  0.92846  1.0000
  Ti  Ti8       1.0  0.50087  0.20895  0.07196  1.0000
  Ti  Ti9       1.0  0.99719  0.2923  0.5718599999999999  1.0000
  Ti  Ti10      1.0  0.00024000000000000014  0.57125  0.70626  1.0000
  Ti  Ti11      1.0  0.00218  0.42796  0.71004  1.0000
  Ti  Ti12      1.0  0.9997900000000001  0.2927900000000001  0.42877  1.0000
  Ti  Ti13      1.0  0.0022600000000000003  0.7079700000000001  0.42942  1.0000
  Ti  Ti14      1.0  0.99997  0.42835  0.29109  1.0000
  Ti  Ti15      1.0  0.99687  0.57167  0.29041  1.0000
  Ti  Ti16      1.0  0.99966  0.7122900000000002  0.57275  1.0000
  H   H1        1.0  0.69062  0.8520200000000001  0.6914399999999999  1.0000
  H   H2        1.0  0.31309  0.14732  0.30516999999999994  1.0000
  H   H3        1.0  0.30924  0.85186  0.6911699999999997  1.0000
  H   H4        1.0  0.68645  0.14703  0.30493  1.0000
  H   H5        1.0  0.30964  0.30854  0.85183  1.0000
  H   H6        1.0  0.31322000000000005  0.69469  0.14763  1.0000
  H   H7        1.0  0.31338  0.14713  0.69403  1.0000
  H   H8        1.0  0.68704  0.85146  0.30478  1.0000
  H   H9        1.0  0.687  0.14898  0.69591  1.0000
  H   H10       1.0  0.30962  0.8521400000000001  0.30942  1.0000
  H   H11       1.0  0.30934  0.30917000000000006  0.14773999999999998  1.0000
  H   H12       1.0  0.68601  0.6946400000000001  0.8532999999999998  1.0000
  H   H13       1.0  0.6898  0.3091  0.1478  1.0000
  H   H14       1.0  0.31376000000000004  0.6946800000000001  0.8532699999999999  1.0000
  H   H15       1.0  0.1873  0.8047200000000002  0.35144  1.0000
  H   H16       1.0  0.8094400000000002  0.19088  0.64871  1.0000
  H   H17       1.0  0.8092300000000001  0.8093200000000002  0.35235999999999995  1.0000
  H   H18       1.0  0.81247  0.3511900000000001  0.19506  1.0000
  H   H19       1.0  0.18711000000000003  0.3513800000000001  0.19517  1.0000
  H   H20       1.0  0.18699000000000002  0.8036600000000002  0.64907  1.0000
  H   H21       1.0  0.81258  0.80398  0.64927  1.0000
  H   H22       1.0  0.81322  0.35318  0.80565  1.0000
  H   H23       1.0  0.18728  0.35083  0.80451  1.0000
  H   H24       1.0  0.81327  0.64767  0.19469999999999996  1.0000
  H   H25       1.0  0.99905  0.42895000000000005  0.57356  1.0000
  H   H26       1.0  0.9989100000000001  0.57164  0.4273  1.0000
  H   H27       1.0  0.00228  0.4293600000000001  0.42696  1.0000
  H   H28       1.0  0.99948  0.57486  0.56996  1.0000
  H   H29       1.0  0.49912  0.9271900000000002  0.07145  1.0000
  H   H30       1.0  0.49956  0.07114  0.92665  1.0000
  H   H31       1.0  0.50227  0.9292  0.9265299999999999  1.0000
  H   H32       1.0  0.50044  0.07259000000000003  0.07307  1.0000
  H   H33       1.0  0.00014000000000000004  0.61501  0.9352299999999999  1.0000
  H   H34       1.0  0.00011999999999999991  0.06488  0.6135599999999999  1.0000
  H   H35       1.0  0.00016999999999999993  0.07064  0.3875299999999999  1.0000
  H   H36       1.0  8.000000000000007e-05  0.93268  0.60908  1.0000
  H   H37       1.0  0.00016000000000000007  0.38891  0.93011  1.0000
  H   H38       1.0  0.0003400000000000001  0.61107  0.06729999999999998  1.0000
  H   H39       1.0  0.50016  0.11387  0.56358  1.0000
  H   H40       1.0  0.50035  0.43606000000000006  0.11343  1.0000
  H   H41       1.0  0.50028  0.43042  0.88749  1.0000
  H   H42       1.0  0.50042  0.56812  0.10910999999999998  1.0000
  H   H43       1.0  0.49994  0.10956000000000002  0.43146999999999996  1.0000
  H   H44       1.0  0.49989000000000006  0.88776  0.56927  1.0000
  H   H45       1.0  0.21559  0.13934  0.38671  1.0000
  H   H46       1.0  0.1385  0.19568  0.38616  1.0000
  H   H47       1.0  0.78325  0.14067  0.38772  1.0000
  H   H48       1.0  0.86053  0.19619000000000003  0.38647  1.0000
  H   H49       1.0  0.78426  0.61378  0.8629  1.0000
  H   H50       1.0  0.86156  0.61426  0.8063799999999999  1.0000
  H   H51       1.0  0.21614  0.6127200000000002  0.86176  1.0000
  H   H52       1.0  0.13844  0.61366  0.80586  1.0000
  H   H53       1.0  0.21571  0.61236  0.14029  1.0000
  H   H54       1.0  0.13828  0.6138200000000003  0.19611  1.0000
  H   H55       1.0  0.49913  0.53705  0.82342  1.0000
  H   H56       1.0  0.4995200000000001  0.6203900000000001  0.8642  1.0000
  H   H57       1.0  0.716  0.35919  0.88884  1.0000
  H   H58       1.0  0.63866  0.30356  0.88651  1.0000
  H   H59       1.0  0.5003000000000001  0.82366  0.4626799999999999  1.0000
  H   H60       1.0  0.50021  0.8645800000000001  0.37946  1.0000
  H   H61       1.0  0.71416  0.63822  0.11419  1.0000
  H   H62       1.0  0.63745  0.69561  0.11453  1.0000
  H   H63       1.0  0.9997900000000001  0.96411  0.32341  1.0000
  H   H64       1.0  0.99993  0.8807200000000001  0.36402  1.0000
  H   H65       1.0  0.21346  0.13689  0.6144899999999999  1.0000
  H   H66       1.0  0.13695  0.19449000000000005  0.61459  1.0000
  H   H67       1.0  0.0006500000000000001  0.32502000000000003  0.03628  1.0000
  H   H68       1.0  0.00011000000000000002  0.3658  0.11963  1.0000
  C   C1        1.0  0.50007  0.34776  0.0002  1.0000
  C   C2        1.0  0.50017  0.65164  0.9987899999999998  1.0000
  C   C3        1.0  0.50013  0.00041  0.65144  1.0000
  C   C4        1.0  0.49996999999999997  0.99916  0.34838  1.0000
  C   C5        1.0  2.000000000000002e-05  0.50087  0.84765  1.0000
  C   C6        1.0  0.99996  0.49962000000000006  0.15095  1.0000
  C   C7        1.0  4.9999999999999975e-05  0.15275  0.50019  1.0000
  C   C8        1.0  6.999999999999993e-05  0.84962  0.49886  1.0000
  C   C9        1.0  0.00013999999999999996  0.92694  0.49662999999999996  1.0000
  C   C10       1.0  0.00034000000000000013  0.07453  0.49994999999999995  1.0000
  C   C11       1.0  0.00019000000000000004  0.49824000000000007  0.07364999999999998  1.0000
  C   C12       1.0  1.000000000000001e-05  0.5013  0.92596  1.0000
  C   C13       1.0  0.49974  0.99703  0.4256  1.0000
  C   C14       1.0  0.49992  0.00021  0.57319  1.0000
  C   C15       1.0  0.50052  0.57426  0.9966499999999999  1.0000
  C   C16       1.0  0.5005  0.42629000000000006  0.9998699999999999  1.0000
  C   C17       1.0  0.00022000000000000012  0.9638900000000001  0.56111  1.0000
  C   C18       1.0  0.00029  0.03972  0.43567  1.0000
  C   C19       1.0  0.0002400000000000001  0.5628  0.03651  1.0000
  C   C20       1.0  0.00011000000000000002  0.43716000000000005  0.9609  1.0000
  C   C21       1.0  0.00012000000000000022  0.5653900000000001  0.96369  1.0000
  C   C22       1.0  0.00011999999999999998  0.43336  0.03514  1.0000
  C   C23       1.0  0.00017999999999999998  0.96535  0.43172999999999995  1.0000
  C   C24       1.0  0.00033  0.0367  0.56387  1.0000
  C   C25       1.0  0.50052  0.5370700000000002  0.06106  1.0000
  C   C26       1.0  0.5005  0.46128  0.9356899999999999  1.0000
  C   C27       1.0  0.49982  0.9359500000000001  0.53836  1.0000
  C   C28       1.0  0.4998000000000001  0.061540000000000004  0.46262  1.0000
  C   C29       1.0  0.4998000000000001  0.93209  0.4640699999999999  1.0000
  C   C30       1.0  0.49991  0.0642  0.53534  1.0000
  C   C31       1.0  0.50051  0.53569  0.9318099999999999  1.0000
  C   C32       1.0  0.50054  0.4642400000000001  0.06373  1.0000
  C   C33       1.0  0.31761  0.22576  0.22484  1.0000
  C   C34       1.0  0.68188  0.77495  0.7747199999999997  1.0000
  C   C35       1.0  0.68194  0.22556000000000004  0.22477999999999998  1.0000
  C   C36       1.0  0.31792  0.77468  0.77451  1.0000
  C   C37       1.0  0.31773  0.22543000000000005  0.77446  1.0000
  C   C38       1.0  0.68076  0.7735  0.22364  1.0000
  C   C39       1.0  0.68051  0.22735000000000002  0.7764499999999999  1.0000
  C   C40       1.0  0.31777  0.77509  0.22607  1.0000
  C   C41       1.0  0.81781  0.27449  0.72558  1.0000
  C   C42       1.0  0.18069  0.72388  0.27326  1.0000
  C   C43       1.0  0.18098  0.27313000000000004  0.72317  1.0000
  C   C44       1.0  0.81768  0.72603  0.27516  1.0000
  C   C45       1.0  0.81918  0.27276  0.27552  1.0000
  C   C46       1.0  0.18105  0.72304  0.72739  1.0000
  C   C47       1.0  0.18056  0.2732  0.27596  1.0000
  C   C48       1.0  0.81874  0.72302  0.7274  1.0000
  C   C49       1.0  0.88986  0.69799  0.69932  1.0000
  C   C50       1.0  0.10984  0.30197  0.30105  1.0000
  C   C51       1.0  0.10987  0.69827  0.69936  1.0000
  C   C52       1.0  0.8900100000000001  0.30174  0.30043  1.0000
  C   C53       1.0  0.88975  0.6990100000000001  0.30235  1.0000
  C   C54       1.0  0.10988  0.30109  0.69836  1.0000
  C   C55       1.0  0.10961  0.69895  0.3016  1.0000
  C   C56       1.0  0.8897900000000001  0.30173000000000005  0.69857  1.0000
  C   C57       1.0  0.38969  0.8024100000000002  0.19913  1.0000
  C   C58       1.0  0.6095  0.19889  0.80162  1.0000
  C   C59       1.0  0.6097  0.8013400000000003  0.19842999999999997  1.0000
  C   C60       1.0  0.38966  0.19821000000000005  0.8015  1.0000
  C   C61       1.0  0.38993  0.8016  0.80172  1.0000
  C   C62       1.0  0.60981  0.19834  0.19821  1.0000
  C   C63       1.0  0.60983  0.8023000000000001  0.80145  1.0000
  C   C64       1.0  0.3898  0.19883  0.19794  1.0000
  C   C65       1.0  0.28475  0.19197  0.28154  1.0000
  C   C66       1.0  0.71684  0.80721  0.71669  1.0000
  C   C67       1.0  0.71493  0.19165  0.28136  1.0000
  C   C68       1.0  0.28305  0.80705  0.7164599999999998  1.0000
  C   C69       1.0  0.2831  0.28343  0.80712  1.0000
  C   C70       1.0  0.71595  0.7144500000000003  0.19096  1.0000
  C   C71       1.0  0.71553  0.28667  0.8089  1.0000
  C   C72       1.0  0.28494  0.71827  0.19225  1.0000
  C   C73       1.0  0.71658  0.28361  0.19215  1.0000
  C   C74       1.0  0.28539  0.71781  0.8084199999999999  1.0000
  C   C75       1.0  0.28282  0.28378  0.19226  1.0000
  C   C76       1.0  0.71433  0.7179900000000001  0.80853  1.0000
  C   C77       1.0  0.71545  0.19379000000000002  0.7190899999999998  1.0000
  C   C78       1.0  0.28305  0.80758  0.28405  1.0000
  C   C79       1.0  0.28503  0.19178  0.7175699999999998  1.0000
  C   C80       1.0  0.7155  0.80679  0.28143999999999997  1.0000
  C   C81       1.0  0.21577  0.30627000000000004  0.7810299999999999  1.0000
  C   C82       1.0  0.7849600000000001  0.6923  0.21827999999999997  1.0000
  C   C83       1.0  0.78487  0.30843  0.78219  1.0000
  C   C84       1.0  0.21571  0.6912600000000002  0.21412999999999996  1.0000
  C   C85       1.0  0.2156  0.21395  0.30851  1.0000
  C   C86       1.0  0.78407  0.78078  0.69397  1.0000
  C   C87       1.0  0.78427  0.21346  0.30810999999999994  1.0000
  C   C88       1.0  0.21573  0.78065  0.69378  1.0000
  C   C89       1.0  0.78298  0.21644  0.69313  1.0000
  C   C90       1.0  0.21563  0.7814900000000002  0.3067  1.0000
  C   C91       1.0  0.2161  0.21413  0.69027  1.0000
  C   C92       1.0  0.7828600000000001  0.78405  0.30765  1.0000
  C   C93       1.0  0.78409  0.30628  0.21808  1.0000
  C   C94       1.0  0.21628  0.69053  0.78658  1.0000
  C   C95       1.0  0.21548  0.30655  0.21834  1.0000
  C   C96       1.0  0.78328  0.69056  0.78652  1.0000
  N   N1        1.0  0.18506  0.17698  0.36279  1.0000
  N   N2        1.0  0.81526  0.17597  0.36192  1.0000
  N   N3        1.0  0.8128700000000001  0.6354  0.82271  1.0000
  N   N4        1.0  0.18620000000000003  0.63593  0.8233  1.0000
  N   N5        1.0  0.18502  0.63696  0.17729  1.0000
  N   N6        1.0  0.50073  0.56699  0.8673499999999998  1.0000
  N   N7        1.0  0.68424  0.32402  0.86262  1.0000
  N   N8        1.0  0.49983  0.86767  0.43279  1.0000
  N   N9        1.0  0.68598  0.67872  0.13572999999999996  1.0000
  N   N10       1.0  0.00013000000000000007  0.9341200000000001  0.36732999999999993  1.0000
  N   N11       1.0  0.18651  0.17891  0.63454  1.0000
  N   N12       1.0  0.99988  0.3689200000000001  0.06628  1.0000
  O   O1        1.0  0.49987000000000004  0.31624  0.05958  1.0000
  O   O2        1.0  0.50027  0.059730000000000005  0.6832699999999999  1.0000
  O   O3        1.0  0.49994999999999995  0.058910000000000004  0.31655  1.0000
  O   O4        1.0  0.50018  0.6833  0.05871  1.0000
  O   O5        1.0  0.00020999999999999998  0.18436  0.5595399999999999  1.0000
  O   O6        1.0  4.000000000000014e-05  0.56003  0.81562  1.0000
  O   O7        1.0  0.00010000000000000015  0.44111000000000006  0.8163  1.0000
  O   O8        1.0  0.9997600000000001  0.18473  0.4406999999999999  1.0000
  O   O9        1.0  0.06674  0.30213000000000007  0.50043  1.0000
  O   O10       1.0  0.06879000000000002  0.69872  0.50089  1.0000
  O   O11       1.0  0.06943  0.49976000000000004  0.69854  1.0000
  O   O12       1.0  0.06652  0.50007  0.30165  1.0000
  O   O13       1.0  0.4187  0.22963000000000003  0.14532  1.0000
  O   O14       1.0  0.58079  0.7710900000000002  0.8544599999999999  1.0000
  O   O15       1.0  0.5809  0.22928000000000004  0.1452  1.0000
  O   O16       1.0  0.41889  0.77078  0.8544499999999999  1.0000
  O   O17       1.0  0.41878  0.14562  0.77073  1.0000
  O   O18       1.0  0.58115  0.8545000000000001  0.22999  1.0000
  O   O19       1.0  0.58125  0.14563  0.7700099999999999  1.0000
  O   O20       1.0  0.41882  0.85498  0.22961999999999996  1.0000
  O   O21       1.0  0.58106  0.14565  0.22924999999999998  1.0000
  O   O22       1.0  0.41882  0.85454  0.77061  1.0000
  O   O23       1.0  0.41869  0.14582  0.22911  1.0000
  O   O24       1.0  0.58115  0.85493  0.77049  1.0000
  O   O25       1.0  0.5779600000000001  0.22811  0.85458  1.0000
  O   O26       1.0  0.41831  0.7711700000000001  0.14581  1.0000
  O   O27       1.0  0.41822  0.22918  0.8546999999999999  1.0000
  O   O28       1.0  0.5780000000000001  0.77168  0.14566  1.0000
  O   O29       1.0  0.07788  0.27124  0.64574  1.0000
  O   O30       1.0  0.0812  0.73083  0.35444999999999993  1.0000
  O   O31       1.0  0.08113  0.3547600000000001  0.26944  1.0000
  O   O32       1.0  0.07812  0.64566  0.72962  1.0000
  O   O33       1.0  0.07804  0.64574  0.27226  1.0000
  O   O34       1.0  0.08141  0.35435  0.72969  1.0000
  O   O35       1.0  0.0814  0.7291500000000001  0.6459999999999999  1.0000
  O   O36       1.0  0.07863000000000002  0.27305000000000007  0.35471  1.0000
  O   O37       1.0  0.49990000000000007  0.10868  0.10898  1.0000
  O   O38       1.0  0.49973  0.8925100000000001  0.8912999999999999  1.0000
  O   O39       1.0  0.49964  0.10785000000000002  0.89139  1.0000
  O   O40       1.0  0.49988000000000005  0.89156  0.10783  1.0000
  O   O41       1.0  1.0000000000000058e-05  0.39208  0.60866  1.0000
  O   O42       1.0  0.9999399999999999  0.6080200000000001  0.3917  1.0000
  O   O43       1.0  0.99986  0.39254  0.39187  1.0000
  O   O44       1.0  0.00015999999999999996  0.60884  0.60787  1.0000
  O   O45       1.0  0.93329  0.69833  0.50041  1.0000
  O   O46       1.0  0.93035  0.30233  0.50003  1.0000
  O   O47       1.0  0.93046  0.49961000000000005  0.30157  1.0000
  O   O48       1.0  0.9332100000000001  0.49943  0.69798  1.0000
  O   O49       1.0  0.49993  0.68566  0.9401399999999999  1.0000
  O   O50       1.0  0.50027  0.9403300000000001  0.31445  1.0000
  O   O51       1.0  0.50012  0.9409700000000002  0.68342  1.0000
  O   O52       1.0  0.5001  0.3158  0.94084  1.0000
  O   O53       1.0  0.00017000000000000012  0.8155000000000002  0.44029999999999997  1.0000
  O   O54       1.0  0.9997900000000001  0.44046  0.18432999999999997  1.0000
  O   O55       1.0  7.000000000000021e-05  0.5590100000000001  0.18336999999999998  1.0000
  O   O56       1.0  5e-05  0.8183  0.55887  1.0000
  O   O57       1.0  0.43294  0.99987  0.1981  1.0000
  O   O58       1.0  0.56723  5.0000000000000016e-05  0.80201  1.0000
  O   O59       1.0  0.56866  0.00049  0.19817  1.0000
  O   O60       1.0  0.43176  0.00048  0.7991  1.0000
  O   O61       1.0  0.4305200000000001  0.80206  0.99961  1.0000
  O   O62       1.0  0.56669  0.19812  0.9999199999999999  1.0000
  O   O63       1.0  0.56664  0.80215  0.00032999999999999994  1.0000
  O   O64       1.0  0.43062  0.19795  0.00054  1.0000
  O   O65       1.0  0.91894  0.72962  0.35487  1.0000
  O   O66       1.0  0.9182800000000001  0.27087000000000006  0.64531  1.0000
  O   O67       1.0  0.9214200000000001  0.64519  0.72938  1.0000
  O   O68       1.0  0.91872  0.35422  0.26829  1.0000
  O   O69       1.0  0.91906  0.35445  0.72925  1.0000
  O   O70       1.0  0.9183299999999999  0.64573  0.27106  1.0000
  O   O71       1.0  0.9211799999999999  0.27317  0.35432  1.0000
  O   O72       1.0  0.91851  0.7290000000000001  0.64601  1.0000
