data_image0
_chemical_formula_structural       Cu6H18C60O24
_chemical_formula_sum              "Cu6 H18 C60 O24"
_cell_length_a       17.51654
_cell_length_b       17.47957
_cell_length_c       17.52985
_cell_angle_alpha    65.67259
_cell_angle_beta     65.41899
_cell_angle_gamma    65.25387

_symmetry_space_group_name_H-M    'P 1'
_symmetry_Int_Tables_number       1

loop_
  _symmetry_equiv_pos_as_xyz
  'x,y,z'

loop_
  _atom_site_type_symbol
  _atom_site_label
  _atom_site_symmetry_multiplicity
  _atom_site_fract_x
  _atom_site_fract_y
  _atom_site_fract_z
  _atom_site_occupancy
  Cu  Cu1       1.0  0.5667  0.00043000000000000015  0.00401  1.0000
  Cu  Cu2       1.0  0.00034999999999996026  0.5658  0.0064  1.0000
  Cu  Cu3       1.0  0.007099999999999929  0.0049299999999999405  0.5677600000000003  1.0000
  Cu  Cu4       1.0  0.9935700000000001  0.43214  0.9990200000000001  1.0000
  Cu  Cu5       1.0  0.4337499999999999  0.9933899999999999  0.9961900000000001  1.0000
  Cu  Cu6       1.0  0.99959  0.99662  0.4352600000000001  1.0000
  H   H1        1.0  0.49723999999999996  0.72428  0.015620000000000004  1.0000
  H   H2        1.0  0.005919999999999915  0.50386  0.7323600000000002  1.0000
  H   H3        1.0  0.73003  0.025859999999999963  0.4967600000000001  1.0000
  H   H4        1.0  0.27293999999999985  0.50126  0.9738100000000002  1.0000
  H   H5        1.0  0.50109  0.9930899999999999  0.26823  1.0000
  H   H6        1.0  0.97927  0.27714  0.50289  1.0000
  H   H7        1.0  0.50239  0.27220000000000005  0.97083  1.0000
  H   H8        1.0  0.97404  0.50505  0.27524000000000004  1.0000
  H   H9        1.0  0.27359  0.99227  0.49769  1.0000
  H   H10       1.0  0.7272399999999999  0.49538  0.015540000000000003  1.0000
  H   H11       1.0  0.5013  0.01982  0.7247  1.0000
  H   H12       1.0  0.008479999999999937  0.7322800000000002  0.50483  1.0000
  H   H13       1.0  0.7307199999999999  0.73075  0.0362  1.0000
  H   H14       1.0  0.027489999999999994  0.73687  0.73988  1.0000
  H   H15       1.0  0.7397500000000001  0.02115999999999999  0.74006  1.0000
  H   H16       1.0  0.26164999999999994  0.2620799999999998  0.9690600000000003  1.0000
  H   H17       1.0  0.2664500000000001  0.9726599999999999  0.26399  1.0000
  H   H18       1.0  0.9769499999999999  0.26176  0.2651  1.0000
  C   C1        1.0  0.6092500000000001  0.7363599999999999  0.026730000000000007  1.0000
  C   C2        1.0  0.56417  0.69091  0.019680000000000003  1.0000
  C   C3        1.0  0.5666299999999999  0.83129  0.02355000000000001  1.0000
  C   C4        1.0  0.016919999999999987  0.61575  0.74504  1.0000
  C   C5        1.0  0.009949999999999964  0.57064  0.69947  1.0000
  C   C6        1.0  0.014109999999999954  0.5725899999999999  0.8392300000000003  1.0000
  C   C7        1.0  0.7438699999999999  0.024449999999999923  0.6136800000000002  1.0000
  C   C8        1.0  0.69733  0.025090000000000008  0.56496  1.0000
  C   C9        1.0  0.8384  0.021850000000000012  0.57123  1.0000
  C   C10       1.0  0.25843999999999984  0.3866  0.97031  1.0000
  C   C11       1.0  0.30567  0.4336799999999999  0.9713400000000002  1.0000
  C   C12       1.0  0.16284999999999988  0.42911  0.97678  1.0000
  C   C13       1.0  0.38842999999999994  0.98188  0.2573  1.0000
  C   C14       1.0  0.4342599999999997  0.9892199999999999  0.30178  1.0000
  C   C15       1.0  0.4314599999999999  0.9821800000000002  0.16353  1.0000
  C   C16       1.0  0.97694  0.26065  0.38888  1.0000
  C   C17       1.0  0.9769499999999999  0.3089  0.43566  1.0000
  C   C18       1.0  0.98215  0.16559999999999997  0.43141  1.0000
  C   C19       1.0  0.3869400000000001  0.25831  0.96867  1.0000
  C   C20       1.0  0.43456000000000006  0.3050800000000001  0.96957  1.0000
  C   C21       1.0  0.4294899999999998  0.16282  0.97414  1.0000
  C   C22       1.0  0.97478  0.38802  0.26109  1.0000
  C   C23       1.0  0.97409  0.43699  0.30767  1.0000
  C   C24       1.0  0.9791099999999999  0.4291  0.16642000000000007  1.0000
  C   C25       1.0  0.26136  0.98087  0.38601000000000013  1.0000
  C   C26       1.0  0.3066399999999999  0.98848  0.43081000000000014  1.0000
  C   C27       1.0  0.16764999999999988  0.9810200000000001  0.43027  1.0000
  C   C28       1.0  0.7373400000000001  0.60799  0.027920000000000007  1.0000
  C   C29       1.0  0.6931999999999999  0.56229  0.019880000000000005  1.0000
  C   C30       1.0  0.8315399999999997  0.5655099999999997  0.02637  1.0000
  C   C31       1.0  0.61597  0.020529999999999934  0.7414400000000002  1.0000
  C   C32       1.0  0.56895  0.021490000000000006  0.69306  1.0000
  C   C33       1.0  0.57296  0.014719999999999999  0.83643  1.0000
  C   C34       1.0  0.019939999999999968  0.74325  0.6172100000000003  1.0000
  C   C35       1.0  0.011900000000000018  0.69883  0.57162  1.0000
  C   C36       1.0  0.02122999999999999  0.83672  0.57338  1.0000
  C   C37       1.0  0.56124  0.55831  0.00588  1.0000
  C   C38       1.0  0.5225699999999998  0.52003  0.99605  1.0000
  C   C39       1.0  0.69566  0.69496  0.03158  1.0000
  C   C40       1.0  0.60582  0.60324  0.01585  1.0000
  C   C41       1.0  0.99813  0.56739  0.5663100000000002  1.0000
  C   C42       1.0  0.9901999999999999  0.5288599999999999  0.5264200000000001  1.0000
  C   C43       1.0  0.022479999999999972  0.70192  0.70408  1.0000
  C   C44       1.0  0.0070600000000000515  0.61186  0.61216  1.0000
  C   C45       1.0  0.5630399999999997  0.02115999999999999  0.55592  1.0000
  C   C46       1.0  0.5227699999999996  0.01646999999999999  0.51575  1.0000
  C   C47       1.0  0.7033999999999997  0.02236  0.70203  1.0000
  C   C48       1.0  0.60929  0.02349000000000002  0.60411  1.0000
  C   C49       1.0  0.4407099999999996  0.43916999999999995  0.9772100000000002  1.0000
  C   C50       1.0  0.47998999999999986  0.47777999999999987  0.9857500000000002  1.0000
  C   C51       1.0  0.29889999999999983  0.29886999999999997  0.9685300000000002  1.0000
  C   C52       1.0  0.3942999999999998  0.39336  0.9713000000000003  1.0000
  C   C53       1.0  0.43919999999999987  0.0018899999999999757  0.4337600000000001  1.0000
  C   C54       1.0  0.4790499999999997  0.009619999999999969  0.47232000000000013  1.0000
  C   C55       1.0  0.3019699999999999  0.9775300000000001  0.29914  1.0000
  C   C56       1.0  0.3937300000000001  0.99281  0.38915  1.0000
  C   C57       1.0  0.9781199999999999  0.44556999999999997  0.44214  1.0000
  C   C58       1.0  0.98322  0.4857  0.48233  1.0000
  C   C59       1.0  0.9756999999999996  0.29993  0.3015500000000001  1.0000
  C   C60       1.0  0.9753500000000002  0.39780999999999994  0.3955500000000001  1.0000
  O   O1        1.0  0.6115299999999999  0.87051  0.02782  1.0000
  O   O2        1.0  0.48913999999999996  0.86624  0.014660000000000003  1.0000
  O   O3        1.0  0.016459999999999905  0.6179  0.8795100000000002  1.0000
  O   O4        1.0  0.007759999999999972  0.4943  0.87266  1.0000
  O   O5        1.0  0.87866  0.022709999999999984  0.6172000000000001  1.0000
  O   O6        1.0  0.87198  0.017179999999999956  0.49231000000000014  1.0000
  O   O7        1.0  0.12216999999999996  0.38366000000000006  0.9756  1.0000
  O   O8        1.0  0.12876000000000004  0.50705  0.9849  1.0000
  O   O9        1.0  0.38675000000000004  0.9774699999999998  0.12444  1.0000
  O   O10       1.0  0.50973  0.98871  0.12931  1.0000
  O   O11       1.0  0.9818700000000002  0.12461000000000001  0.38562  1.0000
  O   O12       1.0  0.98781  0.13248  0.50978  1.0000
  O   O13       1.0  0.38301  0.12143000000000001  0.97596  1.0000
  O   O14       1.0  0.5084600000000001  0.12952  0.97885  1.0000
  O   O15       1.0  0.97996  0.38194  0.12619  1.0000
  O   O16       1.0  0.98335  0.50817  0.13266  1.0000
  O   O17       1.0  0.12749000000000005  0.9780999999999999  0.3854400000000001  1.0000
  O   O18       1.0  0.13442000000000004  0.9859899999999999  0.50907  1.0000
  O   O19       1.0  0.87137  0.61249  0.02619000000000001  1.0000
  O   O20       1.0  0.8656899999999996  0.48586  0.02296  1.0000
  O   O21       1.0  0.61922  0.012639999999999964  0.8781800000000002  1.0000
  O   O22       1.0  0.4937799999999999  0.011110000000000024  0.86878  1.0000
  O   O23       1.0  0.02468000000000001  0.8767799999999998  0.6181800000000002  1.0000
  O   O24       1.0  0.01693999999999983  0.8697100000000001  0.4945100000000001  1.0000
