data_image0
_chemical_formula_structural       Zn8H24C48O26
_chemical_formula_sum              "Zn8 H24 C48 O26"
_cell_length_a       18.38148
_cell_length_b       18.37162
_cell_length_c       18.45616
_cell_angle_alpha    60.19871
_cell_angle_beta     60.30465
_cell_angle_gamma    60.26425999999999

_space_group_name_H-M_alt    "P 1"
_space_group_IT_number       1

loop_
  _space_group_symop_operation_xyz
  'x, y, z'

loop_
  _atom_site_type_symbol
  _atom_site_label
  _atom_site_symmetry_multiplicity
  _atom_site_fract_x
  _atom_site_fract_y
  _atom_site_fract_z
  _atom_site_occupancy
  Zn  Zn1       1.0  0.7923799999999996  0.7924300000000001  0.7953499999999998  1.0000
  Zn  Zn2       1.0  0.79407  0.7930999999999998  0.6197299999999998  1.0000
  Zn  Zn3       1.0  0.7939600000000001  0.6185100000000001  0.7918599999999999  1.0000
  Zn  Zn4       1.0  0.6194800000000001  0.7940699999999999  0.79222  1.0000
  Zn  Zn5       1.0  0.20552999999999996  0.20529  0.20808  1.0000
  Zn  Zn6       1.0  0.20798999999999998  0.20788  0.37961  1.0000
  Zn  Zn7       1.0  0.38016  0.20645  0.20679  1.0000
  Zn  Zn8       1.0  0.20533000000000004  0.38137  0.20622999999999994  1.0000
  H   H1        1.0  0.9414900000000003  0.9628399999999999  0.6680599999999998  1.0000
  H   H2        1.0  0.95531  0.94617  0.4374899999999999  1.0000
  H   H3        1.0  0.6611399999999998  0.43384000000000006  0.92645  1.0000
  H   H4        1.0  0.434  0.66379  0.96899  1.0000
  H   H5        1.0  0.9416099999999998  0.66573  0.43003999999999987  1.0000
  H   H6        1.0  0.9721900000000001  0.43506  0.66026  1.0000
  H   H7        1.0  0.66295  0.95038  0.95372  1.0000
  H   H8        1.0  0.4296900000000003  0.9474  0.9563999999999998  1.0000
  H   H9        1.0  0.9667499999999999  0.43037  0.9361099999999998  1.0000
  H   H10       1.0  0.93829  0.6614500000000001  0.9661699999999998  1.0000
  H   H11       1.0  0.6653400000000002  0.95066  0.4324399999999999  1.0000
  H   H12       1.0  0.43222999999999984  0.9368000000000001  0.66259  1.0000
  H   H13       1.0  0.05082000000000001  0.04392  0.3407  1.0000
  H   H14       1.0  0.03721999999999998  0.0606  0.57115  1.0000
  H   H15       1.0  0.56376  0.3379799999999999  0.02279  1.0000
  H   H16       1.0  0.33698  0.5676  0.06663999999999998  1.0000
  H   H17       1.0  0.33670999999999995  0.03491  0.56563  1.0000
  H   H18       1.0  0.5697100000000002  0.049540000000000035  0.3354899999999999  1.0000
  H   H19       1.0  0.06447999999999998  0.33395  0.03096  1.0000
  H   H20       1.0  0.03629999999999996  0.5647000000000001  0.060959999999999986  1.0000
  H   H21       1.0  0.56729  0.04512  0.05155999999999999  1.0000
  H   H22       1.0  0.33408  0.04223  0.05395  1.0000
  H   H23       1.0  0.07058999999999996  0.33851  0.56393  1.0000
  H   H24       1.0  0.03836000000000001  0.56894  0.33420999999999995  1.0000
  C   C1        1.0  0.8873300000000001  0.8897800000000001  0.6151199999999998  1.0000
  C   C2        1.0  0.6110999999999998  0.6109300000000001  0.8856099999999998  1.0000
  C   C3        1.0  0.89296  0.61275  0.6081199999999998  1.0000
  C   C4        1.0  0.6091499999999997  0.88828  0.89003  1.0000
  C   C5        1.0  0.8881100000000001  0.60877  0.8898099999999998  1.0000
  C   C6        1.0  0.61155  0.88324  0.61043  1.0000
  C   C7        1.0  0.10672999999999995  0.11534000000000004  0.3921999999999999  1.0000
  C   C8        1.0  0.38685  0.3907  0.10783  1.0000
  C   C9        1.0  0.39037999999999995  0.10860999999999996  0.38787  1.0000
  C   C10       1.0  0.11209  0.38675  0.10978999999999998  1.0000
  C   C11       1.0  0.38793  0.10692  0.11525999999999997  1.0000
  C   C12       1.0  0.11587999999999996  0.39125  0.38683  1.0000
  C   C13       1.0  0.96604  0.9809100000000001  0.59645  1.0000
  C   C14       1.0  0.9736  0.97165  0.46586  1.0000
  C   C15       1.0  0.5901300000000002  0.46227000000000007  0.9570599999999998  1.0000
  C   C16       1.0  0.4615300000000001  0.5925799999999998  0.9810399999999998  1.0000
  C   C17       1.0  0.96983  0.59418  0.4586599999999999  1.0000
  C   C18       1.0  0.98724  0.46342  0.58895  1.0000
  C   C19       1.0  0.5909999999999999  0.97103  0.9760299999999998  1.0000
  C   C20       1.0  0.4590100000000001  0.9693399999999999  0.97741  1.0000
  C   C21       1.0  0.9823199999999999  0.4590100000000001  0.9638099999999997  1.0000
  C   C22       1.0  0.96628  0.5898300000000001  0.98072  1.0000
  C   C23       1.0  0.5934600000000002  0.9694199999999996  0.4606899999999999  1.0000
  C   C24       1.0  0.4616000000000001  0.96152  0.5910599999999998  1.0000
  C   C25       1.0  0.02632000000000004  0.025830000000000033  0.4122599999999999  1.0000
  C   C26       1.0  0.018810000000000004  0.035190000000000006  0.54276  1.0000
  C   C27       1.0  0.53624  0.4092  0.010459999999999997  1.0000
  C   C28       1.0  0.40774000000000005  0.53945  0.0348  1.0000
  C   C29       1.0  0.40861  0.015930000000000003  0.53732  1.0000
  C   C30       1.0  0.5404599999999998  0.024100000000000045  0.4069799999999999  1.0000
  C   C31       1.0  0.03645999999999997  0.40554  0.01642  1.0000
  C   C32       1.0  0.020500000000000004  0.53634  0.03321  1.0000
  C   C33       1.0  0.5380199999999999  0.02359  0.0301  1.0000
  C   C34       1.0  0.40603  0.02188  0.03149  1.0000
  C   C35       1.0  0.04143000000000005  0.41003000000000006  0.5358099999999998  1.0000
  C   C36       1.0  0.023510000000000055  0.54077  0.4055299999999999  1.0000
  C   C37       1.0  0.9433800000000002  0.9486499999999998  0.5582299999999999  1.0000
  C   C38       1.0  0.5530599999999998  0.5541400000000001  0.9420599999999998  1.0000
  C   C39       1.0  0.9510699999999999  0.5557  0.55071  1.0000
  C   C40       1.0  0.5518800000000001  0.9438399999999999  0.9490599999999998  1.0000
  C   C41       1.0  0.9466899999999999  0.55139  0.94591  1.0000
  C   C42       1.0  0.5543600000000001  0.9385299999999998  0.5529999999999998  1.0000
  C   C43       1.0  0.04927  0.05788  0.45036  1.0000
  C   C44       1.0  0.4447600000000001  0.44759  0.049649999999999986  1.0000
  C   C45       1.0  0.4477  0.04807999999999999  0.44507  1.0000
  C   C46       1.0  0.055530000000000086  0.4438799999999999  0.05171999999999999  1.0000
  C   C47       1.0  0.44512999999999997  0.04964  0.05789  1.0000
  C   C48       1.0  0.059450000000000044  0.44849999999999995  0.44389999999999996  1.0000
  O   O1        1.0  0.75011  0.74934  0.74972  1.0000
  O   O2        1.0  0.2496900000000002  0.25055  0.24981999999999996  1.0000
  O   O3        1.0  0.86781  0.86467  0.69888  1.0000
  O   O4        1.0  0.8637200000000002  0.8693999999999998  0.57494  1.0000
  O   O5        1.0  0.6948499999999999  0.5709200000000001  0.8585799999999998  1.0000
  O   O6        1.0  0.5720700000000001  0.69471  0.8693999999999997  1.0000
  O   O7        1.0  0.8701800000000001  0.6968899999999996  0.56868  1.0000
  O   O8        1.0  0.8709199999999999  0.57279  0.69172  1.0000
  O   O9        1.0  0.69317  0.8656400000000001  0.8687899999999997  1.0000
  O   O10       1.0  0.5694499999999999  0.8682900000000002  0.8653699999999998  1.0000
  O   O11       1.0  0.8685200000000003  0.56908  0.8646899999999997  1.0000
  O   O12       1.0  0.8624500000000003  0.6927299999999995  0.87168  1.0000
  O   O13       1.0  0.6955000000000001  0.8626999999999999  0.57124  1.0000
  O   O14       1.0  0.5715899999999999  0.8618500000000001  0.69407  1.0000
  O   O15       1.0  0.12891000000000008  0.136  0.30861  1.0000
  O   O16       1.0  0.12908  0.13876000000000002  0.43086  1.0000
  O   O17       1.0  0.42603  0.3065599999999999  0.12758  1.0000
  O   O18       1.0  0.30311000000000005  0.43094  0.13302999999999995  1.0000
  O   O19       1.0  0.30649  0.12860000000000002  0.4274399999999999  1.0000
  O   O20       1.0  0.4298  0.13567  0.30434  1.0000
  O   O21       1.0  0.13784000000000002  0.30263  0.12871999999999997  1.0000
  O   O22       1.0  0.12964999999999996  0.42706  0.13601999999999995  1.0000
  O   O23       1.0  0.42791  0.12882  0.13773  1.0000
  O   O24       1.0  0.30388000000000004  0.12923000000000004  0.13699999999999996  1.0000
  O   O25       1.0  0.14182999999999996  0.3072800000000001  0.4261999999999999  1.0000
  O   O26       1.0  0.13315  0.43104  0.30334  1.0000
