data_image0
_chemical_formula_structural       Co6H42C78N6O24
_chemical_formula_sum              "Co6 H42 C78 N6 O24"
_cell_length_a       11.0778
_cell_length_b       11.0778
_cell_length_c       27.8793
_cell_angle_alpha    90.0
_cell_angle_beta     90.0
_cell_angle_gamma    119.99999999999999

_symmetry_space_group_name_H-M    'P 1'
_symmetry_Int_Tables_number       1

loop_
  _symmetry_equiv_pos_as_xyz
  'x,y,z'

loop_
  _atom_site_type_symbol
  _atom_site_label
  _atom_site_symmetry_multiplicity
  _atom_site_fract_x
  _atom_site_fract_y
  _atom_site_fract_z
  _atom_site_occupancy
  Co  Co1       1.0  0.92015  0.17075  0.0292  1.0000
  Co  Co2       1.0  0.2506  0.07985  0.36253  1.0000
  Co  Co3       1.0  0.8292500000000002  0.7494  0.69586  1.0000
  Co  Co4       1.0  0.7494  0.82925  0.9708000000000002  1.0000
  Co  Co5       1.0  0.17075  0.92015  0.63747  1.0000
  Co  Co6       1.0  0.07985  0.2506  0.30414  1.0000
  H   H1        1.0  0.9357000000000001  0.4414  0.0003  1.0000
  H   H2        1.0  0.6574  0.5024  0.07230000000000002  1.0000
  H   H3        1.0  0.7451  0.2078  0.1106  1.0000
  H   H4        1.0  0.689  0.2454  0.18460000000000001  1.0000
  H   H5        1.0  0.5447  0.1971  0.2503  1.0000
  H   H6        1.0  0.3011  0.2971  0.1745  1.0000
  H   H7        1.0  0.4447  0.3473  0.1089  1.0000
  H   H8        1.0  0.5057  0.0643  0.33363000000000004  1.0000
  H   H9        1.0  0.845  0.3426  0.40563  1.0000
  H   H10       1.0  0.4627  0.2549  0.4439300000000001  1.0000
  H   H11       1.0  0.5564  0.311  0.51793  1.0000
  H   H12       1.0  0.6524  0.4553  0.58363  1.0000
  H   H13       1.0  0.9960000000000001  0.6988999999999997  0.50783  1.0000
  H   H14       1.0  0.9026  0.5553  0.44223  1.0000
  H   H15       1.0  0.5586  0.49429999999999996  0.66697  1.0000
  H   H16       1.0  0.4976  0.15499999999999997  0.7389700000000001  1.0000
  H   H17       1.0  0.7922  0.5373  0.77727  1.0000
  H   H18       1.0  0.7546000000000002  0.44359999999999994  0.85127  1.0000
  H   H19       1.0  0.8029  0.3476  0.9169700000000002  1.0000
  H   H20       1.0  0.7029  0.004  0.84117  1.0000
  H   H21       1.0  0.6527  0.09739999999999999  0.77557  1.0000
  H   H22       1.0  0.4942999999999999  0.5585999999999999  0.9997  1.0000
  H   H23       1.0  0.155  0.4976  0.9277000000000002  1.0000
  H   H24       1.0  0.5373000000000001  0.7921999999999999  0.8894  1.0000
  H   H25       1.0  0.4436  0.7545999999999999  0.8154  1.0000
  H   H26       1.0  0.3476  0.8029  0.7497  1.0000
  H   H27       1.0  0.00400000000000001  0.7029  0.8255  1.0000
  H   H28       1.0  0.09739999999999993  0.6526999999999998  0.8911  1.0000
  H   H29       1.0  0.44140000000000007  0.9357  0.6663700000000002  1.0000
  H   H30       1.0  0.5024  0.6574  0.59437  1.0000
  H   H31       1.0  0.20779999999999996  0.7451  0.55607  1.0000
  H   H32       1.0  0.2454  0.689  0.48207  1.0000
  H   H33       1.0  0.1971  0.5447  0.41637  1.0000
  H   H34       1.0  0.2971  0.3011  0.49217  1.0000
  H   H35       1.0  0.3473000000000001  0.4447  0.55777  1.0000
  H   H36       1.0  0.06429999999999997  0.5057  0.33303000000000005  1.0000
  H   H37       1.0  0.3426  0.845  0.26103  1.0000
  H   H38       1.0  0.25489999999999996  0.46269999999999994  0.22273  1.0000
  H   H39       1.0  0.31100000000000005  0.5564  0.14873000000000003  1.0000
  H   H40       1.0  0.4553  0.6524  0.08303  1.0000
  H   H41       1.0  0.6989  0.996  0.15883  1.0000
  H   H42       1.0  0.5553  0.9025999999999998  0.22443  1.0000
  C   C1        1.0  0.8709  0.41659999999999997  0.02496  1.0000
  C   C2        1.0  0.8009  0.4909  0.03023  1.0000
  C   C3        1.0  0.7057  0.45459999999999995  0.06794  1.0000
  C   C4        1.0  0.6837  0.3479  0.09859  1.0000
  C   C5        1.0  0.7586  0.2794  0.08999000000000001  1.0000
  C   C6        1.0  0.5865  0.3075  0.14004  1.0000
  C   C7        1.0  0.6125  0.2585  0.18254  1.0000
  C   C8        1.0  0.5254  0.22889999999999996  0.22203  1.0000
  C   C9        1.0  0.411  0.24629999999999996  0.21969  1.0000
  C   C10       1.0  0.3804  0.2888  0.17679000000000006  1.0000
  C   C11       1.0  0.4666  0.319  0.13744  1.0000
  C   C12       1.0  0.8268  0.6049  0.9950100000000002  1.0000
  C   C13       1.0  0.3208  0.2243  0.26363  1.0000
  C   C14       1.0  0.5457  0.1291  0.35829  1.0000
  C   C15       1.0  0.69  0.19909999999999997  0.36356  1.0000
  C   C16       1.0  0.7489  0.2943  0.4012700000000001  1.0000
  C   C17       1.0  0.6642  0.3163  0.4319200000000001  1.0000
  C   C18       1.0  0.5208  0.2414  0.42332  1.0000
  C   C19       1.0  0.721  0.4135  0.47337  1.0000
  C   C20       1.0  0.646  0.38749999999999996  0.51587  1.0000
  C   C21       1.0  0.7035  0.4746  0.55536  1.0000
  C   C22       1.0  0.8353000000000002  0.589  0.55302  1.0000
  C   C23       1.0  0.9084  0.6196  0.51012  1.0000
  C   C24       1.0  0.8524  0.5334  0.47077  1.0000
  C   C25       1.0  0.7781000000000001  0.1732  0.32834  1.0000
  C   C26       1.0  0.9035  0.6791999999999999  0.59696  1.0000
  C   C27       1.0  0.5834  0.4542999999999999  0.6916300000000001  1.0000
  C   C28       1.0  0.5091  0.30999999999999994  0.6969  1.0000
  C   C29       1.0  0.5454  0.2511  0.73461  1.0000
  C   C30       1.0  0.6521  0.33579999999999993  0.7652600000000003  1.0000
  C   C31       1.0  0.7206  0.4792  0.7566600000000001  1.0000
  C   C32       1.0  0.6925  0.279  0.80671  1.0000
  C   C33       1.0  0.7415000000000002  0.35399999999999987  0.84921  1.0000
  C   C34       1.0  0.7711  0.29649999999999993  0.8887  1.0000
  C   C35       1.0  0.7537  0.16469999999999999  0.88636  1.0000
  C   C36       1.0  0.7112  0.0916  0.8434600000000002  1.0000
  C   C37       1.0  0.681  0.1476  0.80411  1.0000
  C   C38       1.0  0.3951  0.22189999999999996  0.66168  1.0000
  C   C39       1.0  0.7757  0.0965  0.9303000000000001  1.0000
  C   C40       1.0  0.4542999999999999  0.5833999999999999  0.9750400000000002  1.0000
  C   C41       1.0  0.31  0.5091  0.96977  1.0000
  C   C42       1.0  0.2511  0.5454  0.93206  1.0000
  C   C43       1.0  0.3358  0.6521  0.90141  1.0000
  C   C44       1.0  0.4792000000000001  0.7206  0.9100100000000002  1.0000
  C   C45       1.0  0.2789999999999999  0.6924999999999998  0.85996  1.0000
  C   C46       1.0  0.3539999999999999  0.7415  0.81746  1.0000
  C   C47       1.0  0.29649999999999993  0.7710999999999999  0.77797  1.0000
  C   C48       1.0  0.1647000000000001  0.7537  0.78031  1.0000
  C   C49       1.0  0.09159999999999999  0.7112  0.8232100000000001  1.0000
  C   C50       1.0  0.1476  0.681  0.86256  1.0000
  C   C51       1.0  0.2219  0.3951  0.0049900000000000005  1.0000
  C   C52       1.0  0.09650000000000007  0.7757  0.7363700000000002  1.0000
  C   C53       1.0  0.4166000000000001  0.8709  0.64171  1.0000
  C   C54       1.0  0.4909  0.8009  0.63644  1.0000
  C   C55       1.0  0.45460000000000006  0.7057  0.59873  1.0000
  C   C56       1.0  0.34790000000000004  0.6837  0.56808  1.0000
  C   C57       1.0  0.2794000000000001  0.7586  0.57668  1.0000
  C   C58       1.0  0.3075  0.5865  0.52663  1.0000
  C   C59       1.0  0.2585  0.6125  0.48413  1.0000
  C   C60       1.0  0.2289  0.5254  0.4446400000000001  1.0000
  C   C61       1.0  0.24629999999999994  0.41099999999999987  0.44698  1.0000
  C   C62       1.0  0.2888  0.3804  0.48988000000000004  1.0000
  C   C63       1.0  0.319  0.4665999999999999  0.52923  1.0000
  C   C64       1.0  0.6049  0.8268  0.6716600000000001  1.0000
  C   C65       1.0  0.2243  0.3208  0.40304  1.0000
  C   C66       1.0  0.1291  0.5457  0.30837  1.0000
  C   C67       1.0  0.19910000000000003  0.69  0.3031  1.0000
  C   C68       1.0  0.2943000000000001  0.7489  0.26539  1.0000
  C   C69       1.0  0.3162999999999999  0.6641999999999999  0.23474  1.0000
  C   C70       1.0  0.2414  0.5208  0.24334000000000006  1.0000
  C   C71       1.0  0.4135  0.7209999999999999  0.19329  1.0000
  C   C72       1.0  0.3875  0.646  0.15079  1.0000
  C   C73       1.0  0.4745999999999999  0.7034999999999999  0.1113  1.0000
  C   C74       1.0  0.589  0.8353  0.11364000000000003  1.0000
  C   C75       1.0  0.6196  0.9083999999999998  0.15654  1.0000
  C   C76       1.0  0.5334  0.8524  0.19589  1.0000
  C   C77       1.0  0.1732  0.7781  0.33832  1.0000
  C   C78       1.0  0.6792  0.9034999999999997  0.0697  1.0000
  N   N1        1.0  0.8490000000000001  0.3113  0.0537  1.0000
  N   N2        1.0  0.4623  0.151  0.3870300000000001  1.0000
  N   N3        1.0  0.6887  0.5376999999999998  0.72037  1.0000
  N   N4        1.0  0.5377  0.6887  0.9463  1.0000
  N   N5        1.0  0.3113  0.849  0.61297  1.0000
  N   N6        1.0  0.151  0.4623  0.27963  1.0000
  O   O1        1.0  0.9036  0.6226  0.96022  1.0000
  O   O2        1.0  0.7684000000000001  0.6754  0.005300000000000001  1.0000
  O   O3        1.0  0.3535  0.1855  0.30121000000000003  1.0000
  O   O4        1.0  0.22399999999999998  0.24889999999999995  0.25884  1.0000
  O   O5        1.0  0.719  0.0964  0.2935500000000001  1.0000
  O   O6        1.0  0.907  0.2316  0.33863000000000004  1.0000
  O   O7        1.0  0.832  0.6465  0.6345400000000001  1.0000
  O   O8        1.0  0.02489999999999989  0.7759999999999999  0.59217  1.0000
  O   O9        1.0  0.37740000000000007  0.28099999999999997  0.62689  1.0000
  O   O10       1.0  0.3246  0.093  0.67197  1.0000
  O   O11       1.0  0.8145  0.168  0.96788  1.0000
  O   O12       1.0  0.7511  0.9750999999999999  0.9255100000000003  1.0000
  O   O13       1.0  0.281  0.3774  0.03978  1.0000
  O   O14       1.0  0.09300000000000001  0.3246  0.9947  1.0000
  O   O15       1.0  0.16799999999999993  0.8145  0.69879  1.0000
  O   O16       1.0  0.9751000000000001  0.7511  0.74116  1.0000
  O   O17       1.0  0.6226  0.9036  0.70645  1.0000
  O   O18       1.0  0.6754  0.7683999999999999  0.6613700000000002  1.0000
  O   O19       1.0  0.18549999999999997  0.3534999999999999  0.36546  1.0000
  O   O20       1.0  0.24890000000000004  0.224  0.40783  1.0000
  O   O21       1.0  0.09639999999999992  0.7189999999999999  0.37311  1.0000
  O   O22       1.0  0.23160000000000008  0.907  0.32803000000000004  1.0000
  O   O23       1.0  0.6465  0.832  0.03212  1.0000
  O   O24       1.0  0.7760000000000001  0.0249  0.07449  1.0000
