data_image0
_chemical_formula_structural       Ca4Cd4H24C64O32
_chemical_formula_sum              "Ca4 Cd4 H24 C64 O32"
_cell_length_a       14.25450359
_cell_length_b       9.84317808
_cell_length_c       20.96113815
_cell_angle_alpha    102.28146437
_cell_angle_beta     90.00058874999999
_cell_angle_gamma    89.99913848999999

_symmetry_space_group_name_H-M    'P 1'
_symmetry_Int_Tables_number       1

loop_
  _symmetry_equiv_pos_as_xyz
  'x,y,z'

loop_
  _atom_site_type_symbol
  _atom_site_label
  _atom_site_symmetry_multiplicity
  _atom_site_fract_x
  _atom_site_fract_y
  _atom_site_fract_z
  _atom_site_occupancy
  Ca  Ca1       1.0  0.7274921199999999  0.77592804  0.342658  1.0000
  Ca  Ca2       1.0  0.27251721  0.22406317  0.65734547  1.0000
  Ca  Ca3       1.0  0.22748463999999993  0.72405171  0.15734606  1.0000
  Ca  Ca4       1.0  0.7725088799999998  0.27594122  0.84265426  1.0000
  Cd  Cd1       1.0  0.5507904  0.58907948  0.23882288000000002  1.0000
  Cd  Cd2       1.0  0.9492049499999998  0.08908828000000006  0.7388256400000001  1.0000
  Cd  Cd3       1.0  0.44921054  0.41092768  0.76118149  1.0000
  Cd  Cd4       1.0  0.05079655  0.91092209  0.26117308  1.0000
  H   H1        1.0  0.79460243  0.22183735  0.27192015  1.0000
  H   H2        1.0  0.7927457599999997  0.028775819999999994  0.43815772  1.0000
  H   H3        1.0  0.7072528399999998  0.52878968  0.93815421  1.0000
  H   H4        1.0  0.20725052999999993  0.97121847  0.56184238  1.0000
  H   H5        1.0  0.9752347299999998  0.7087262  0.99743579  1.0000
  H   H6        1.0  0.12806736999999999  0.1035649  0.05845877000000001  1.0000
  H   H7        1.0  0.18153002  0.8099165399999999  0.45440045000000007  1.0000
  H   H8        1.0  0.8908477699999998  0.6941900099999999  0.19305872  1.0000
  H   H9        1.0  0.31847149  0.30990275999999994  0.95439875  1.0000
  H   H10       1.0  0.68152506  0.69009471  0.04560117  1.0000
  H   H11       1.0  0.29460729  0.27812082999999993  0.22807385  1.0000
  H   H12       1.0  0.60915362  0.19420156999999993  0.69306052  1.0000
  H   H13       1.0  0.8184695999999998  0.1900894  0.54559981  1.0000
  H   H14       1.0  0.024758399999999996  0.29127661  0.00256281  1.0000
  H   H15       1.0  0.10914719999999997  0.3058092  0.80694141  1.0000
  H   H16       1.0  0.3719358999999999  0.60356817  0.55846638  1.0000
  H   H17       1.0  0.39084826  0.8058045  0.30693949  1.0000
  H   H18       1.0  0.70539635  0.72187426  0.77192505  1.0000
  H   H19       1.0  0.8719429299999999  0.89642878  0.9415353800000001  1.0000
  H   H20       1.0  0.47524041  0.7912665099999999  0.50256282  1.0000
  H   H21       1.0  0.52475687  0.20874044  0.49743857  1.0000
  H   H22       1.0  0.62806202  0.39642743  0.44153095  1.0000
  H   H23       1.0  0.2927500399999999  0.47121446  0.06184818  1.0000
  H   H24       1.0  0.20539544  0.77815078  0.72807816  1.0000
  C   C1        1.0  0.32624842999999987  0.6861642799999998  0.58429671  1.0000
  C   C2        1.0  0.91947785  0.70712161  0.03284507  1.0000
  C   C3        1.0  0.8251066199999998  0.7047953  0.01396232  1.0000
  C   C4        1.0  0.4565910999999999  0.19457631999999994  0.61692231  1.0000
  C   C5        1.0  0.7031716399999998  0.20818542  0.44641162  1.0000
  C   C6        1.0  0.27879352  0.80781851  0.3757427400000001  1.0000
  C   C7        1.0  0.7937799599999997  0.8188810199999998  0.85311165  1.0000
  C   C8        1.0  0.17375393999999994  0.18615697  0.08429475  1.0000
  C   C9        1.0  0.20195564999999993  0.8881655499999999  0.64918164  1.0000
  C   C10       1.0  0.20506259999999996  0.82233935  0.32705212  1.0000
  C   C11       1.0  0.22120561999999994  0.30781599  0.87574044  1.0000
  C   C12       1.0  0.7050693  0.6776605699999999  0.1729573  1.0000
  C   C13       1.0  0.9434683799999998  0.70242095  0.09719293  1.0000
  C   C14       1.0  0.7980417  0.11183086999999999  0.35081659  1.0000
  C   C15       1.0  0.7949358399999997  0.17766732000000002  0.6729489  1.0000
  C   C16       1.0  0.23410188999999995  0.89216516  0.58653869  1.0000
  C   C17       1.0  0.6786241399999999  0.44103348  0.32475976  1.0000
  C   C18       1.0  0.043409379999999984  0.69456822  0.11691999  1.0000
  C   C19       1.0  0.7679203799999998  0.21771458  0.32021885  1.0000
  C   C20       1.0  0.24477643999999998  0.3054871400000001  0.9402042500000001  1.0000
  C   C21       1.0  0.6270365099999999  0.19808719  0.64304116  1.0000
  C   C22       1.0  0.8686853699999999  0.005743740000000016  0.31961088  1.0000
  C   C23       1.0  0.7968243099999999  0.7081986300000002  0.9464139800000001  1.0000
  C   C24       1.0  0.55652847  0.20242945  0.59719313  1.0000
  C   C25       1.0  0.7212078999999999  0.19218878  0.62425766  1.0000
  C   C26       1.0  0.17861655999999998  0.05894651000000001  0.17523557  1.0000
  C   C27       1.0  0.7320733199999998  0.7177400999999999  0.82022206  1.0000
  C   C28       1.0  0.6748892799999998  0.20480026000000004  0.51396253  1.0000
  C   C29       1.0  0.7341033299999999  0.6078452  0.9134594999999999  1.0000
  C   C30       1.0  0.3213732  0.55895403  0.67523551  1.0000
  C   C31       1.0  0.3729682399999999  0.8019204499999999  0.3569598  1.0000
  C   C32       1.0  0.7787917899999998  0.69218157  0.12425921  1.0000
  C   C33       1.0  0.8729647  0.69807356  0.14304038  1.0000
  C   C34       1.0  0.2658995  0.39215665  0.08654176  1.0000
  C   C35       1.0  0.23207491999999993  0.7822773499999999  0.67977927  1.0000
  C   C36       1.0  0.82138887  0.9410465100000001  0.8247610100000001  1.0000
  C   C37       1.0  0.20317672999999994  0.29180769  0.0535867  1.0000
  C   C38       1.0  0.13131952999999996  0.99426153  0.6803887  1.0000
  C   C39       1.0  0.29492942  0.32233943  0.82704529  1.0000
  C   C40       1.0  0.2937746799999999  0.68112732  0.64688766  1.0000
  C   C41       1.0  0.26793058999999997  0.28225391  0.17977668  1.0000
  C   C42       1.0  0.25522305  0.8054892  0.44020592  1.0000
  C   C43       1.0  0.58051718  0.20713132  0.53284639  1.0000
  C   C44       1.0  0.7062203899999998  0.31886597  0.35311021  1.0000
  C   C45       1.0  0.17488998  0.29521062  0.9860386500000001  1.0000
  C   C46       1.0  0.0805175  0.29288332  0.9671566  1.0000
  C   C47       1.0  0.12703031999999995  0.30192851  0.85696036  1.0000
  C   C48       1.0  0.36868564  0.49423582  0.18039451  1.0000
  C   C49       1.0  0.20622622999999995  0.18111257999999997  0.14688513  1.0000
  C   C50       1.0  0.3251112499999999  0.79520496  0.4860374  1.0000
  C   C51       1.0  0.7447781899999998  0.19451608  0.55979368  1.0000
  C   C52       1.0  0.2968246999999999  0.79181041  0.55358598  1.0000
  C   C53       1.0  0.8262512199999997  0.81383843  0.91570287  1.0000
  C   C54       1.0  0.7019553799999998  0.61185382  0.85081697  1.0000
  C   C55       1.0  0.29804997  0.3881436899999999  0.14918283  1.0000
  C   C56       1.0  0.7658937499999998  0.10782585000000006  0.41345907000000004  1.0000
  C   C57       1.0  0.7552189999999998  0.69451393  0.05979525  1.0000
  C   C58       1.0  0.5434135299999999  0.8054224799999999  0.38308291  1.0000
  C   C59       1.0  0.9565863799999997  0.30543456  0.88307991  1.0000
  C   C60       1.0  0.05652829  0.29758492  0.90280816  1.0000
  C   C61       1.0  0.4194833799999999  0.7928727499999998  0.4671544100000001  1.0000
  C   C62       1.0  0.6313138199999999  0.5057658  0.81960768  1.0000
  C   C63       1.0  0.4434735699999999  0.79757794  0.40280794  1.0000
  C   C64       1.0  0.6737485699999998  0.3138282700000001  0.4157010300000001  1.0000
  O   O1        1.0  0.9258982999999997  0.04231975  0.27959089  1.0000
  O   O2        1.0  0.8924240799999997  0.3398984199999999  0.92482663  1.0000
  O   O3        1.0  0.6256150799999998  0.41840681999999996  0.27497888  1.0000
  O   O4        1.0  0.77275382  0.20320282999999997  0.73317593  1.0000
  O   O5        1.0  0.9366406599999998  0.27964885  0.82074438  1.0000
  O   O6        1.0  0.8694160499999998  0.88732045  0.33521125  1.0000
  O   O7        1.0  0.87440345  0.9184210399999999  0.77498488  1.0000
  O   O8        1.0  0.10756847999999997  0.66009747  0.07517178  1.0000
  O   O9        1.0  0.7900691299999998  0.05845736999999996  0.8544140399999999  1.0000
  O   O10       1.0  0.22724309999999995  0.79680297  0.26682361  1.0000
  O   O11       1.0  0.3924318199999999  0.16009974999999996  0.57517433  1.0000
  O   O12       1.0  0.12560585  0.08158414000000001  0.22501504  1.0000
  O   O13       1.0  0.37438447999999996  0.58158375  0.72501604  1.0000
  O   O14       1.0  0.42589887  0.45767586  0.22041882000000002  1.0000
  O   O15       1.0  0.2900581  0.44154847  0.64557809  1.0000
  O   O16       1.0  0.6234849999999997  0.6363649  0.15193464  1.0000
  O   O17       1.0  0.20993483999999996  0.9415363699999999  0.1455838  1.0000
  O   O18       1.0  0.3765108  0.36364149  0.8480692  1.0000
  O   O19       1.0  0.07410541999999999  0.9576974699999999  0.72041226  1.0000
  O   O20       1.0  0.2727402  0.29679808  0.76682027  1.0000
  O   O21       1.0  0.5740991999999998  0.54233626  0.7795877  1.0000
  O   O22       1.0  0.87651354  0.13635285999999996  0.6519244  1.0000
  O   O23       1.0  0.36940565  0.61266283  0.16479567  1.0000
  O   O24       1.0  0.06335469  0.7203588199999998  0.17925605  1.0000
  O   O25       1.0  0.6075734199999999  0.8398875699999999  0.42483144000000006  1.0000
  O   O26       1.0  0.13059362  0.11268004999999996  0.66478518  1.0000
  O   O27       1.0  0.63058727  0.38733653999999995  0.8352056000000001  1.0000
  O   O28       1.0  0.4366453299999999  0.22036838  0.67925955  1.0000
  O   O29       1.0  0.12348550999999998  0.8636475  0.34807624  1.0000
  O   O30       1.0  0.7272598  0.7031953499999999  0.23318162  1.0000
  O   O31       1.0  0.5633636599999998  0.77963711  0.32074607  1.0000
  O   O32       1.0  0.7099402799999999  0.55843972  0.35441642  1.0000
