data_image0
_chemical_formula_structural       Sr2P4H28C12N4O12
_chemical_formula_sum              "Sr2 P4 H28 C12 N4 O12"
_cell_length_a       7.133
_cell_length_b       10.519
_cell_length_c       11.518999999999998
_cell_angle_alpha    74.03400000000002
_cell_angle_beta     83.17400000000002
_cell_angle_gamma    72.585

_symmetry_space_group_name_H-M    'P 1'
_symmetry_Int_Tables_number       1

loop_
  _symmetry_equiv_pos_as_xyz
  'x,y,z'

loop_
  _atom_site_type_symbol
  _atom_site_label
  _atom_site_symmetry_multiplicity
  _atom_site_fract_x
  _atom_site_fract_y
  _atom_site_fract_z
  _atom_site_occupancy
  Sr  Sr1       1.0  0.7792199999999999  0.40006999999999987  0.54096  1.0000
  Sr  Sr2       1.0  0.22077999999999998  0.5999299999999999  0.45904000000000006  1.0000
  P   P1        1.0  0.28767  0.32201  0.6766900000000001  1.0000
  P   P2        1.0  0.82273  0.25825999999999993  0.31639  1.0000
  P   P3        1.0  0.71233  0.6779899999999999  0.32331  1.0000
  P   P4        1.0  0.1772700000000001  0.7417399999999998  0.68361  1.0000
  H   H1        1.0  0.5458999999999996  0.15129999999999993  0.5325000000000001  1.0000
  H   H2        1.0  0.8795  0.5152999999999999  0.1459  1.0000
  H   H3        1.0  0.2386  0.034699999999999974  0.5570000000000002  1.0000
  H   H4        1.0  0.224  0.18819999999999995  0.4879000000000001  1.0000
  H   H5        1.0  0.7222000000000001  0.9441  0.6514  1.0000
  H   H6        1.0  0.5412999999999999  0.8862000000000001  0.6573  1.0000
  H   H7        1.0  0.3044  0.08819999999999997  0.7316000000000001  1.0000
  H   H8        1.0  0.5088999999999998  0.10619999999999995  0.7472000000000001  1.0000
  H   H9        1.0  0.7846  0.48289999999999966  0.9325  1.0000
  H   H10       1.0  0.662  0.6014  0.992  1.0000
  H   H11       1.0  0.1278  0.31449999999999995  0.1609  1.0000
  H   H12       1.0  0.06989999999999998  0.3072  0.036000000000000004  1.0000
  H   H13       1.0  0.6078  0.44209999999999994  0.18540000000000004  1.0000
  H   H14       1.0  0.706  0.3248  0.11980000000000003  1.0000
  H   H15       1.0  0.4541  0.8486999999999999  0.4675  1.0000
  H   H16       1.0  0.12049999999999994  0.4847  0.8541000000000001  1.0000
  H   H17       1.0  0.7614000000000002  0.9652999999999998  0.4430000000000001  1.0000
  H   H18       1.0  0.7760000000000001  0.8117999999999997  0.5121  1.0000
  H   H19       1.0  0.27779999999999994  0.05589999999999999  0.3486000000000001  1.0000
  H   H20       1.0  0.4587  0.11379999999999998  0.34270000000000006  1.0000
  H   H21       1.0  0.6955999999999999  0.9118  0.2684  1.0000
  H   H22       1.0  0.4910999999999999  0.8937999999999999  0.2528  1.0000
  H   H23       1.0  0.21540000000000004  0.5171  0.0675  1.0000
  H   H24       1.0  0.338  0.3986  0.008000000000000002  1.0000
  H   H25       1.0  0.8721999999999999  0.6854999999999997  0.8391000000000002  1.0000
  H   H26       1.0  0.9301  0.6927999999999999  0.9640000000000002  1.0000
  H   H27       1.0  0.3922  0.5579  0.8146  1.0000
  H   H28       1.0  0.29399999999999993  0.6751999999999998  0.8802000000000001  1.0000
  C   C1        1.0  0.3123  0.0957  0.5078  1.0000
  C   C2        1.0  0.6122000000000003  0.9483999999999999  0.6069  1.0000
  C   C3        1.0  0.401  0.13639999999999997  0.6931  1.0000
  C   C4        1.0  0.7931  0.5427999999999998  0.9812  1.0000
  C   C5        1.0  0.07460000000000004  0.3693999999999999  0.08340000000000002  1.0000
  C   C6        1.0  0.7316  0.3775  0.1703  1.0000
  C   C7        1.0  0.6877  0.9042999999999998  0.49220000000000014  1.0000
  C   C8        1.0  0.3878  0.05159999999999999  0.3931  1.0000
  C   C9        1.0  0.599  0.8636  0.3069  1.0000
  C   C10       1.0  0.2069  0.4571999999999999  0.0188  1.0000
  C   C11       1.0  0.9254  0.6305999999999999  0.9166000000000001  1.0000
  C   C12       1.0  0.26840000000000014  0.6224999999999999  0.8297000000000002  1.0000
  N   N1        1.0  0.478  0.09299999999999999  0.5783  1.0000
  N   N2        1.0  0.871  0.45699999999999996  0.10250000000000001  1.0000
  N   N3        1.0  0.5220000000000001  0.907  0.42170000000000013  1.0000
  N   N4        1.0  0.129  0.543  0.8975  1.0000
  O   O1        1.0  0.22230000000000005  0.3239  0.8075  1.0000
  O   O2        1.0  0.1197  0.3722  0.592  1.0000
  O   O3        1.0  0.44249999999999995  0.3973999999999999  0.6243000000000001  1.0000
  O   O4        1.0  0.9157999999999997  0.11979999999999998  0.2909  1.0000
  O   O5        1.0  0.9624999999999999  0.32  0.3575  1.0000
  O   O6        1.0  0.6393999999999997  0.2644  0.40060000000000007  1.0000
  O   O7        1.0  0.7777  0.6761  0.19250000000000003  1.0000
  O   O8        1.0  0.8803000000000001  0.6278  0.408  1.0000
  O   O9        1.0  0.5574999999999998  0.6026  0.37570000000000003  1.0000
  O   O10       1.0  0.08419999999999982  0.8802  0.7091  1.0000
  O   O11       1.0  0.037500000000000075  0.6799999999999999  0.6425000000000001  1.0000
  O   O12       1.0  0.3606000000000001  0.7355999999999997  0.5994  1.0000
