data_image0
_chemical_formula_structural       OHC2OHC4Ni3O10HC4NiO5C6FH2FC5F2C3HFC2HFC5H2CH2C5H3C2HCOCO2FHC6HCH2C4H2CFCHCHC4OCO2FHNiOHO2C4HC2FC3FCHC3O4HO2FNiONi2O2HOC2O3C3H2C6H2C2HC3H2C2HC4HCHCHCHCHCH3C3HC4HCHC2H2CHC3HCH2NiHC2OCO2HONi2O3NiO4C2HCFOC3OC3HCFCF2CHC2HFC3H2C5O2COFO3CNiOHNiOCOFOHO3HNiC3FC4HC2FC2FCHCFC3HCOC2OC2OCO2HNi2FNiOCO4HOCO2C2H2C3H2C3HCHCHCHC2
_chemical_formula_sum              "O78 H78 C180 Ni18 F24"
_cell_length_a       9.91904
_cell_length_b       10.10718
_cell_length_c       62.83298
_cell_angle_alpha    90.21068
_cell_angle_beta     90.21414000000001
_cell_angle_gamma    119.3612

_space_group_name_H-M_alt    "P 1"
_space_group_IT_number       1

loop_
  _space_group_symop_operation_xyz
  'x, y, z'

loop_
  _atom_site_type_symbol
  _atom_site_label
  _atom_site_symmetry_multiplicity
  _atom_site_fract_x
  _atom_site_fract_y
  _atom_site_fract_z
  _atom_site_occupancy
  O   O1        1.0  0.00821999999999999  0.98004  0.2798600000000001  1.0000
  H   H1        1.0  0.009940000000000043  0.98174  0.26421  1.0000
  C   C1        1.0  0.91362  0.45978  0.05152  1.0000
  C   C2        1.0  0.01558999999999998  0.53443  0.01475  1.0000
  O   O2        1.0  0.25053000000000003  0.2693100000000001  0.2677400000000001  1.0000
  H   H2        1.0  0.07346  0.53813  0.24064  1.0000
  C   C3        1.0  0.39598  0.44579  0.10440000000000002  1.0000
  C   C4        1.0  0.39671  0.43706  0.16993000000000003  1.0000
  C   C5        1.0  0.10311999999999996  0.60266  0.10398  1.0000
  C   C6        1.0  0.08953  0.61343  0.16855  1.0000
  Ni  Ni1       1.0  0.56203  0.68751  0.13706  1.0000
  Ni  Ni2       1.0  0.18508999999999998  0.4517  0.13709000000000005  1.0000
  Ni  Ni3       1.0  0.31222  0.81444  0.13637000000000005  1.0000
  O   O3        1.0  0.09062  0.47386  0.11033  1.0000
  O   O4        1.0  0.53126  0.5538  0.11081000000000003  1.0000
  O   O5        1.0  0.29003  0.36354  0.11851  1.0000
  O   O6        1.0  0.17983  0.75557  0.16243000000000005  1.0000
  O   O7        1.0  0.43139999999999995  0.90278  0.10934  1.0000
  O   O8        1.0  0.04191999999999999  0.4977  0.15494000000000005  1.0000
  O   O9        1.0  0.51549  0.50167  0.15662  1.0000
  O   O10       1.0  0.25208  0.38146  0.16314000000000006  1.0000
  O   O11       1.0  0.12159  0.70803  0.11789  1.0000
  O   O12       1.0  0.3577  0.65231  0.1397  1.0000
  H   H3        1.0  0.35827  0.65472  0.15535  1.0000
  C   C7        1.0  0.9420599999999999  0.71038  0.25157  1.0000
  C   C8        1.0  0.25971000000000005  0.17866000000000004  0.3170000000000001  1.0000
  C   C9        1.0  0.9423099999999999  0.71818  0.31529  1.0000
  C   C10       1.0  0.28188  0.19315  0.25298  1.0000
  Ni  Ni4       1.0  0.16962999999999992  0.93548  0.28395  1.0000
  O   O13       1.0  0.04884999999999999  0.73348  0.26623  1.0000
  O   O14       1.0  0.31433  0.12519  0.3022900000000001  1.0000
  O   O15       1.0  0.15609  0.21908  0.31228  1.0000
  O   O16       1.0  0.08769  0.81783  0.31199  1.0000
  O   O17       1.0  0.28284  0.0659  0.25772  1.0000
  C   C11       1.0  0.35907  0.22883  0.19381000000000007  1.0000
  C   C12       1.0  0.41922000000000004  0.385  0.19075  1.0000
  C   C13       1.0  0.4546200000000001  0.48103  0.20858  1.0000
  C   C14       1.0  0.4149399999999999  0.41932  0.22906000000000007  1.0000
  C   C15       1.0  0.33842  0.26112  0.23179  1.0000
  C   C16       1.0  0.31299  0.16631  0.21403  1.0000
  F   F1        1.0  0.23131  0.01318  0.21607  1.0000
  H   H4        1.0  0.33295999999999987  0.15393  0.18018  1.0000
  H   H5        1.0  0.43881  0.49415000000000003  0.24263000000000007  1.0000
  F   F2        1.0  0.51233  0.63226  0.20588000000000006  1.0000
  C   C17       1.0  0.9165999999999999  0.65746  0.19197000000000006  1.0000
  C   C18       1.0  0.009320000000000026  0.59009  0.18884  1.0000
  C   C19       1.0  0.05912000000000003  0.54052  0.20649  1.0000
  C   C20       1.0  0.03016000000000002  0.57259  0.22712  1.0000
  C   C21       1.0  0.95281  0.65607  0.23017000000000007  1.0000
  F   F3        1.0  0.8241  0.78183  0.21496  1.0000
  F   F4        1.0  0.14951999999999993  0.47600999999999993  0.20366  1.0000
  C   C22       1.0  0.4208100000000001  0.42934  0.36339  1.0000
  C   C23       1.0  0.4220400000000001  0.37753  0.34279  1.0000
  C   C24       1.0  0.33463000000000004  0.22232  0.33794  1.0000
  H   H6        1.0  0.47431999999999996  0.45912  0.33008  1.0000
  F   F5        1.0  0.48198  0.58023  0.36703  1.0000
  C   C25       1.0  0.97343  0.54468  0.33969  1.0000
  C   C26       1.0  0.90357  0.63348  0.33531  1.0000
  H   H7        1.0  0.00734999999999998  0.49649999999999994  0.32671  1.0000
  F   F6        1.0  0.10522999999999996  0.46735  0.36414  1.0000
  C   C27       1.0  0.02580000000000003  0.56514  0.0379  1.0000
  C   C28       1.0  0.9276899999999999  0.48331999999999997  0.07346  1.0000
  C   C29       1.0  0.056839999999999995  0.61054  0.08212  1.0000
  C   C30       1.0  0.16364  0.72114  0.06846  1.0000
  C   C31       1.0  0.1513  0.69587  0.0465  1.0000
  H   H8        1.0  0.26236000000000004  0.8211  0.07488  1.0000
  H   H9        1.0  0.24305  0.77298  0.03636  1.0000
  C   C32       1.0  0.59456  0.83765  0.044440000000000014  1.0000
  H   H10       1.0  0.59437  0.75261  0.0339  1.0000
  H   H11       1.0  0.60963  0.72654  0.07283000000000003  1.0000
  C   C33       1.0  0.4190999999999999  0.98384  0.00681  1.0000
  C   C34       1.0  0.27373  0.37336  0.04716  1.0000
  C   C35       1.0  0.25851  0.36675  0.06942  1.0000
  C   C36       1.0  0.38408  0.39012  0.0824  1.0000
  C   C37       1.0  0.51849  0.40592  0.07279  1.0000
  H   H12       1.0  0.17646  0.35378  0.03731000000000002  1.0000
  H   H13       1.0  0.15198  0.34994  0.07648  1.0000
  H   H14       1.0  0.61462  0.41986  0.08257  1.0000
  C   C38       1.0  0.5473599999999998  0.88586  0.10265  1.0000
  C   C39       1.0  0.60501  0.82368  0.06655  1.0000
  H   H15       1.0  0.34663999999999995  0.9957499999999999  0.01864  1.0000
  C   C40       1.0  0.41630999999999996  0.40912  0.03786  1.0000
  O   O18       1.0  0.50247  0.96224  0.15371  1.0000
  C   C41       1.0  0.5721400000000001  0.9197200000000001  0.16804  1.0000
  O   O19       1.0  0.6371  0.83784  0.16246  1.0000
  O   O20       1.0  0.6400099999999999  0.87183  0.11645  1.0000
  F   F7        1.0  0.36241  0.84506  0.20221  1.0000
  H   H16       1.0  0.41622  0.89855  0.36398000000000014  1.0000
  C   C42       1.0  0.58025  0.06773  0.05005000000000001  1.0000
  C   C43       1.0  0.57667  0.95727  0.03613  1.0000
  C   C44       1.0  0.59811  0.9292299999999999  0.08047  1.0000
  C   C45       1.0  0.59637  0.05664  0.07196  1.0000
  C   C46       1.0  0.53911  0.4285  0.05096  1.0000
  C   C47       1.0  0.43796  0.42337  0.01439  1.0000
  H   H17       1.0  0.6520599999999998  0.46649  0.04427  1.0000
  C   C48       1.0  0.39019  0.51099  0.00247  1.0000
  H   H18       1.0  0.56456  0.2997  0.013340000000000003  1.0000
  H   H19       1.0  0.32958  0.56266  0.0101  1.0000
  C   C49       1.0  0.5243  0.3648  0.00438  1.0000
  C   C50       1.0  0.61737  0.9982100000000002  0.18861  1.0000
  C   C51       1.0  0.51522  0.93922  0.20581  1.0000
  C   C52       1.0  0.53975  0.95445  0.3612400000000001  1.0000
  H   H20       1.0  0.5929  0.14003  0.08248  1.0000
  H   H21       1.0  0.56374  0.15871  0.044000000000000004  1.0000
  C   C53       1.0  0.59709  0.006240000000000005  0.3408500000000001  1.0000
  F   F8        1.0  0.49696  0.98389  0.32467  1.0000
  C   C54       1.0  0.5729000000000001  0.9624600000000001  0.22667  1.0000
  H   H22       1.0  0.49352  0.91182  0.23978000000000005  1.0000
  C   C55       1.0  0.77487  0.09627  0.19261  1.0000
  H   H23       1.0  0.85426  0.14486  0.17943  1.0000
  C   C56       1.0  0.7549  0.06267  0.33661000000000013  1.0000
  C   C57       1.0  0.7332  0.04315  0.23038  1.0000
  C   C58       1.0  0.8337999999999999  0.11333  0.21324  1.0000
  C   C59       1.0  0.79878  0.03179  0.31572  1.0000
  O   O21       1.0  0.71438  0.93926  0.26577  1.0000
  C   C60       1.0  0.79709  0.04807  0.2518  1.0000
  O   O22       1.0  0.8565900000000001  0.13926  0.3012400000000001  1.0000
  O   O23       1.0  0.75342  0.88987  0.31067  1.0000
  F   F9        1.0  0.9892299999999999  0.18444  0.21627000000000005  1.0000
  H   H24       1.0  0.95878  0.29973  0.01824  1.0000
  Ni  Ni5       1.0  0.79856  0.82394  0.28287  1.0000
  O   O24       1.0  0.9269399999999999  0.17142  0.25754  1.0000
  H   H25       1.0  0.8177799999999998  0.35776  0.04513  1.0000
  O   O25       1.0  0.8169800000000002  0.72014  0.25637  1.0000
  O   O26       1.0  0.84  0.675  0.2997  1.0000
  C   C61       1.0  0.5427  0.96142  0.013090000000000003  1.0000
  C   C62       1.0  0.27393  0.11783  0.3547000000000001  1.0000
  C   C63       1.0  0.02102000000000001  0.53774  0.36045  1.0000
  C   C64       1.0  0.8578599999999998  0.09446  0.35374  1.0000
  H   H26       1.0  0.98071  0.14426  0.3508100000000001  1.0000
  C   C65       1.0  0.27601  0.16926  0.3754800000000001  1.0000
  C   C66       1.0  0.3418  0.32511  0.37961  1.0000
  F   F10       1.0  0.19831  0.96676  0.35054000000000013  1.0000
  C   C67       1.0  0.9927800000000001  0.61441  0.377  1.0000
  C   C68       1.0  0.6404300000000002  0.96312  0.37755  1.0000
  C   C69       1.0  0.80069  0.04164  0.37412  1.0000
  F   F11       1.0  0.76899  0.7579  0.34858  1.0000
  C   C70       1.0  0.31537  0.37872  0.40006  1.0000
  H   H27       1.0  0.21911  0.08790999999999999  0.38808  1.0000
  C   C71       1.0  0.8988499999999999  0.67971  0.37316  1.0000
  C   C72       1.0  0.57734  0.88139  0.39750000000000013  1.0000
  C   C73       1.0  0.07512  0.64102  0.39738  1.0000
  O   O27       1.0  0.42495  0.42734  0.41491  1.0000
  O   O28       1.0  0.17802999999999997  0.36707  0.40386  1.0000
  O   O29       1.0  0.013829999999999993  0.53637  0.4124600000000001  1.0000
  O   O30       1.0  0.1948  0.77815  0.40144  1.0000
  H   H28       1.0  0.32703  0.63656  0.40922  1.0000
  O   O31       1.0  0.59748  0.76376  0.40216  1.0000
  O   O32       1.0  0.5262599999999998  0.9423799999999999  0.41192  1.0000
  F   F12       1.0  0.90009  0.05807999999999999  0.39012  1.0000
  Ni  Ni6       1.0  0.5134  0.63902  0.43004  1.0000
  O   O33       1.0  0.32789  0.64087  0.42486  1.0000
  Ni  Ni7       1.0  0.3237400000000001  0.82576  0.42827  1.0000
  Ni  Ni8       1.0  0.13607  0.46147  0.42986  1.0000
  O   O34       1.0  0.21578  0.34285  0.44688  1.0000
  O   O35       1.0  0.6445500000000001  0.84978  0.44443  1.0000
  H   H29       1.0  0.34369999999999995  0.14885  0.46262  1.0000
  O   O36       1.0  0.12616999999999995  0.75734  0.4446600000000001  1.0000
  C   C74       1.0  0.31849  0.40397  0.46225  1.0000
  C   C75       1.0  0.07607999999999997  0.65313  0.45957  1.0000
  O   O37       1.0  0.4443099999999999  0.88186  0.4562900000000001  1.0000
  O   O38       1.0  0.44171  0.53793  0.45974  1.0000
  O   O39       1.0  0.08922000000000001  0.53007  0.45763  1.0000
  C   C76       1.0  0.5892400000000001  0.9110700000000002  0.45776  1.0000
  C   C77       1.0  0.3305100000000001  0.18485  0.47837  1.0000
  C   C78       1.0  0.30916  0.3114  0.48085  1.0000
  H   H30       1.0  0.37041  0.018750000000000003  0.4942300000000001  1.0000
  H   H31       1.0  0.60965  0.17686  0.47109  1.0000
  C   C79       1.0  0.69335  0.016980000000000002  0.4741700000000001  1.0000
  C   C80       1.0  0.72487  0.58746  0.4906300000000001  1.0000
  C   C81       1.0  0.97881  0.6606  0.47651  1.0000
  C   C82       1.0  0.34323  0.10929  0.49628  1.0000
  C   C83       1.0  0.68502  0.14696  0.47979  1.0000
  C   C84       1.0  0.80919  0.99338  0.48324  1.0000
  H   H32       1.0  0.8255300000000001  0.90049  0.47782  1.0000
  H   H33       1.0  0.60151  0.52028  0.4892700000000001  1.0000
  C   C85       1.0  0.29281  0.35711  0.50133  1.0000
  C   C86       1.0  0.77462  0.23904  0.49669  1.0000
  H   H34       1.0  0.75686  0.33089  0.50198  1.0000
  C   C87       1.0  0.90349  0.08875  0.49949  1.0000
  C   C88       1.0  0.046130000000000004  0.73734  0.49553000000000014  1.0000
  C   C89       1.0  0.32649  0.15446  0.51678  1.0000
  H   H35       1.0  0.27670999999999996  0.45489999999999997  0.50344  1.0000
  H   H36       1.0  0.5715400000000002  0.1173  0.52912  1.0000
  C   C90       1.0  0.8788599999999999  0.20547  0.50751  1.0000
  C   C91       1.0  0.79162  0.66138  0.50986  1.0000
  H   H37       1.0  0.16835  0.78181  0.4983700000000001  1.0000
  C   C92       1.0  0.3  0.27824  0.51919  1.0000
  C   C93       1.0  0.34048  0.07535  0.53586  1.0000
  C   C94       1.0  0.48207  0.08249  0.54094  1.0000
  C   C95       1.0  0.94515  0.27688  0.5286900000000002  1.0000
  H   H38       1.0  0.9910799999999998  0.06763  0.5064  1.0000
  C   C96       1.0  0.97473  0.42469  0.53366  1.0000
  H   H39       1.0  0.9720300000000001  0.49666  0.52135  1.0000
  C   C97       1.0  0.6376  0.48417999999999994  0.53856  1.0000
  H   H40       1.0  0.6449900000000001  0.39399  0.53034  1.0000
  C   C98       1.0  0.69489  0.62646  0.52905  1.0000
  H   H41       1.0  0.28921  0.31588  0.53492  1.0000
  C   C99       1.0  0.51415  0.06186  0.56206  1.0000
  H   H42       1.0  0.63022  0.08737  0.56642  1.0000
  C   C100      1.0  0.22166999999999998  0.01652  0.55093  1.0000
  H   H43       1.0  0.1097  0.00259  0.54706  1.0000
  H   H44       1.0  0.54985  0.35491  0.56699  1.0000
  H   H45       1.0  0.93595  0.07552  0.54181  1.0000
  C   C101      1.0  0.96664  0.1921  0.54464  1.0000
  C   C102      1.0  0.5827099999999998  0.4618399999999999  0.55938  1.0000
  C   C103      1.0  0.99891  0.47545  0.55491  1.0000
  H   H46       1.0  0.99944  0.57995  0.559  1.0000
  C   C104      1.0  0.40413  0.03388  0.57794  1.0000
  C   C105      1.0  0.25170000000000015  0.9882600000000002  0.5716500000000002  1.0000
  C   C106      1.0  0.0070200000000000045  0.38332  0.57096  1.0000
  C   C107      1.0  0.6004400000000001  0.5853900000000001  0.5716100000000002  1.0000
  H   H47       1.0  0.71566  0.84861  0.5321  1.0000
  C   C108      1.0  0.68185  0.74145  0.53982  1.0000
  H   H48       1.0  0.16196999999999995  0.9540099999999999  0.58353  1.0000
  C   C109      1.0  0.015349999999999994  0.25373  0.56491  1.0000
  C   C110      1.0  0.63506  0.72119  0.56117  1.0000
  H   H49       1.0  0.032730000000000016  0.18672000000000002  0.5769200000000002  1.0000
  H   H50       1.0  0.64237  0.81628  0.57014  1.0000
  C   C111      1.0  0.98061  0.39001  0.00722  1.0000
  H   H51       1.0  0.76462  0.5285  0.45923000000000014  1.0000
  C   C112      1.0  0.85097  0.68571  0.35237  1.0000
  C   C113      1.0  0.8179699999999999  0.58884  0.47387  1.0000
  C   C114      1.0  0.95306  0.74072  0.51196  1.0000
  H   H52       1.0  0.004709999999999999  0.78648  0.52724  1.0000
  C   C115      1.0  0.89269  0.69508  0.21246  1.0000
  H   H53       1.0  0.87593  0.69429  0.1784  1.0000
  H   H54       1.0  0.8452099999999999  0.3961  0.08383  1.0000
  Ni  Ni9       1.0  0.045239999999999975  0.18215  0.28402  1.0000
  H   H55       1.0  0.87031  0.73316  0.38603  1.0000
  C   C116      1.0  0.94494  0.38331  0.59218  1.0000
  C   C117      1.0  0.4573  0.11251  0.5985  1.0000
  O   O40       1.0  0.41636  0.21543  0.6035500000000003  1.0000
  C   C118      1.0  0.65226  0.59374  0.59365  1.0000
  O   O41       1.0  0.52899  0.06859  0.61247  1.0000
  O   O42       1.0  0.8471099999999999  0.24868999999999997  0.6002  1.0000
  H   H56       1.0  0.69763  0.37684  0.60613  1.0000
  O   O43       1.0  0.80158  0.64798  0.5971  1.0000
  Ni  Ni10      1.0  0.50881  0.35821  0.6281600000000003  1.0000
  Ni  Ni11      1.0  0.73165  0.21489  0.62752  1.0000
  O   O44       1.0  0.70854  0.38711  0.6217000000000003  1.0000
  O   O45       1.0  0.55068  0.54223  0.60957  1.0000
  O   O46       1.0  0.008469999999999984  0.50954  0.60418  1.0000
  Ni  Ni12      1.0  0.8824400000000001  0.58453  0.62315  1.0000
  O   O47       1.0  0.41881  0.17122  0.64695  1.0000
  O   O48       1.0  0.64229  0.173  0.65673  1.0000
  O   O49       1.0  0.94343  0.3274  0.64158  1.0000
  O   O50       1.0  0.78834  0.6973  0.64064  1.0000
  C   C119      1.0  0.26465000000000005  0.9573899999999999  0.68101  1.0000
  C   C120      1.0  0.42529  0.05433000000000002  0.6803400000000002  1.0000
  H   H57       1.0  0.1954000000000001  0.9314500000000001  0.66663  1.0000
  C   C121      1.0  0.49954999999999994  0.13935000000000003  0.6607500000000002  1.0000
  F   F13       1.0  0.9120799999999999  0.9395700000000001  0.6658100000000001  1.0000
  O   O51       1.0  0.5888299999999999  0.4836599999999999  0.65493  1.0000
  C   C122      1.0  0.9760799999999998  0.43311  0.65604  1.0000
  C   C123      1.0  0.79562  0.85747  0.6795600000000003  1.0000
  C   C124      1.0  0.6782600000000001  0.63129  0.65497  1.0000
  O   O52       1.0  0.9799299999999999  0.56021  0.65095  1.0000
  C   C125      1.0  0.015579999999999976  0.41286  0.6778700000000002  1.0000
  C   C126      1.0  0.66711  0.71992  0.67308  1.0000
  C   C127      1.0  0.10852000000000002  0.34641  0.6816600000000003  1.0000
  H   H58       1.0  0.15747  0.31509  0.66848  1.0000
  C   C128      1.0  0.5143  0.07272  0.69879  1.0000
  F   F14       1.0  0.67095  0.15102  0.6981  1.0000
  C   C129      1.0  0.19277  0.89706  0.70046  1.0000
  F   F15       1.0  0.037800000000000014  0.8053  0.70113  1.0000
  F   F16       1.0  0.85718  0.51087  0.69169  1.0000
  C   C130      1.0  0.95723  0.45766  0.69512  1.0000
  H   H59       1.0  0.9155799999999998  0.0007399999999999999  0.70632  1.0000
  C   C131      1.0  0.80931  0.90395  0.70085  1.0000
  C   C132      1.0  0.53925  0.65007  0.68679  1.0000
  H   H60       1.0  0.43359999999999993  0.55205  0.68144  1.0000
  F   F17       1.0  0.22254  0.24933999999999998  0.70597  1.0000
  C   C133      1.0  0.1361  0.31759  0.7025200000000003  1.0000
  C   C134      1.0  0.44098  0.01613  0.7182400000000001  1.0000
  C   C135      1.0  0.27926999999999996  0.9414  0.71938  1.0000
  H   H61       1.0  0.5097  0.042970000000000015  0.7326900000000002  1.0000
  H   H62       1.0  0.9345699999999999  0.45854  0.72906  1.0000
  C   C136      1.0  0.9871199999999999  0.43098  0.71592  1.0000
  C   C137      1.0  0.69621  0.81243  0.71562  1.0000
  C   C138      1.0  0.5546  0.69491  0.70815  1.0000
  C   C139      1.0  0.06648999999999998  0.35056  0.71966  1.0000
  C   C140      1.0  0.2079199999999999  0.96173  0.73856  1.0000
  O   O53       1.0  0.22133999999999998  0.09576  0.74209  1.0000
  O   O54       1.0  0.1493200000000001  0.85389  0.75299  1.0000
  C   C141      1.0  0.7426  0.81174  0.7378  1.0000
  O   O55       1.0  0.8916599999999999  0.15894000000000003  0.7430200000000002  1.0000
  F   F18       1.0  0.43801000000000007  0.61421  0.72194  1.0000
  O   O56       1.0  0.84459  0.768  0.7419900000000003  1.0000
  O   O57       1.0  0.68142  0.85225  0.75321  1.0000
  O   O58       1.0  0.13926  0.31017  0.7545800000000003  1.0000
  C   C142      1.0  0.034760000000000006  0.26318  0.73931  1.0000
  Ni  Ni13      1.0  0.19214  0.16663  0.77054  1.0000
  O   O59       1.0  0.28796  0.05816  0.78658  1.0000
  H   H63       1.0  0.51944  0.07717  0.81057  1.0000
  Ni  Ni14      1.0  0.8196200000000001  0.04302  0.77144  1.0000
  O   O60       1.0  0.17527  0.26794  0.7974700000000002  1.0000
  C   C143      1.0  0.21321999999999988  0.95259  0.80124  1.0000
  O   O61       1.0  0.08229999999999991  0.82651  0.7966000000000002  1.0000
  F   F19       1.0  0.55402  0.45929  0.80729  1.0000
  O   O62       1.0  0.93888  0.24792  0.78844  1.0000
  H   H64       1.0  0.9331600000000004  0.46428  0.81153  1.0000
  O   O63       1.0  0.75402  0.71226  0.78661  1.0000
  O   O64       1.0  0.7177299999999999  0.91065  0.7981  1.0000
  O   O65       1.0  0.9868599999999998  0.006039999999999996  0.77472  1.0000
  H   H65       1.0  0.98883  0.005460000000000002  0.79038  1.0000
  Ni  Ni15      1.0  0.95872  0.80678  0.7701800000000002  1.0000
  C   C144      1.0  0.05043  0.27756  0.80259  1.0000
  C   C145      1.0  0.72064  0.78291  0.80196  1.0000
  C   C146      1.0  0.44633999999999996  0.038870000000000016  0.8245000000000002  1.0000
  F   F20       1.0  0.6707  0.13923  0.84654  1.0000
  C   C147      1.0  0.2848099999999999  0.96748  0.82231  1.0000
  C   C148      1.0  0.1914899999999999  0.91602  0.8404700000000003  1.0000
  C   C149      1.0  0.5143  0.06421  0.84473  1.0000
  C   C150      1.0  0.54627  0.48255  0.84498  1.0000
  H   H66       1.0  0.49361  0.36043  0.84637  1.0000
  C   C151      1.0  0.58789  0.54932  0.82481  1.0000
  C   C152      1.0  0.66508  0.70859  0.8228600000000003  1.0000
  F   F21       1.0  0.8738799999999999  0.55442  0.84745  1.0000
  C   C153      1.0  0.94955  0.47412  0.84567  1.0000
  C   C154      1.0  0.9741399999999999  0.43164  0.8254900000000002  1.0000
  F   F22       1.0  0.03602999999999982  0.85648  0.83876  1.0000
  C   C155      1.0  0.69033  0.79873  0.8410900000000002  1.0000
  H   H67       1.0  0.7477799999999999  0.92123  0.8398  1.0000
  C   C156      1.0  0.10609999999999999  0.30815  0.8415400000000002  1.0000
  F   F23       1.0  0.17769999999999997  0.2236  0.83982  1.0000
  C   C157      1.0  0.04634  0.34266  0.8234  1.0000
  C   C158      1.0  0.42056  0.01654  0.86301  1.0000
  C   C159      1.0  0.25886000000000003  0.93647  0.86059  1.0000
  H   H68       1.0  0.18495  0.89626  0.8744300000000003  1.0000
  C   C160      1.0  0.4887699999999999  0.0667  0.8845100000000002  1.0000
  O   O66       1.0  0.3998999999999999  0.0609  0.90029  1.0000
  C   C161      1.0  0.58095  0.57387  0.8633500000000002  1.0000
  C   C162      1.0  0.64667  0.73212  0.86114  1.0000
  O   O67       1.0  0.9361199999999998  0.34518  0.90029  1.0000
  C   C163      1.0  0.93454  0.43306  0.88507  1.0000
  C   C164      1.0  0.08363  0.35263  0.86165  1.0000
  O   O68       1.0  0.63755  0.11792999999999998  0.88774  1.0000
  C   C165      1.0  0.56523  0.50604  0.88473  1.0000
  O   O69       1.0  0.64927  0.59139  0.90071  1.0000
  O   O70       1.0  0.46082999999999996  0.36331  0.88798  1.0000
  H   H69       1.0  0.12719  0.32212  0.87555  1.0000
  Ni  Ni16      1.0  0.44266  0.25504  0.91691  1.0000
  Ni  Ni17      1.0  0.7447199999999998  0.20269  0.91621  1.0000
  F   F24       1.0  0.66945  0.82173  0.87844  1.0000
  Ni  Ni18      1.0  0.79775  0.54511  0.91707  1.0000
  O   O71       1.0  0.8890699999999999  0.53331  0.8889900000000002  1.0000
  C   C166      1.0  0.99648  0.42718  0.86396  1.0000
  O   O72       1.0  0.65773  0.33294  0.9203  1.0000
  O   O73       1.0  0.40901  0.12481999999999999  0.94415  1.0000
  O   O74       1.0  0.87126  0.28245  0.94296  1.0000
  O   O75       1.0  0.71082  0.58842  0.94386  1.0000
  H   H70       1.0  0.65905  0.3326  0.9359100000000002  1.0000
  O   O76       1.0  0.56678  0.03138  0.93239  1.0000
  C   C167      1.0  0.49187  0.05631  0.948  1.0000
  O   O77       1.0  0.45515999999999995  0.43982  0.93382  1.0000
  O   O78       1.0  0.96712  0.53517  0.9341400000000002  1.0000
  C   C168      1.0  0.93832  0.42819  0.9485000000000002  1.0000
  C   C169      1.0  0.56148  0.51251  0.94872  1.0000
  H   H71       1.0  0.03441000000000001  0.70404  0.96729  1.0000
  H   H72       1.0  0.6967300000000001  0.9748600000000001  0.96421  1.0000
  C   C170      1.0  0.49745  0.00404  0.96987  1.0000
  C   C171      1.0  0.9846000000000001  0.47127  0.97088  1.0000
  C   C172      1.0  0.566  0.39644000000000007  0.9831100000000003  1.0000
  H   H73       1.0  0.63635  0.35401  0.97586  1.0000
  H   H74       1.0  0.9443999999999999  0.24854  0.98  1.0000
  C   C173      1.0  0.96984  0.36018  0.98547  1.0000
  C   C174      1.0  0.61725  0.9750500000000001  0.97596  1.0000
  C   C175      1.0  0.6395799999999999  0.9537  0.9974700000000002  1.0000
  H   H75       1.0  0.73555  0.9369100000000001  0.00202  1.0000
  C   C176      1.0  0.022179999999999995  0.61678  0.97832  1.0000
  H   H76       1.0  0.39036000000000004  0.60542  0.97173  1.0000
  C   C177      1.0  0.03702999999999998  0.64797  0.00016000000000000007  1.0000
  H   H77       1.0  0.06082999999999997  0.7589  0.00575  1.0000
  C   C178      1.0  0.3945  0.001150000000000003  0.98535  1.0000
  H   H78       1.0  0.29975  0.02017000000000001  0.9809300000000002  1.0000
  C   C179      1.0  0.51749  0.48223000000000005  0.97119  1.0000
  C   C180      1.0  0.42763  0.53804  0.9808100000000002  1.0000
