data_image0
_chemical_formula_structural       C140Cr12H76O68
_chemical_formula_sum              "C140 Cr12 H76 O68"
_cell_length_a       19.08834
_cell_length_b       11.03214
_cell_length_c       18.74039
_cell_angle_alpha    90.06823999999999
_cell_angle_beta     90.13507
_cell_angle_gamma    90.18039

_symmetry_space_group_name_H-M    'P 1'
_symmetry_Int_Tables_number       1

loop_
  _symmetry_equiv_pos_as_xyz
  'x,y,z'

loop_
  _atom_site_type_symbol
  _atom_site_label
  _atom_site_symmetry_multiplicity
  _atom_site_fract_x
  _atom_site_fract_y
  _atom_site_fract_z
  _atom_site_occupancy
  C   C1        1.0  0.76174  0.5304  0.64569  1.0000
  C   C2        1.0  0.26168  0.98162  0.51936  1.0000
  C   C3        1.0  0.4703800000000001  0.94682  0.9703000000000002  1.0000
  C   C4        1.0  0.00796  0.23049  0.95837  1.0000
  C   C5        1.0  0.00966  0.23205  0.03298  1.0000
  C   C6        1.0  0.49071  0.7321799999999999  0.96655  1.0000
  C   C7        1.0  0.49237000000000003  0.73029  0.04115  1.0000
  C   C8        1.0  0.9986400000000001  0.56976  0.03672  1.0000
  C   C9        1.0  0.99491  0.57141  0.9562399999999999  1.0000
  C   C10       1.0  0.50581  0.07127  0.04412  1.0000
  C   C11       1.0  0.50214  0.06986  0.9636499999999999  1.0000
  C   C12       1.0  0.76117  0.52961  0.85333  1.0000
  C   C13       1.0  0.32027  0.5876  0.45  1.0000
  C   C14       1.0  0.23811000000000002  0.52692  0.14572  1.0000
  C   C15       1.0  0.26194  0.027069999999999997  0.85433  1.0000
  C   C16       1.0  0.73888  0.029429999999999998  0.14671  1.0000
  C   C17       1.0  0.77223  0.12568  0.85281  1.0000
  C   C18       1.0  0.22816000000000003  0.12424  0.1477  1.0000
  C   C19       1.0  0.27187  0.62452  0.85235  1.0000
  C   C20       1.0  0.72781  0.6254  0.14725  1.0000
  C   C21       1.0  0.9713300000000001  0.34714  0.8526  1.0000
  C   C22       1.0  0.03237  0.34715  0.14485  1.0000
  C   C23       1.0  0.46773  0.84736  0.8550800000000001  1.0000
  C   C24       1.0  0.76167  0.48162000000000005  0.51936  1.0000
  C   C25       1.0  0.52874  0.84691  0.14735  1.0000
  C   C26       1.0  0.7534  0.09895  0.4195  1.0000
  C   C27       1.0  0.25397  0.06793  0.57376  1.0000
  C   C28       1.0  0.2534  0.59894  0.4195  1.0000
  C   C29       1.0  0.75397  0.56793  0.57376  1.0000
  C   C30       1.0  0.69867  0.14316  0.46197  1.0000
  C   C31       1.0  0.23080000000000003  0.18320000000000003  0.55844  1.0000
  C   C32       1.0  0.19867  0.64315  0.46197  1.0000
  C   C33       1.0  0.7308  0.6832  0.55844  1.0000
  C   C34       1.0  0.70984  0.16192  0.53432  1.0000
  C   C35       1.0  0.62804  0.08711  0.47516  1.0000
  C   C36       1.0  0.21901000000000004  0.21567000000000003  0.48821000000000003  1.0000
  C   C37       1.0  0.20984  0.66192  0.53433  1.0000
  C   C38       1.0  0.71901  0.71567  0.48821000000000003  1.0000
  C   C39       1.0  0.04555  0.8950400000000001  0.42684  1.0000
  C   C40       1.0  0.06819  0.91888  0.57766  1.0000
  C   C41       1.0  0.54551  0.39505  0.42678  1.0000
  C   C42       1.0  0.5681599999999999  0.4188799999999999  0.57761  1.0000
  C   C43       1.0  0.9668  0.08181  0.35096  1.0000
  C   C44       1.0  0.07467  0.16091  0.63904  1.0000
  C   C45       1.0  0.46677  0.58185  0.35092  1.0000
  C   C46       1.0  0.26725  0.29825  0.57648  1.0000
  C   C47       1.0  0.57467  0.66091  0.63898  1.0000
  C   C48       1.0  0.12804  0.5871  0.47516  1.0000
  C   C49       1.0  0.76725  0.79825  0.57647  1.0000
  C   C50       1.0  0.64243  0.1009  0.55411  1.0000
  C   C51       1.0  0.25709  0.33197  0.49929  1.0000
  C   C52       1.0  0.14243  0.60089  0.55411  1.0000
  C   C53       1.0  0.23887  0.5332700000000001  0.35399  1.0000
  C   C54       1.0  0.75709  0.83197  0.49928  1.0000
  C   C55       1.0  0.77621  0.14477  0.56454  1.0000
  C   C56       1.0  0.22792000000000004  0.13218  0.43324000000000007  1.0000
  C   C57       1.0  0.2762  0.64477  0.56454  1.0000
  C   C58       1.0  0.72792  0.63218  0.43324000000000007  1.0000
  C   C59       1.0  0.9829599999999998  0.32707  0.4159  1.0000
  C   C60       1.0  0.98657  0.34707  0.56556  1.0000
  C   C61       1.0  0.48293  0.8270799999999999  0.41588  1.0000
  C   C62       1.0  0.48654  0.84706  0.56554  1.0000
  C   C63       1.0  0.99712  0.10451999999999999  0.42471  1.0000
  C   C64       1.0  0.26174  0.0304  0.64569  1.0000
  C   C65       1.0  0.03752  0.13842  0.56976  1.0000
  C   C66       1.0  0.49707  0.60453  0.42468  1.0000
  C   C67       1.0  0.53749  0.63841  0.56973  1.0000
  C   C68       1.0  0.0268  0.00861  0.46377  1.0000
  C   C69       1.0  0.04434  0.024250000000000004  0.53629  1.0000
  C   C70       1.0  0.52676  0.50862  0.46372  1.0000
  C   C71       1.0  0.54431  0.52425  0.53624  1.0000
  C   C72       1.0  0.00576  0.23559  0.53178  1.0000
  C   C73       1.0  0.9935  0.22154  0.45727  1.0000
  C   C74       1.0  0.50572  0.73559  0.53176  1.0000
  C   C75       1.0  0.73887  0.03327  0.35399  1.0000
  C   C76       1.0  0.49345999999999995  0.72155  0.45724  1.0000
  C   C77       1.0  0.9663700000000001  0.44844999999999996  0.52152  1.0000
  C   C78       1.0  0.9561600000000001  0.43038  0.4479  1.0000
  C   C79       1.0  0.46633  0.94845  0.5215  1.0000
  C   C80       1.0  0.45613  0.93039  0.44787999999999994  1.0000
  C   C81       1.0  0.78975  0.16732  0.63892  1.0000
  C   C82       1.0  0.21035  0.16655  0.36163  1.0000
  C   C83       1.0  0.28975  0.66732  0.63892  1.0000
  C   C84       1.0  0.71035  0.66655  0.36163  1.0000
  C   C85       1.0  0.95749  0.56938  0.54662  1.0000
  C   C86       1.0  0.83219  0.11415999999999998  0.52094  1.0000
  C   C87       1.0  0.92303  0.51931  0.4059  1.0000
  C   C88       1.0  0.45744000000000007  0.06938  0.5466  1.0000
  C   C89       1.0  0.42302  0.01933  0.40587  1.0000
  C   C90       1.0  0.92667  0.65808  0.50416  1.0000
  C   C91       1.0  0.90631  0.63109  0.43487  1.0000
  C   C92       1.0  0.42665  0.15809  0.50413  1.0000
  C   C93       1.0  0.4063  0.1311  0.43483  1.0000
  C   C94       1.0  0.7458  0.05964  0.07172  1.0000
  C   C95       1.0  0.25706  0.05238  0.9303099999999999  1.0000
  C   C96       1.0  0.24312999999999999  0.5526  0.06983  1.0000
  C   C97       1.0  0.24777000000000002  0.01318  0.44905000000000006  1.0000
  C   C98       1.0  0.75438  0.55953  0.92841  1.0000
  C   C99       1.0  0.79038  0.98713  0.03125  1.0000
  C   C100      1.0  0.21147000000000002  0.98084  0.97043  1.0000
  C   C101      1.0  0.28814  0.48078  0.02944  1.0000
  C   C102      1.0  0.70933  0.48712999999999995  0.9686300000000001  1.0000
  C   C103      1.0  0.79283  0.9958799999999999  0.9581299999999999  1.0000
  C   C104      1.0  0.20866  0.9895499999999999  0.04354  1.0000
  C   C105      1.0  0.29088  0.48978  0.95633  1.0000
  C   C106      1.0  0.70683  0.49559000000000003  0.04176  1.0000
  C   C107      1.0  0.69891  0.14137  0.9614000000000001  1.0000
  C   C108      1.0  0.33219  0.61415  0.52094  1.0000
  C   C109      1.0  0.30567  0.12941  0.04152  1.0000
  C   C110      1.0  0.19493  0.63079  0.9589500000000001  1.0000
  C   C111      1.0  0.80169  0.64026  0.03903  1.0000
  C   C112      1.0  0.69704  0.13264  0.03595  1.0000
  C   C113      1.0  0.3083  0.11991  0.9668999999999999  1.0000
  C   C114      1.0  0.19238  0.62099  0.03354  1.0000
  C   C115      1.0  0.80361  0.63187  0.96445  1.0000
  C   C116      1.0  0.86777  0.97389  0.03846  1.0000
  C   C117      1.0  0.13426  0.9653499999999999  0.9627699999999999  1.0000
  C   C118      1.0  0.36527  0.46468  0.03689  1.0000
  C   C119      1.0  0.74776  0.51317  0.44905000000000006  1.0000
  C   C120      1.0  0.63189  0.47409000000000007  0.9612700000000001  1.0000
  C   C121      1.0  0.8707999999999999  0.98059  0.95819  1.0000
  C   C122      1.0  0.13086  0.9709499999999999  0.04321  1.0000
  C   C123      1.0  0.36857  0.4706  0.9564699999999999  1.0000
  C   C124      1.0  0.62879  0.48047999999999996  0.04156  1.0000
  C   C125      1.0  0.75082  0.08005999999999999  0.9222999999999999  1.0000
  C   C126      1.0  0.25088  0.07383  0.07964  1.0000
  C   C127      1.0  0.24913  0.57451  0.92052  1.0000
  C   C128      1.0  0.74923  0.57944  0.07784  1.0000
  C   C129      1.0  0.96554  0.34834  0.64274  1.0000
  C   C130      1.0  0.82027  0.08761  0.45  1.0000
  C   C131      1.0  0.0257  0.34424  0.35064  1.0000
  C   C132      1.0  0.46553  0.84834  0.64273  1.0000
  C   C133      1.0  0.5257  0.8442400000000001  0.35064  1.0000
  C   C134      1.0  0.01658  0.34249  0.0694  1.0000
  C   C135      1.0  0.007770000000000001  0.34012  0.9203599999999998  1.0000
  C   C136      1.0  0.49250000000000005  0.83973  0.07945  1.0000
  C   C137      1.0  0.48384  0.8427199999999999  0.93042  1.0000
  C   C138      1.0  0.030140000000000004  0.44687  0.02975  1.0000
  C   C139      1.0  0.02609  0.44661  0.9567399999999999  1.0000
  C   C140      1.0  0.47438  0.94627  0.04331  1.0000
  Cr  Cr1       1.0  0.88586  0.49168  0.74963  1.0000
  Cr  Cr2       1.0  0.11243000000000002  0.17931  0.24984999999999996  1.0000
  Cr  Cr3       1.0  0.38757  0.67931  0.75015  1.0000
  Cr  Cr4       1.0  0.61243  0.67931  0.24984999999999996  1.0000
  Cr  Cr5       1.0  0.11413999999999999  0.49168  0.25037  1.0000
  Cr  Cr6       1.0  0.38586  0.99168  0.74963  1.0000
  Cr  Cr7       1.0  0.61414  0.99168  0.25037  1.0000
  Cr  Cr8       1.0  0.73049  0.33297  0.74872  1.0000
  Cr  Cr9       1.0  0.26951  0.33297  0.25128  1.0000
  Cr  Cr10      1.0  0.23049000000000003  0.83297  0.74872  1.0000
  Cr  Cr11      1.0  0.76951  0.83297  0.25128  1.0000
  Cr  Cr12      1.0  0.88757  0.17931  0.75015  1.0000
  H   H1        1.0  0.88371  0.0988  0.54326  1.0000
  H   H2        1.0  0.34234  0.18812000000000004  0.06853  1.0000
  H   H3        1.0  0.15873  0.69024  0.9322399999999998  1.0000
  H   H4        1.0  0.83715  0.70177  0.06561  1.0000
  H   H5        1.0  0.65957  0.18584  0.06561  1.0000
  H   H6        1.0  0.34797  0.1691  0.9378  1.0000
  H   H7        1.0  0.15317  0.67061  0.06286  1.0000
  H   H8        1.0  0.84147  0.68485  0.935  1.0000
  H   H9        1.0  0.88413  0.88497  0.05997000000000001  1.0000
  H   H10       1.0  0.11857000000000001  0.8763200000000001  0.9406700000000001  1.0000
  H   H11       1.0  0.38042  0.37544  0.05869  1.0000
  H   H12       1.0  0.25402  0.9463199999999999  0.40717  1.0000
  H   H13       1.0  0.61517  0.38527  0.93949  1.0000
  H   H14       1.0  0.8920899999999999  0.05317  0.06556  1.0000
  H   H15       1.0  0.1097  0.04421  0.93597  1.0000
  H   H16       1.0  0.39038  0.54321  0.06388  1.0000
  H   H17       1.0  0.60796  0.55355  0.9343700000000001  1.0000
  H   H18       1.0  0.89832  0.06254  0.93956  1.0000
  H   H19       1.0  0.10197  0.05072  0.06246999999999999  1.0000
  H   H20       1.0  0.39795  0.55022  0.93741  1.0000
  H   H21       1.0  0.60162  0.56242  0.06041  1.0000
  H   H22       1.0  0.8874399999999999  0.89446  0.93265  1.0000
  H   H23       1.0  0.3837  0.59878  0.54326  1.0000
  H   H24       1.0  0.11528  0.8836099999999999  0.0681  1.0000
  H   H25       1.0  0.38356  0.38325  0.9313  1.0000
  H   H26       1.0  0.61174  0.39426999999999995  0.06684  1.0000
  H   H27       1.0  0.00037  0.14545  0.9309500000000002  1.0000
  H   H28       1.0  0.00308  0.14847  0.06211  1.0000
  H   H29       1.0  0.49715  0.64874  0.93719  1.0000
  H   H30       1.0  0.49985000000000007  0.64522  0.06835  1.0000
  H   H31       1.0  0.03542  0.63792  0.059030000000000006  1.0000
  H   H32       1.0  0.9403200000000002  0.57329  0.9366  1.0000
  H   H33       1.0  0.56039  0.07342  0.06379  1.0000
  H   H34       1.0  0.75401  0.44632  0.40717  1.0000
  H   H35       1.0  0.46553  0.13794  0.94147  1.0000
  H   H36       1.0  0.9464200000000002  0.5672  0.06278  1.0000
  H   H37       1.0  0.030370000000000005  0.63961  0.93172  1.0000
  H   H38       1.0  0.47046999999999994  0.13922  0.06879  1.0000
  H   H39       1.0  0.55437  0.06762  0.9376200000000001  1.0000
  H   H40       1.0  0.86047  0.03816  0.42326  1.0000
  H   H41       1.0  0.27879  0.89066  0.53148  1.0000
  H   H42       1.0  0.36046  0.53816  0.42325  1.0000
  H   H43       1.0  0.77879  0.39065  0.53148  1.0000
  H   H44       1.0  0.12286999999999998  0.49142  0.45748000000000005  1.0000
  H   H45       1.0  0.9208  0.74933  0.52433  1.0000
  H   H46       1.0  0.82279  0.78555  0.59228  1.0000
  H   H47       1.0  0.62287  0.99143  0.45748000000000005  1.0000
  H   H48       1.0  0.32278  0.28555  0.59228  1.0000
  H   H49       1.0  0.58443  0.14525  0.45658  1.0000
  H   H50       1.0  0.23640999999999998  0.35508  0.61386  1.0000
  H   H51       1.0  0.08443  0.64523  0.45658  1.0000
  H   H52       1.0  0.73641  0.85508  0.61386  1.0000
  H   H53       1.0  0.60466  0.16071  0.58125  1.0000
  H   H54       1.0  0.22136  0.40808  0.49318  1.0000
  H   H55       1.0  0.10466  0.66071  0.58125  1.0000
  H   H56       1.0  0.88191  0.6995  0.40197  1.0000
  H   H57       1.0  0.72136  0.90808  0.49317  1.0000
  H   H58       1.0  0.65045  0.012930000000000002  0.58171  1.0000
  H   H59       1.0  0.30665  0.3376  0.46858  1.0000
  H   H60       1.0  0.15045  0.51292  0.58171  1.0000
  H   H61       1.0  0.80665  0.8376  0.46858  1.0000
  H   H62       1.0  0.91081  0.50241  0.35026  1.0000
  H   H63       1.0  0.9782  0.60185  0.59655  1.0000
  H   H64       1.0  0.41081  0.00242  0.35023  1.0000
  H   H65       1.0  0.47814  0.10183999999999999  0.59653  1.0000
  H   H66       1.0  0.12113  0.8015999999999999  0.37627  1.0000
  H   H67       1.0  0.42077  0.24933999999999998  0.5243  1.0000
  H   H68       1.0  0.04729  0.79949  0.6564  1.0000
  H   H69       1.0  0.6211  0.30159  0.37625  1.0000
  H   H70       1.0  0.54728  0.2995  0.65636  1.0000
  H   H71       1.0  0.9724700000000001  0.99382  0.25651  1.0000
  H   H72       1.0  0.09724  0.10447  0.73889  1.0000
  H   H73       1.0  0.47246000000000005  0.49394  0.25644  1.0000
  H   H74       1.0  0.59737  0.6044  0.73879  1.0000
  H   H75       1.0  0.38191  0.19952  0.40193  1.0000
  H   H76       1.0  0.66389  0.20345  0.93509  1.0000
  O   O1        1.0  0.95702  0.45164  0.66992  1.0000
  O   O2        1.0  0.16804  0.09329  0.16987  1.0000
  O   O3        1.0  0.33196  0.59329  0.83013  1.0000
  O   O4        1.0  0.66804  0.59329  0.16987  1.0000
  O   O5        1.0  0.9455999999999999  0.25058  0.82486  1.0000
  O   O6        1.0  0.0544  0.25058  0.17514  1.0000
  O   O7        1.0  0.4456  0.75058  0.82486  1.0000
  O   O8        1.0  0.5544  0.75058  0.17514  1.0000
  O   O9        1.0  0.83464  0.33465  0.7495  1.0000
  O   O10       1.0  0.16536  0.33465  0.2505  1.0000
  O   O11       1.0  0.33464  0.83465  0.7495  1.0000
  O   O12       1.0  0.04298  0.45164  0.33008  1.0000
  O   O13       1.0  0.66536  0.83465  0.2505  1.0000
  O   O14       1.0  0.82145  0.54344  0.67461  1.0000
  O   O15       1.0  0.17855  0.54344  0.32539  1.0000
  O   O16       1.0  0.32145  0.04344  0.67461  1.0000
  O   O17       1.0  0.67855  0.04344  0.32539  1.0000
  O   O18       1.0  0.71532  0.45865  0.6681  1.0000
  O   O19       1.0  0.28468  0.45865  0.3319  1.0000
  O   O20       1.0  0.21532  0.9586499999999999  0.6681  1.0000
  O   O21       1.0  0.78468  0.9586499999999999  0.3319  1.0000
  O   O22       1.0  0.73717  0.20959  0.67453  1.0000
  O   O23       1.0  0.4570199999999999  0.9516399999999999  0.66992  1.0000
  O   O24       1.0  0.26283  0.20959  0.32547  1.0000
  O   O25       1.0  0.23717  0.70959  0.67453  1.0000
  O   O26       1.0  0.76283  0.70959  0.32547  1.0000
  O   O27       1.0  0.83271  0.09273999999999999  0.66958  1.0000
  O   O28       1.0  0.16729  0.09273999999999999  0.33042  1.0000
  O   O29       1.0  0.33271  0.59274  0.66958  1.0000
  O   O30       1.0  0.66729  0.59274  0.33042  1.0000
  O   O31       1.0  0.9462899999999999  0.25006  0.67604  1.0000
  O   O32       1.0  0.05371000000000001  0.25006  0.32396  1.0000
  O   O33       1.0  0.44628999999999996  0.75006  0.67604  1.0000
  O   O34       1.0  0.54298  0.9516399999999999  0.33008  1.0000
  O   O35       1.0  0.55371  0.75006  0.32396  1.0000
  O   O36       1.0  0.95627  0.45219999999999994  0.83047  1.0000
  O   O37       1.0  0.04373  0.45219999999999994  0.16953  1.0000
  O   O38       1.0  0.45627  0.9522  0.83047  1.0000
  O   O39       1.0  0.54373  0.9522  0.16953  1.0000
  O   O40       1.0  0.82076  0.54395  0.82344  1.0000
  O   O41       1.0  0.17924  0.54395  0.17656  1.0000
  O   O42       1.0  0.32076  0.04395  0.82344  1.0000
  O   O43       1.0  0.67924  0.04395  0.17656  1.0000
  O   O44       1.0  0.71457  0.45920999999999995  0.82864  1.0000
  O   O45       1.0  0.73647  0.2101  0.82336  1.0000
  O   O46       1.0  0.28543  0.45920999999999995  0.17136  1.0000
  O   O47       1.0  0.21457  0.95921  0.82864  1.0000
  O   O48       1.0  0.78543  0.95921  0.17136  1.0000
  O   O49       1.0  0.99979  0.82575  0.40668  1.0000
  O   O50       1.0  0.11545000000000001  0.8731499999999999  0.40969  1.0000
  O   O51       1.0  0.12592  0.87661  0.56633  1.0000
  O   O52       1.0  0.02435  0.8683499999999998  0.62942  1.0000
  O   O53       1.0  0.4997400000000001  0.32578  0.4066  1.0000
  O   O54       1.0  0.61541  0.37314  0.40966  1.0000
  O   O55       1.0  0.6259  0.37663  0.56628  1.0000
  O   O56       1.0  0.26353  0.2101  0.17664  1.0000
  O   O57       1.0  0.52434  0.36834  0.62937  1.0000
  O   O58       1.0  0.9184299999999999  0.1443  0.32905  1.0000
  O   O59       1.0  0.9967700000000002  0.9971  0.30465  1.0000
  O   O60       1.0  0.10827  0.25445  0.64743  1.0000
  O   O61       1.0  0.07012  0.07762  0.69502  1.0000
  O   O62       1.0  0.41839  0.64434  0.32902  1.0000
  O   O63       1.0  0.49675  0.49718  0.3046  1.0000
  O   O64       1.0  0.60825  0.75448  0.64736  1.0000
  O   O65       1.0  0.57019  0.57758  0.69495  1.0000
  O   O66       1.0  0.23646999999999999  0.7101  0.82336  1.0000
  O   O67       1.0  0.76353  0.7101  0.17664  1.0000
  O   O68       1.0  0.83196  0.09329  0.83013  1.0000
