data_image0
_chemical_formula_structural       C40Cr6H23O26Cl5NH2NH2NH2Cl
_chemical_formula_sum              "C40 Cr6 H29 O26 Cl6 N3"
_cell_length_a       10.94756
_cell_length_b       10.96594
_cell_length_c       18.74355
_cell_angle_alpha    89.69474000000001
_cell_angle_beta     89.25457000000002
_cell_angle_gamma    60.13074

_space_group_name_H-M_alt    "P 1"
_space_group_IT_number       1

loop_
  _space_group_symop_operation_xyz
  'x, y, z'

loop_
  _atom_site_type_symbol
  _atom_site_label
  _atom_site_symmetry_multiplicity
  _atom_site_fract_x
  _atom_site_fract_y
  _atom_site_fract_z
  _atom_site_occupancy
  C   C1        1.0  0.2373  0.64487  0.60902  1.0000
  C   C2        1.0  0.69293  0.5389200000000001  0.80148  1.0000
  C   C3        1.0  0.6959599999999999  0.6778600000000001  0.81312  1.0000
  C   C4        1.0  0.66283  0.6476  0.67807  1.0000
  C   C5        1.0  0.8062700000000002  0.64038  0.68882  1.0000
  C   C6        1.0  0.65803  0.53017  0.72313  1.0000
  C   C7        1.0  0.67446  0.1572  0.67122  1.0000
  C   C8        1.0  0.69247  0.1646  0.82744  1.0000
  C   C9        1.0  0.80458  0.10991000000000001  0.7829  1.0000
  C   C10       1.0  0.79029  0.13870000000000002  0.70566  1.0000
  C   C11       1.0  0.18518  0.66044  0.6822  1.0000
  C   C12       1.0  0.6507000000000001  0.62003  0.60276  1.0000
  C   C13       1.0  0.19690999999999995  0.66267  0.83974  1.0000
  C   C14       1.0  0.19896000000000005  0.55894  0.80115  1.0000
  C   C15       1.0  0.22773999999999986  0.54656  0.72407  1.0000
  C   C16       1.0  0.6495600000000001  0.64579  0.31681  1.0000
  C   C17       1.0  0.63379  0.66167  0.15919  1.0000
  C   C18       1.0  0.7110799999999999  0.5437900000000001  0.19604  1.0000
  C   C19       1.0  0.6911000000000002  0.53547  0.2724  1.0000
  C   C20       1.0  0.6707299999999999  0.14183000000000004  0.33324  1.0000
  C   C21       1.0  0.64963  0.14449  0.17958  1.0000
  C   C22       1.0  0.58424  0.0956  0.2235  1.0000
  C   C23       1.0  0.62843  0.22716000000000006  0.6019  1.0000
  C   C24       1.0  0.58231  0.11175000000000002  0.29983  1.0000
  C   C25       1.0  0.12058000000000003  0.68873  0.34395  1.0000
  C   C26       1.0  0.15216999999999986  0.6656100000000003  0.18448  1.0000
  C   C27       1.0  0.16386999999999985  0.7593700000000002  0.22587  1.0000
  C   C28       1.0  0.10737999999999998  0.79193  0.29989  1.0000
  C   C29       1.0  0.7036  0.1025  0.8977  1.0000
  C   C30       1.0  0.72353  0.68934  0.88848  1.0000
  C   C31       1.0  0.11949999999999994  0.7064300000000002  0.9074800000000001  1.0000
  C   C32       1.0  0.67605  0.10153000000000001  0.106  1.0000
  C   C33       1.0  0.69215  0.68793  0.09463  1.0000
  C   C34       1.0  0.21576999999999996  0.65237  0.40403  1.0000
  C   C35       1.0  0.09588999999999992  0.7077400000000003  0.11295  1.0000
  C   C36       1.0  0.64123  0.62091  0.39236  1.0000
  C   C37       1.0  0.6213699999999999  0.22293000000000004  0.39775  1.0000
  C   C38       1.0  0.55182  0.80365  0.78619  1.0000
  C   C39       1.0  0.5431699999999999  0.7949200000000002  0.70519  1.0000
  C   C40       1.0  0.82121  0.66927  0.7678  1.0000
  Cr  Cr1       1.0  0.39301  0.39805  0.50148  1.0000
  Cr  Cr2       1.0  0.39882000000000006  0.70798  0.50163  1.0000
  Cr  Cr3       1.0  0.7081399999999999  0.3939400000000001  0.49685  1.0000
  Cr  Cr4       1.0  0.9379500000000001  0.93845  0.00894  1.0000
  Cr  Cr5       1.0  0.6261799999999998  0.9370300000000001  0.9947499999999999  1.0000
  Cr  Cr6       1.0  0.9377899999999999  0.6257600000000001  0.00141  1.0000
  H   H1        1.0  0.73531  0.4243100000000001  0.7024  1.0000
  H   H2        1.0  0.92128  0.57852  0.78711  1.0000
  H   H3        1.0  0.89404  0.53393  0.67415  1.0000
  H   H4        1.0  0.9091  0.03759  0.8028  1.0000
  H   H5        1.0  0.58774  0.23694000000000007  0.80789  1.0000
  H   H6        1.0  0.59863  0.13763  0.69946  1.0000
  H   H7        1.0  0.17017  0.48625  0.82512  1.0000
  H   H8        1.0  0.28292999999999996  0.44129000000000007  0.70152  1.0000
  H   H9        1.0  0.23264  0.73046  0.81622  1.0000
  H   H10       1.0  0.4670299999999999  0.79212  0.81318  1.0000
  H   H11       1.0  0.12903999999999985  0.7657700000000002  0.70459  1.0000
  H   H12       1.0  0.8016200000000001  0.45393  0.17175  1.0000
  H   H13       1.0  0.72498  0.43091  0.29343  1.0000
  H   H14       1.0  0.53859  0.74706  0.18234  1.0000
  H   H15       1.0  0.61444  0.7516000000000002  0.29762  1.0000
  H   H16       1.0  0.49352  0.11448  0.32806  1.0000
  H   H17       1.0  0.70304  0.19783  0.19969  1.0000
  H   H18       1.0  0.76515  0.13068  0.3079  1.0000
  H   H19       1.0  0.13847999999999996  0.58257  0.20689  1.0000
  H   H20       1.0  0.56038  0.87583  0.67805  1.0000
  H   H21       1.0  0.8160400000000001  0.71617  0.65275  1.0000
  H   H22       1.0  0.7988000000000001  0.44756  0.81294  1.0000
  H   H23       1.0  0.5519700000000001  0.5404900000000001  0.71869  1.0000
  O   O1        1.0  0.50711  0.2562800000000001  0.5803  1.0000
  O   O2        1.0  0.5246399999999999  0.69537  0.4251  1.0000
  O   O3        1.0  0.7358899999999999  0.5043900000000002  0.41598  1.0000
  O   O4        1.0  0.6905600000000001  0.27782  0.42235  1.0000
  O   O5        1.0  0.4999899999999999  0.49999000000000005  0.4999799999999999  1.0000
  O   O6        1.0  0.08918999999999988  0.8258700000000002  0.9323199999999999  1.0000
  O   O7        1.0  0.81907  0.05396  0.9314400000000002  1.0000
  O   O8        1.0  0.60707  0.07644  0.91646  1.0000
  O   O9        1.0  0.64711  0.80655  0.91769  1.0000
  O   O10       1.0  0.8370800000000002  0.5938600000000002  0.9152999999999999  1.0000
  O   O11       1.0  0.06476999999999984  0.6360800000000002  0.9325499999999999  1.0000
  O   O12       1.0  0.28082999999999997  0.5271900000000002  0.57794  1.0000
  O   O13       1.0  0.06824999999999984  0.8292000000000003  0.09294  1.0000
  O   O14       1.0  0.79965  0.057040000000000014  0.08033  1.0000
  O   O15       1.0  0.58613  0.07976000000000003  0.07708  1.0000
  O   O16       1.0  0.6276999999999998  0.80963  0.06658  1.0000
  O   O17       1.0  0.81614  0.59718  0.07592  1.0000
  O   O18       1.0  0.04536  0.63917  0.08144  1.0000
  O   O19       1.0  0.8339799999999999  0.8337500000000002  0.0017000000000000001  1.0000
  O   O20       1.0  0.2613600000000001  0.73899  0.58427  1.0000
  O   O21       1.0  0.5325899999999999  0.6947800000000002  0.57437  1.0000
  O   O22       1.0  0.7444699999999997  0.5037500000000001  0.577  1.0000
  O   O23       1.0  0.69852  0.27723  0.57162  1.0000
  O   O24       1.0  0.49852999999999986  0.25692  0.41928  1.0000
  O   O25       1.0  0.27287999999999996  0.52778  0.42868  1.0000
  O   O26       1.0  0.25278  0.7396300000000001  0.42325  1.0000
  Cl  Cl1       1.0  0.50573  0.9814600000000002  0.80563  1.0000
  Cl  Cl2       1.0  0.93482  0.13658  0.66152  1.0000
  Cl  Cl3       1.0  0.48168  0.0214  0.1954  1.0000
  Cl  Cl4       1.0  0.23572999999999994  0.8610200000000001  0.19007  1.0000
  Cl  Cl5       1.0  0.36403  0.84441  0.68794  1.0000
  N   N1        1.0  0.08018999999999998  0.92345  0.33051  1.0000
  H   H24       1.0  0.00777  0.00434  0.29812  1.0000
  H   H25       1.0  0.17290999999999998  0.9288  0.3295  1.0000
  N   N2        1.0  0.052569999999999985  0.60735  0.33161  1.0000
  H   H26       1.0  0.9750600000000001  0.65431  0.29269  1.0000
  H   H27       1.0  0.12828999999999993  0.5059200000000001  0.31564  1.0000
  N   N3        1.0  0.8315399999999997  0.79687  0.77626  1.0000
  H   H28       1.0  0.7610299999999999  0.8758800000000001  0.74243  1.0000
  H   H29       1.0  0.9315  0.77492  0.75946  1.0000
  Cl  Cl6       1.0  0.57109  0.52196  0.8601999999999999  1.0000
