data_image0
_chemical_formula_structural       C112Cr12H56O52NH2NH2NH2NH6NH2NH2NH2NH2
_chemical_formula_sum              "C112 Cr12 H76 O52 N8"
_cell_length_a       19.00108
_cell_length_b       11.020620000000001
_cell_length_c       18.7766
_cell_angle_alpha    89.89043
_cell_angle_beta     90.42955
_cell_angle_gamma    90.12759999999999

_symmetry_space_group_name_H-M    'P 1'
_symmetry_Int_Tables_number       1

loop_
  _symmetry_equiv_pos_as_xyz
  'x,y,z'

loop_
  _atom_site_type_symbol
  _atom_site_label
  _atom_site_symmetry_multiplicity
  _atom_site_fract_x
  _atom_site_fract_y
  _atom_site_fract_z
  _atom_site_occupancy
  C   C1        1.0  0.72747  0.95503  0.85353  1.0000
  C   C2        1.0  0.2754  0.96195  0.14391  1.0000
  C   C3        1.0  0.22747999999999996  0.45503  0.85353  1.0000
  C   C4        1.0  0.7754  0.4619500000000001  0.14391  1.0000
  C   C5        1.0  0.70215  0.4737  0.03502  1.0000
  C   C6        1.0  0.3109  0.44216  0.95729  1.0000
  C   C7        1.0  0.20215  0.9736999999999999  0.03502  1.0000
  C   C8        1.0  0.8109  0.94216  0.95729  1.0000
  C   C9        1.0  0.69438  0.46397000000000005  0.9619800000000001  1.0000
  C   C10       1.0  0.32096  0.4112700000000001  0.02836  1.0000
  C   C11       1.0  0.19438  0.96397  0.9619800000000001  1.0000
  C   C12       1.0  0.82096  0.91127  0.02836  1.0000
  C   C13       1.0  0.81764  0.41624000000000005  0.95155  1.0000
  C   C14       1.0  0.22290999999999997  0.27334  0.02155  1.0000
  C   C15       1.0  0.31764  0.91624  0.95155  1.0000
  C   C16       1.0  0.72291  0.77334  0.02155  1.0000
  C   C17       1.0  0.82467  0.42383  0.02514  1.0000
  C   C18       1.0  0.21367999999999998  0.30232  0.94966  1.0000
  C   C19       1.0  0.32467  0.92383  0.02514  1.0000
  C   C20       1.0  0.71367  0.80232  0.94966  1.0000
  C   C21       1.0  0.63027  0.42730000000000007  0.04994  1.0000
  C   C22       1.0  0.33565999999999996  0.5697  0.9682399999999999  1.0000
  C   C23       1.0  0.13027  0.9273  0.04994  1.0000
  C   C24       1.0  0.83566  0.0697  0.9682399999999999  1.0000
  C   C25       1.0  0.62096  0.4159  0.96974  1.0000
  C   C26       1.0  0.34672  0.53629  0.04641  1.0000
  C   C27       1.0  0.12095999999999998  0.9159  0.96974  1.0000
  C   C28       1.0  0.84672  0.03629  0.04641  1.0000
  C   C29       1.0  0.75066  0.42444  0.92  1.0000
  C   C30       1.0  0.27345  0.33437  0.06321  1.0000
  C   C31       1.0  0.25066  0.92444  0.92  1.0000
  C   C32       1.0  0.77345  0.83437  0.06321  1.0000
  C   C33       1.0  0.51326  0.17199  0.4187  1.0000
  C   C34       1.0  0.52292  0.17043  0.56627  1.0000
  C   C35       1.0  0.013249999999999998  0.67199  0.4187  1.0000
  C   C36       1.0  0.02292  0.67043  0.56627  1.0000
  C   C37       1.0  0.52664  0.28007  0.45591  1.0000
  C   C38       1.0  0.53034  0.27812  0.5285  1.0000
  C   C39       1.0  0.026639999999999987  0.78007  0.45591  1.0000
  C   C40       1.0  0.030339999999999995  0.7781200000000001  0.5285  1.0000
  C   C41       1.0  0.52594  0.06038  0.52872  1.0000
  C   C42       1.0  0.52297  0.06149000000000001  0.4543  1.0000
  C   C43       1.0  0.02594  0.56038  0.52872  1.0000
  C   C44       1.0  0.02297  0.56149  0.4543  1.0000
  C   C45       1.0  0.52994  0.17721  0.85069  1.0000
  C   C46       1.0  0.46982999999999997  0.17814  0.14921  1.0000
  C   C47       1.0  0.029939999999999998  0.67721  0.85069  1.0000
  C   C48       1.0  0.9698299999999999  0.67814  0.14921  1.0000
  C   C49       1.0  0.48773999999999995  0.39887  0.45774999999999993  1.0000
  C   C50       1.0  0.4917  0.39414  0.53775  1.0000
  C   C51       1.0  0.98774  0.89887  0.45774999999999993  1.0000
  C   C52       1.0  0.9916999999999999  0.8941400000000002  0.53775  1.0000
  C   C53       1.0  0.76022  0.42601000000000006  0.42693  1.0000
  C   C54       1.0  0.24004  0.42779  0.57259  1.0000
  C   C55       1.0  0.26022  0.9260100000000001  0.42693  1.0000
  C   C56       1.0  0.74004  0.92779  0.57259  1.0000
  C   C57       1.0  0.81976  0.40214000000000005  0.46896999999999994  1.0000
  C   C58       1.0  0.18317  0.3823  0.53327  1.0000
  C   C59       1.0  0.31976  0.9021400000000002  0.46896999999999994  1.0000
  C   C60       1.0  0.68317  0.8823  0.53327  1.0000
  C   C61       1.0  0.81574  0.3978400000000001  0.54229  1.0000
  C   C62       1.0  0.1858  0.37564  0.46009  1.0000
  C   C63       1.0  0.31574  0.89784  0.54229  1.0000
  C   C64       1.0  0.6858  0.8756400000000001  0.46009  1.0000
  C   C65       1.0  0.69248  0.44923  0.53455  1.0000
  C   C66       1.0  0.29899  0.47418  0.46138999999999997  1.0000
  C   C67       1.0  0.19248  0.9492299999999999  0.53455  1.0000
  C   C68       1.0  0.79899  0.97418  0.46138999999999997  1.0000
  C   C69       1.0  0.69674  0.45364  0.46035  1.0000
  C   C70       1.0  0.29724  0.47772  0.53588  1.0000
  C   C71       1.0  0.19674  0.95364  0.46035  1.0000
  C   C72       1.0  0.79724  0.9777200000000001  0.53588  1.0000
  C   C73       1.0  0.8656499999999999  0.29196  0.46652  1.0000
  C   C74       1.0  0.14959  0.25984  0.53985  1.0000
  C   C75       1.0  0.36565  0.7919600000000001  0.46652  1.0000
  C   C76       1.0  0.64959  0.75984  0.53985  1.0000
  C   C77       1.0  0.8654299999999999  0.29293  0.54677  1.0000
  C   C78       1.0  0.15066  0.25404  0.45955000000000007  1.0000
  C   C79       1.0  0.36543  0.79293  0.54677  1.0000
  C   C80       1.0  0.65065  0.75404  0.45955000000000007  1.0000
  C   C81       1.0  0.75099  0.41363  0.57601  1.0000
  C   C82       1.0  0.24577  0.414  0.42322  1.0000
  C   C83       1.0  0.25099  0.9136300000000002  0.57601  1.0000
  C   C84       1.0  0.74577  0.914  0.42322  1.0000
  C   C85       1.0  0.73835  0.36465  0.8523  1.0000
  C   C86       1.0  0.27596  0.31287  0.14014  1.0000
  C   C87       1.0  0.23834999999999998  0.86465  0.8523  1.0000
  C   C88       1.0  0.77596  0.81287  0.14014  1.0000
  C   C89       1.0  0.72714  0.95671  0.64672  1.0000
  C   C90       1.0  0.27275  0.95592  0.35295  1.0000
  C   C91       1.0  0.22714  0.45671  0.64672  1.0000
  C   C92       1.0  0.77275  0.45591999999999994  0.35295  1.0000
  C   C93       1.0  0.53422  0.17659  0.642  1.0000
  C   C94       1.0  0.47256  0.17693  0.35349  1.0000
  C   C95       1.0  0.03422  0.67659  0.642  1.0000
  C   C96       1.0  0.9725599999999999  0.67693  0.35349  1.0000
  C   C97       1.0  0.73938  0.36216  0.64628  1.0000
  C   C98       1.0  0.26012  0.36265  0.35343  1.0000
  C   C99       1.0  0.23938  0.8621600000000001  0.64628  1.0000
  C   C100      1.0  0.76012  0.8626500000000001  0.35343  1.0000
  C   C101      1.0  0.49806  0.16603  0.92105  1.0000
  C   C102      1.0  0.50142  0.1719  0.07868  1.0000
  C   C103      1.0  0.99806  0.66603  0.92105  1.0000
  C   C104      1.0  0.00142  0.6719  0.07868  1.0000
  C   C105      1.0  0.4999199999999999  0.06986  0.04005  1.0000
  C   C106      1.0  0.51439  0.07089  0.96324  1.0000
  C   C107      1.0  0.99992  0.56986  0.04005  1.0000
  C   C108      1.0  0.014389999999999998  0.57089  0.96324  1.0000
  C   C109      1.0  0.76538  0.44364  0.06813  1.0000
  C   C110      1.0  0.25347  0.39615  0.9185400000000001  1.0000
  C   C111      1.0  0.26538  0.94364  0.06813  1.0000
  C   C112      1.0  0.75347  0.89615  0.9185400000000001  1.0000
  Cr  Cr1       1.0  0.76926  0.16375  0.75073  1.0000
  Cr  Cr2       1.0  0.23074  0.16375  0.24927000000000002  1.0000
  Cr  Cr3       1.0  0.26926  0.66375  0.75073  1.0000
  Cr  Cr4       1.0  0.73074  0.66375  0.24927000000000002  1.0000
  Cr  Cr5       1.0  0.6126399999999999  0.00991  0.74878  1.0000
  Cr  Cr6       1.0  0.38736  0.00991  0.25122  1.0000
  Cr  Cr7       1.0  0.11264000000000002  0.50991  0.74878  1.0000
  Cr  Cr8       1.0  0.88736  0.50991  0.25122  1.0000
  Cr  Cr9       1.0  0.61419  0.3224  0.74771  1.0000
  Cr  Cr10      1.0  0.38581  0.3224  0.25229  1.0000
  Cr  Cr11      1.0  0.11419  0.8224  0.74771  1.0000
  Cr  Cr12      1.0  0.88581  0.8224  0.25229  1.0000
  H   H1        1.0  0.4886  0.98328  0.06507  1.0000
  H   H2        1.0  0.5411  0.9920999999999999  0.94179  1.0000
  H   H3        1.0  0.9886  0.48328  0.06507  1.0000
  H   H4        1.0  0.0411  0.4921  0.94179  1.0000
  H   H5        1.0  0.9330199999999998  0.89039  0.43863  1.0000
  H   H6        1.0  0.02426  0.96741  0.56136  1.0000
  H   H7        1.0  0.43301999999999996  0.39039  0.43863  1.0000
  H   H8        1.0  0.52426  0.46741  0.56136  1.0000
  H   H9        1.0  0.5184  0.47492  0.43432  1.0000
  H   H10       1.0  0.43982999999999994  0.38027  0.56348  1.0000
  H   H11       1.0  0.0184  0.97492  0.43432  1.0000
  H   H12       1.0  0.9398299999999999  0.8802700000000001  0.56348  1.0000
  H   H13       1.0  0.64221  0.46501  0.55903  1.0000
  H   H14       1.0  0.34417  0.50995  0.434  1.0000
  H   H15       1.0  0.14221  0.96501  0.55903  1.0000
  H   H16       1.0  0.8441699999999999  0.00995  0.434  1.0000
  H   H17       1.0  0.65069  0.47797999999999996  0.42922  1.0000
  H   H18       1.0  0.34125  0.51559  0.5649  1.0000
  H   H19       1.0  0.15069  0.97798  0.42922  1.0000
  H   H20       1.0  0.84125  0.015590000000000001  0.5649  1.0000
  H   H21       1.0  0.8414  0.21027  0.56876  1.0000
  H   H22       1.0  0.18612  0.18262  0.43985  1.0000
  H   H23       1.0  0.3414  0.71027  0.56876  1.0000
  H   H24       1.0  0.68612  0.68262  0.43985  1.0000
  H   H25       1.0  0.91644  0.31917  0.57187  1.0000
  H   H26       1.0  0.09799  0.25712  0.4334299999999999  1.0000
  H   H27       1.0  0.41645  0.81917  0.57187  1.0000
  H   H28       1.0  0.59799  0.75713  0.4334299999999999  1.0000
  H   H29       1.0  0.51662  0.25706  0.05414999999999999  1.0000
  H   H30       1.0  0.4700599999999999  0.24378  0.9420700000000001  1.0000
  H   H31       1.0  0.016620000000000003  0.75706  0.05414999999999999  1.0000
  H   H32       1.0  0.9700599999999999  0.74378  0.9420700000000001  1.0000
  H   H33       1.0  0.8632499999999999  0.39108000000000004  0.9206199999999999  1.0000
  H   H34       1.0  0.18653  0.21046000000000004  0.04586  1.0000
  H   H35       1.0  0.36325  0.89108  0.9206199999999999  1.0000
  H   H36       1.0  0.68653  0.71046  0.04586  1.0000
  H   H37       1.0  0.87611  0.40913  0.04837  1.0000
  H   H38       1.0  0.17048999999999997  0.26002  0.92097  1.0000
  H   H39       1.0  0.37611  0.9091300000000001  0.04837  1.0000
  H   H40       1.0  0.67049  0.76002  0.92097  1.0000
  H   H41       1.0  0.09658  0.99751  0.07494  1.0000
  H   H42       1.0  0.79359  0.13786  0.95837  1.0000
  H   H43       1.0  0.59658  0.49751  0.07494  1.0000
  H   H44       1.0  0.29358999999999996  0.63786  0.95837  1.0000
  H   H45       1.0  0.63155  0.33852  0.07812  1.0000
  H   H46       1.0  0.38581  0.58806  0.9400699999999999  1.0000
  H   H47       1.0  0.13155  0.83852  0.07812  1.0000
  H   H48       1.0  0.88581  0.08805000000000002  0.9400699999999999  1.0000
  H   H49       1.0  0.61401  0.32122  0.95068  1.0000
  H   H50       1.0  0.40267  0.53777  0.06424  1.0000
  H   H51       1.0  0.11402  0.82122  0.95068  1.0000
  H   H52       1.0  0.90267  0.03776  0.06424  1.0000
  H   H53       1.0  0.52769  0.97491  0.55664  1.0000
  H   H54       1.0  0.52175  0.97729  0.42529  1.0000
  H   H55       1.0  0.027690000000000003  0.47491000000000005  0.55664  1.0000
  H   H56       1.0  0.02175  0.47729000000000005  0.42529  1.0000
  O   O1        1.0  0.78429  0.29036  0.83054  1.0000
  O   O2        1.0  0.21571  0.29036  0.16946  1.0000
  O   O3        1.0  0.28429  0.79036  0.83054  1.0000
  O   O4        1.0  0.7157099999999998  0.79036  0.16946  1.0000
  O   O5        1.0  0.55469  0.08044  0.67348  1.0000
  O   O6        1.0  0.44530999999999993  0.08044  0.32652  1.0000
  O   O7        1.0  0.054689999999999996  0.58044  0.67348  1.0000
  O   O8        1.0  0.94531  0.58044  0.32652  1.0000
  O   O9        1.0  0.54398  0.28211  0.66677  1.0000
  O   O10       1.0  0.4560199999999999  0.28211  0.33323  1.0000
  O   O11       1.0  0.04398  0.7821099999999999  0.66677  1.0000
  O   O12       1.0  0.95602  0.7821099999999999  0.33323  1.0000
  O   O13       1.0  0.67907  0.37403  0.67443  1.0000
  O   O14       1.0  0.32093  0.37403  0.32557  1.0000
  O   O15       1.0  0.17907  0.8740299999999999  0.67443  1.0000
  O   O16       1.0  0.82093  0.8740299999999999  0.32557  1.0000
  O   O17       1.0  0.66536  0.16535  0.74907  1.0000
  O   O18       1.0  0.33464  0.16535  0.25093  1.0000
  O   O19       1.0  0.16536  0.66535  0.74907  1.0000
  O   O20       1.0  0.83464  0.66535  0.25093  1.0000
  O   O21       1.0  0.76261  0.04107  0.82523  1.0000
  O   O22       1.0  0.23739  0.04107  0.17477  1.0000
  O   O23       1.0  0.26261  0.54107  0.82523  1.0000
  O   O24       1.0  0.73739  0.54107  0.17477  1.0000
  O   O25       1.0  0.66739  0.9241600000000001  0.82997  1.0000
  O   O26       1.0  0.33261  0.9241600000000001  0.17003  1.0000
  O   O27       1.0  0.16739  0.42416  0.82997  1.0000
  O   O28       1.0  0.83261  0.42416  0.17003  1.0000
  O   O29       1.0  0.55398  0.08142  0.82178  1.0000
  O   O30       1.0  0.44602  0.08142  0.17822  1.0000
  O   O31       1.0  0.05398  0.58142  0.82178  1.0000
  O   O32       1.0  0.9460200000000001  0.58142  0.17822  1.0000
  O   O33       1.0  0.54321  0.28317  0.82674  1.0000
  O   O34       1.0  0.4567899999999999  0.28317  0.17326  1.0000
  O   O35       1.0  0.04321  0.7831700000000001  0.82674  1.0000
  O   O36       1.0  0.9567900000000001  0.7831700000000001  0.17326  1.0000
  O   O37       1.0  0.67835  0.37499999999999994  0.82272  1.0000
  O   O38       1.0  0.32164999999999994  0.37499999999999994  0.17728  1.0000
  O   O39       1.0  0.17835  0.875  0.82272  1.0000
  O   O40       1.0  0.82165  0.875  0.17728  1.0000
  O   O41       1.0  0.78506  0.2893  0.67058  1.0000
  O   O42       1.0  0.21494000000000002  0.2893  0.32942  1.0000
  O   O43       1.0  0.28506  0.7893  0.67058  1.0000
  O   O44       1.0  0.71494  0.7893  0.32942  1.0000
  O   O45       1.0  0.76333  0.04009  0.67694  1.0000
  O   O46       1.0  0.23667000000000002  0.04009  0.32306  1.0000
  O   O47       1.0  0.26333  0.54009  0.67694  1.0000
  O   O48       1.0  0.73667  0.54009  0.32306  1.0000
  O   O49       1.0  0.66816  0.92311  0.67  1.0000
  O   O50       1.0  0.33184  0.92311  0.33  1.0000
  O   O51       1.0  0.16815999999999998  0.42311  0.67  1.0000
  O   O52       1.0  0.83184  0.42311  0.33  1.0000
  N   N1        1.0  0.93534  0.31536  0.43792  1.0000
  H   H57       1.0  0.9321500000000001  0.31014  0.38248  1.0000
  H   H58       1.0  0.96764  0.24319  0.45344  1.0000
  N   N2        1.0  0.0781  0.26514  0.56747  1.0000
  H   H59       1.0  0.053259999999999995  0.18314000000000002  0.55493  1.0000
  H   H60       1.0  0.08127  0.26763  0.62301  1.0000
  N   N3        1.0  0.43534  0.81536  0.43792  1.0000
  H   H61       1.0  0.43215000000000003  0.81014  0.38248  1.0000
  H   H62       1.0  0.46763999999999994  0.7431900000000001  0.45344  1.0000
  N   N4        1.0  0.5781  0.7651400000000002  0.56747  1.0000
  H   H63       1.0  0.55326  0.68314  0.55493  1.0000
  H   H64       1.0  0.58127  0.76763  0.62301  1.0000
  H   H65       1.0  0.83882  0.21321000000000004  0.44159000000000004  1.0000
  H   H66       1.0  0.18355  0.19204000000000002  0.56739  1.0000
  H   H67       1.0  0.33882  0.7132  0.44159000000000004  1.0000
  H   H68       1.0  0.68355  0.69204  0.56739  1.0000
  N   N5        1.0  0.56882  0.50121  0.94195  1.0000
  H   H69       1.0  0.51901  0.46662000000000003  0.954  1.0000
  H   H70       1.0  0.57255  0.50206  0.88646  1.0000
  N   N6        1.0  0.29962  0.60087  0.09474  1.0000
  H   H71       1.0  0.31691  0.69073  0.09782  1.0000
  H   H72       1.0  0.24832999999999997  0.60224  0.07397  1.0000
  N   N7        1.0  0.06882  0.00121  0.94195  1.0000
  H   H73       1.0  0.01901  0.96662  0.954  1.0000
  H   H74       1.0  0.07255  0.00206  0.88646  1.0000
  N   N8        1.0  0.7996199999999999  0.10087  0.09474  1.0000
  H   H75       1.0  0.81691  0.19072999999999998  0.09782  1.0000
  H   H76       1.0  0.74833  0.10224  0.07397  1.0000
