data_image0
_chemical_formula_structural       O3CO2CO2VOCOCVOC2HC6H2C3HC5H3C8H2C3HC5HO3CO2CO2VOCOCVO2CH3OCH3NH2NH2OCH3OCH3OCH3OCH3OCH3NH2OCH3NH2NH2
_chemical_formula_sum              "O28 C48 V4 H45 N5"
_cell_length_a       7.46294
_cell_length_b       14.565099999999997
_cell_length_c       16.84281
_cell_angle_alpha    88.68812
_cell_angle_beta     85.19227
_cell_angle_gamma    90.98357

_symmetry_space_group_name_H-M    'P 1'
_symmetry_Int_Tables_number       1

loop_
  _symmetry_equiv_pos_as_xyz
  'x,y,z'

loop_
  _atom_site_type_symbol
  _atom_site_label
  _atom_site_symmetry_multiplicity
  _atom_site_fract_x
  _atom_site_fract_y
  _atom_site_fract_z
  _atom_site_occupancy
  O   O1        1.0  0.49439999999999995  0.41545  0.41263  1.0000
  O   O2        1.0  0.82394  0.40573  0.58676  1.0000
  O   O3        1.0  0.99424  0.58455  0.58737  1.0000
  C   C1        1.0  0.65214  0.3942499999999999  0.6215899999999998  1.0000
  O   O4        1.0  0.82411  0.40443  0.41324  1.0000
  O   O5        1.0  0.9944199999999999  0.58324  0.41262  1.0000
  C   C2        1.0  0.65967  0.38313999999999987  0.38445  1.0000
  O   O6        1.0  0.4942299999999998  0.41675999999999996  0.58738  1.0000
  O   O7        1.0  0.6608000000000002  0.55867  0.5  1.0000
  V   V1        1.0  0.93565  0.48912  0.5  1.0000
  O   O8        1.0  0.32414  0.59427  0.41324  1.0000
  C   C3        1.0  0.16294000000000003  0.61167  0.3821699999999999  1.0000
  O   O9        1.0  0.32395999999999986  0.59557  0.58676  1.0000
  C   C4        1.0  0.1536  0.61806  0.61429  1.0000
  V   V2        1.0  0.43566  0.51088  0.5  1.0000
  O   O10       1.0  0.16064  0.44133  0.5  1.0000
  C   C5        1.0  0.9994299999999997  0.6902499999999998  0.75553  1.0000
  C   C6        1.0  0.14273000000000002  0.7062699999999997  0.8163399999999997  1.0000
  H   H1        1.0  0.14951  0.66724  0.87343  1.0000
  C   C7        1.0  0.11846  0.8123599999999997  0.8077099999999999  1.0000
  C   C8        1.0  0.9759899999999999  0.7956199999999999  0.7450299999999997  1.0000
  C   C9        1.0  0.12727  0.79622  0.6767699999999998  1.0000
  C   C10       1.0  0.2681  0.81473  0.73782  1.0000
  C   C11       1.0  0.2919800000000001  0.7091799999999999  0.7452499999999997  1.0000
  C   C12       1.0  0.14669999999999997  0.69045  0.68441  1.0000
  H   H2        1.0  0.36428000000000005  0.87392  0.7361199999999998  1.0000
  H   H3        1.0  0.42524  0.67656  0.74217  1.0000
  C   C13       1.0  0.28898000000000007  0.78839  0.20689  1.0000
  C   C14       1.0  0.11983  0.81343  0.17935999999999994  1.0000
  C   C15       1.0  0.971  0.75776  0.21179  1.0000
  H   H4        1.0  0.84476  0.7603899999999998  0.18286  1.0000
  C   C16       1.0  0.99613  0.68834  0.2719299999999999  1.0000
  C   C17       1.0  0.16297  0.67327  0.3068399999999999  1.0000
  C   C18       1.0  0.3151999999999999  0.7225499999999999  0.26561  1.0000
  C   C19       1.0  0.5181600000000001  0.7368699999999998  0.24430999999999997  1.0000
  C   C20       1.0  0.4769199999999999  0.8232599999999998  0.19481999999999997  1.0000
  H   H5        1.0  0.57967  0.68863  0.19677  1.0000
  H   H6        1.0  0.54774  0.82699  0.13184  1.0000
  H   H7        1.0  0.4840899999999999  0.89043  0.22859  1.0000
  C   C21       1.0  0.49177000000000004  0.3052000000000001  0.7486399999999998  1.0000
  C   C22       1.0  0.64486  0.34395999999999993  0.7054199999999998  1.0000
  C   C23       1.0  0.79727  0.33798999999999996  0.75737  1.0000
  C   C24       1.0  0.80922  0.26107  0.8138199999999998  1.0000
  C   C25       1.0  0.6431599999999997  0.20413999999999993  0.83573  1.0000
  C   C26       1.0  0.49628999999999995  0.24731  0.8130999999999998  1.0000
  C   C27       1.0  0.31270000000000003  0.2536099999999999  0.8483499999999998  1.0000
  C   C28       1.0  0.29762  0.3156899999999999  0.77491  1.0000
  H   H8        1.0  0.2667100000000001  0.176  0.8442399999999998  1.0000
  H   H9        1.0  0.2281  0.26874  0.73607  1.0000
  C   C29       1.0  0.50441  0.29653  0.27371  1.0000
  C   C30       1.0  0.65623  0.3162  0.31259  1.0000
  C   C31       1.0  0.79986  0.2689  0.27321999999999996  1.0000
  H   H10       1.0  0.9339699999999999  0.27296  0.28345  1.0000
  C   C32       1.0  0.7943499999999998  0.20522  0.21067999999999995  1.0000
  C   C33       1.0  0.62957  0.18474999999999994  0.17471  1.0000
  C   C34       1.0  0.49138  0.24018  0.20807999999999993  1.0000
  C   C35       1.0  0.29637  0.25486999999999993  0.21334  1.0000
  C   C36       1.0  0.315  0.3125499999999999  0.28877  1.0000
  H   H11       1.0  0.23328999999999997  0.18862  0.23491  1.0000
  O   O11       1.0  0.7716499999999998  0.07949999999999997  0.90868  1.0000
  O   O12       1.0  0.44169  0.0918  0.0828  1.0000
  O   O13       1.0  0.27146  0.91298  0.08341  1.0000
  C   C37       1.0  0.6096  0.11442999999999998  0.10897  1.0000
  O   O14       1.0  0.44193  0.09051  0.90928  1.0000
  O   O15       1.0  0.27169  0.9116699999999998  0.90866  1.0000
  C   C38       1.0  0.61729  0.11776000000000002  0.88792  1.0000
  O   O16       1.0  0.77141  0.08081  0.08343999999999997  1.0000
  O   O17       1.0  0.6051000000000001  0.9375799999999997  0.9960499999999999  1.0000
  V   V3        1.0  0.33022000000000007  0.007110000000000005  0.9960299999999999  1.0000
  O   O18       1.0  0.9419800000000002  0.90062  0.90925  1.0000
  C   C39       1.0  0.11215000000000001  0.8804699999999998  0.88036  1.0000
  O   O19       1.0  0.94174  0.90192  0.08276999999999998  1.0000
  C   C40       1.0  0.1068  0.8816899999999998  0.11102  1.0000
  V   V4        1.0  0.8302199999999998  0.9853  0.996  1.0000
  O   O20       1.0  0.10520999999999997  0.05487000000000001  0.99602  1.0000
  O   O21       1.0  0.63346  0.76879  0.30313  1.0000
  C   C41       1.0  0.63398  0.71563  0.37595  1.0000
  H   H12       1.0  0.7792099999999998  0.70903  0.38907  1.0000
  H   H13       1.0  0.58666  0.6439  0.3707699999999999  1.0000
  H   H14       1.0  0.54894  0.74973  0.4248599999999999  1.0000
  O   O22       1.0  0.93932  0.3973399999999999  0.74348  1.0000
  C   C42       1.0  0.0342  0.35049999999999987  0.67416  1.0000
  H   H15       1.0  0.0448  0.42882  0.65781  1.0000
  H   H16       1.0  0.9614  0.29038  0.64505  1.0000
  H   H17       1.0  0.16218999999999997  0.36569  0.63531  1.0000
  N   N1        1.0  0.9804200000000001  0.23487  0.8376699999999998  1.0000
  H   H18       1.0  0.9537699999999999  0.23744  0.9055299999999997  1.0000
  H   H19       1.0  0.0020399999999999798  0.16479  0.81459  1.0000
  N   N2        1.0  0.2960999999999999  0.2985699999999999  0.92952  1.0000
  H   H20       1.0  0.1802599999999999  0.26786  0.96813  1.0000
  H   H21       1.0  0.4135899999999999  0.28822999999999993  0.9669300000000001  1.0000
  O   O23       1.0  0.2503399999999999  0.40708  0.79842  1.0000
  C   C43       1.0  0.33294  0.4785599999999999  0.74536  1.0000
  H   H22       1.0  0.30279  0.4717599999999999  0.6832799999999998  1.0000
  H   H23       1.0  0.48336000000000007  0.48498  0.74439  1.0000
  H   H24       1.0  0.27509  0.5443  0.76647  1.0000
  O   O24       1.0  0.86501  0.6200099999999997  0.7661  1.0000
  C   C44       1.0  0.73307  0.6442299999999997  0.8273299999999998  1.0000
  H   H25       1.0  0.65633  0.7053  0.80854  1.0000
  H   H26       1.0  0.79261  0.65992  0.8852599999999998  1.0000
  H   H27       1.0  0.63684  0.58486  0.83852  1.0000
  O   O25       1.0  0.97205  0.18537  0.18585999999999994  1.0000
  C   C45       1.0  0.0238  0.1142  0.14036  1.0000
  H   H28       1.0  0.010429999999999998  0.15003  0.08128  1.0000
  H   H29       1.0  0.96666  0.04658  0.16694999999999993  1.0000
  H   H30       1.0  0.16622  0.10322  0.14332999999999996  1.0000
  O   O26       1.0  0.23368  0.28887  0.14014  1.0000
  C   C46       1.0  0.27214  0.3815199999999999  0.11938999999999998  1.0000
  H   H31       1.0  0.41911999999999994  0.39902  0.11626999999999997  1.0000
  H   H32       1.0  0.18614  0.42848999999999987  0.15625  1.0000
  H   H33       1.0  0.22771  0.39236  0.05903999999999999  1.0000
  O   O27       1.0  0.26153  0.26107  0.36109  1.0000
  C   C47       1.0  0.10209999999999993  0.29378  0.39955  1.0000
  H   H34       1.0  0.03710000000000001  0.33393  0.36059  1.0000
  H   H35       1.0  0.11987000000000003  0.35933999999999994  0.41260999999999987  1.0000
  H   H36       1.0  0.023910000000000004  0.24737999999999993  0.44365  1.0000
  N   N3        1.0  0.28695000000000004  0.4135399999999999  0.2893999999999999  1.0000
  H   H37       1.0  0.3799399999999999  0.4497099999999999  0.24913  1.0000
  H   H38       1.0  0.15603  0.43308  0.28052  1.0000
  O   O28       1.0  0.80874  0.83955  0.7407899999999998  1.0000
  C   C48       1.0  0.7346  0.8140999999999998  0.66877  1.0000
  H   H39       1.0  0.72745  0.73691  0.66155  1.0000
  H   H40       1.0  0.8113599999999997  0.84881  0.6167599999999998  1.0000
  H   H41       1.0  0.5957999999999998  0.8406999999999998  0.66653  1.0000
  N   N4        1.0  0.15927  0.84876  0.60047  1.0000
  H   H42       1.0  0.11993999999999999  0.91685  0.61009  1.0000
  H   H43       1.0  0.07335999999999998  0.81871  0.55919  1.0000
  N   N5        1.0  0.8693399999999999  0.6093199999999999  0.2791  1.0000
  H   H44       1.0  0.9295899999999999  0.54341  0.2713699999999999  1.0000
  H   H45       1.0  0.72923  0.62308  0.26987  1.0000
