data_image0
_chemical_formula_structural       C120Cr12H124O53HOHOHOHCNCNCNCN
_chemical_formula_sum              "C124 Cr12 H128 O56 N4"
_cell_length_a       19.56947
_cell_length_b       11.32743
_cell_length_c       18.70896
_cell_angle_alpha    89.94943
_cell_angle_beta     89.86937
_cell_angle_gamma    90.08606

_space_group_name_H-M_alt    "P 1"
_space_group_IT_number       1

loop_
  _space_group_symop_operation_xyz
  'x, y, z'

loop_
  _atom_site_type_symbol
  _atom_site_label
  _atom_site_symmetry_multiplicity
  _atom_site_fract_x
  _atom_site_fract_y
  _atom_site_fract_z
  _atom_site_occupancy
  C   C1        1.0  0.27346  0.03991  0.85525  1.0000
  C   C2        1.0  0.72618  0.04011  0.14438  1.0000
  C   C3        1.0  0.77346  0.5399100000000001  0.85525  1.0000
  C   C4        1.0  0.22618  0.54011  0.14438  1.0000
  C   C5        1.0  0.51727  0.72232  0.96602  1.0000
  C   C6        1.0  0.48011999999999994  0.7333800000000001  0.03674999999999999  1.0000
  C   C7        1.0  0.01727  0.22232000000000002  0.96602  1.0000
  C   C8        1.0  0.9801199999999999  0.23338  0.03674  1.0000
  C   C9        1.0  0.30267  0.50393  0.03819  1.0000
  C   C10       1.0  0.68963  0.51827  0.9580999999999997  1.0000
  C   C11       1.0  0.80267  0.00394  0.03819  1.0000
  C   C12       1.0  0.18963  0.01827  0.9580999999999997  1.0000
  C   C13       1.0  0.29955  0.49739  0.95613  1.0000
  C   C14       1.0  0.69024  0.51285  0.039909999999999994  1.0000
  C   C15       1.0  0.79955  0.9974  0.95613  1.0000
  C   C16       1.0  0.19023999999999996  0.012860000000000002  0.039909999999999994  1.0000
  C   C17       1.0  0.17309999999999998  0.53339  0.025349999999999998  1.0000
  C   C18       1.0  0.82086  0.51221  0.97496  1.0000
  C   C19       1.0  0.6731  0.03339  0.025349999999999998  1.0000
  C   C20       1.0  0.3208599999999999  0.012200000000000003  0.97496  1.0000
  C   C21       1.0  0.24998999999999996  0.69848  0.0537  1.0000
  C   C22       1.0  0.7601599999999998  0.69626  0.94564  1.0000
  C   C23       1.0  0.74998  0.19848000000000002  0.0537  1.0000
  C   C24       1.0  0.26016  0.19626000000000002  0.94564  1.0000
  C   C25       1.0  0.23881  0.56793  0.06775  1.0000
  C   C26       1.0  0.7600299999999999  0.5652900000000001  0.93151  1.0000
  C   C27       1.0  0.73881  0.06793  0.06775  1.0000
  C   C28       1.0  0.26003  0.06528  0.93151  1.0000
  C   C29       1.0  0.253  0.60051  0.92886  1.0000
  C   C30       1.0  0.7469499999999999  0.59778  0.07059999999999997  1.0000
  C   C31       1.0  0.753  0.1005  0.92886  1.0000
  C   C32       1.0  0.24695  0.09778  0.07059999999999997  1.0000
  C   C33       1.0  0.17896  0.56323  0.9452899999999999  1.0000
  C   C34       1.0  0.8145299999999999  0.53251  0.056979999999999996  1.0000
  C   C35       1.0  0.6789599999999999  0.06322000000000001  0.9452899999999999  1.0000
  C   C36       1.0  0.31453  0.03251  0.056979999999999996  1.0000
  C   C37       1.0  0.26809999999999995  0.7128900000000002  0.9734  1.0000
  C   C38       1.0  0.7535299999999999  0.71385  0.026749999999999996  1.0000
  C   C39       1.0  0.7680999999999999  0.2129  0.9734  1.0000
  C   C40       1.0  0.25353  0.21385000000000004  0.026749999999999996  1.0000
  C   C41       1.0  0.49754999999999994  0.69879  0.45988  1.0000
  C   C42       1.0  0.50224  0.69886  0.54021  1.0000
  C   C43       1.0  0.9975499999999998  0.19879  0.45988  1.0000
  C   C44       1.0  0.0022499999999999994  0.19886  0.54021  1.0000
  C   C45       1.0  0.44568  0.8176100000000001  0.8625299999999999  1.0000
  C   C46       1.0  0.55816  0.81708  0.1378  1.0000
  C   C47       1.0  0.9456799999999999  0.31761000000000006  0.8625299999999999  1.0000
  C   C48       1.0  0.05816  0.31708000000000003  0.1378  1.0000
  C   C49       1.0  0.56693  0.8880300000000002  0.4723199999999999  1.0000
  C   C50       1.0  0.43311  0.88823  0.5275599999999999  1.0000
  C   C51       1.0  0.06693  0.3880300000000001  0.4723199999999999  1.0000
  C   C52       1.0  0.93311  0.38823  0.5275599999999999  1.0000
  C   C53       1.0  0.4454199999999999  0.89754  0.44608  1.0000
  C   C54       1.0  0.55458  0.8976900000000001  0.55377  1.0000
  C   C55       1.0  0.94542  0.39754  0.44608  1.0000
  C   C56       1.0  0.05458  0.39769  0.55377  1.0000
  C   C57       1.0  0.50911  0.8268200000000001  0.43039999999999995  1.0000
  C   C58       1.0  0.49080999999999997  0.8269600000000001  0.56955  1.0000
  C   C59       1.0  0.009109999999999998  0.32682  0.43039999999999995  1.0000
  C   C60       1.0  0.99081  0.32696  0.56955  1.0000
  C   C61       1.0  0.18231  0.6575  0.45870999999999995  1.0000
  C   C62       1.0  0.81777  0.65777  0.54124  1.0000
  C   C63       1.0  0.68231  0.1575  0.45870999999999995  1.0000
  C   C64       1.0  0.31777  0.15776  0.54124  1.0000
  C   C65       1.0  0.18124  0.65221  0.53921  1.0000
  C   C66       1.0  0.81881  0.65243  0.46074999999999994  1.0000
  C   C67       1.0  0.68124  0.1522  0.53921  1.0000
  C   C68       1.0  0.3188099999999999  0.15243  0.46074999999999994  1.0000
  C   C69       1.0  0.24181999999999998  0.45928  0.47346  1.0000
  C   C70       1.0  0.75811  0.45942000000000005  0.52683  1.0000
  C   C71       1.0  0.7418199999999999  0.9592800000000001  0.47346999999999995  1.0000
  C   C72       1.0  0.25811  0.9594200000000002  0.52683  1.0000
  C   C73       1.0  0.30802  0.6337  0.44245999999999996  1.0000
  C   C74       1.0  0.69202  0.63385  0.5574399999999999  1.0000
  C   C75       1.0  0.80802  0.13369000000000003  0.44245999999999996  1.0000
  C   C76       1.0  0.19201999999999997  0.13385  0.5574399999999999  1.0000
  C   C77       1.0  0.23991  0.57473  0.42950999999999995  1.0000
  C   C78       1.0  0.7600599999999998  0.5749900000000001  0.57054  1.0000
  C   C79       1.0  0.73991  0.07472  0.42950999999999995  1.0000
  C   C80       1.0  0.26006  0.07499000000000001  0.57054  1.0000
  C   C81       1.0  0.25202  0.60713  0.5675099999999998  1.0000
  C   C82       1.0  0.7480099999999998  0.60694  0.43247  1.0000
  C   C83       1.0  0.75202  0.10713000000000002  0.5675099999999998  1.0000
  C   C84       1.0  0.24801  0.10694  0.43248  1.0000
  C   C85       1.0  0.25633  0.4760400000000001  0.55372  1.0000
  C   C86       1.0  0.74374  0.47587  0.44650999999999996  1.0000
  C   C87       1.0  0.75633  0.97603  0.55372  1.0000
  C   C88       1.0  0.24373  0.9758800000000001  0.44650999999999996  1.0000
  C   C89       1.0  0.26055  0.63555  0.85234  1.0000
  C   C90       1.0  0.73915  0.63597  0.14711  1.0000
  C   C91       1.0  0.7605499999999998  0.13555  0.85234  1.0000
  C   C92       1.0  0.23914999999999997  0.13598000000000002  0.14711  1.0000
  C   C93       1.0  0.31034  0.66287  0.52295  1.0000
  C   C94       1.0  0.6896399999999999  0.66246  0.4768399999999999  1.0000
  C   C95       1.0  0.81034  0.16287  0.52295  1.0000
  C   C96       1.0  0.18963999999999998  0.16246  0.4768399999999999  1.0000
  C   C97       1.0  0.27332  0.04395  0.64612  1.0000
  C   C98       1.0  0.72662  0.04368  0.35395  1.0000
  C   C99       1.0  0.77332  0.54395  0.64612  1.0000
  C   C100      1.0  0.22662  0.5436800000000002  0.35394  1.0000
  C   C101      1.0  0.46981  0.82279  0.64606  1.0000
  C   C102      1.0  0.53016  0.82267  0.3539199999999999  1.0000
  C   C103      1.0  0.9698099999999998  0.3227900000000001  0.64606  1.0000
  C   C104      1.0  0.03016  0.32267  0.3539199999999999  1.0000
  C   C105      1.0  0.26101  0.64091  0.6435399999999999  1.0000
  C   C106      1.0  0.73903  0.64062  0.3564099999999999  1.0000
  C   C107      1.0  0.7610099999999999  0.14091  0.6435399999999999  1.0000
  C   C108      1.0  0.23903  0.14063  0.3564099999999999  1.0000
  C   C109      1.0  0.4904699999999999  0.92355  0.03328999999999999  1.0000
  C   C110      1.0  0.5283099999999998  0.91214  0.9602699999999998  1.0000
  C   C111      1.0  0.9904699999999999  0.42355  0.03328999999999999  1.0000
  C   C112      1.0  0.02831  0.41215000000000007  0.96028  1.0000
  C   C113      1.0  0.43618  0.83344  0.00829  1.0000
  C   C114      1.0  0.57193  0.80911  0.9907599999999999  1.0000
  C   C115      1.0  0.93618  0.33343  0.00829  1.0000
  C   C116      1.0  0.07193  0.30911000000000005  0.9907599999999999  1.0000
  C   C117      1.0  0.47427  0.8226300000000001  0.93576  1.0000
  C   C118      1.0  0.53331  0.82142  0.06307999999999998  1.0000
  C   C119      1.0  0.9742699999999999  0.32263  0.93576  1.0000
  C   C120      1.0  0.03331  0.32142  0.06307999999999998  1.0000
  Cr  Cr1       1.0  0.22962  0.83604  0.74911  1.0000
  Cr  Cr2       1.0  0.77038  0.83604  0.25089  1.0000
  Cr  Cr3       1.0  0.7296199999999999  0.33604  0.74911  1.0000
  Cr  Cr4       1.0  0.27038  0.33604  0.25089  1.0000
  Cr  Cr5       1.0  0.38763  0.9906800000000001  0.75073  1.0000
  Cr  Cr6       1.0  0.61237  0.9906800000000001  0.24926999999999996  1.0000
  Cr  Cr7       1.0  0.8876299999999999  0.49068000000000006  0.75073  1.0000
  Cr  Cr8       1.0  0.11236999999999998  0.49068000000000006  0.24926999999999996  1.0000
  Cr  Cr9       1.0  0.38602  0.6765900000000001  0.74921  1.0000
  Cr  Cr10      1.0  0.61398  0.6765900000000001  0.25079  1.0000
  Cr  Cr11      1.0  0.88602  0.17659000000000002  0.74921  1.0000
  Cr  Cr12      1.0  0.11398  0.17659000000000002  0.25079  1.0000
  H   H1        1.0  0.3854699999999999  0.83057  0.03227  1.0000
  H   H2        1.0  0.6248199999999999  0.7901700000000002  0.9759399999999998  1.0000
  H   H3        1.0  0.8854599999999999  0.33057  0.03227  1.0000
  H   H4        1.0  0.12482  0.29018000000000005  0.9759399999999998  1.0000
  H   H5        1.0  0.20151  0.74375  0.06684999999999999  1.0000
  H   H6        1.0  0.80929  0.7346  0.92621  1.0000
  H   H7        1.0  0.7015099999999997  0.24375000000000002  0.06684999999999999  1.0000
  H   H8        1.0  0.30928999999999995  0.2346  0.92621  1.0000
  H   H9        1.0  0.29111999999999993  0.7348900000000003  0.08813  1.0000
  H   H10       1.0  0.71835  0.74062  0.9159699999999998  1.0000
  H   H11       1.0  0.79112  0.23489000000000004  0.08812  1.0000
  H   H12       1.0  0.21835  0.24062  0.9159699999999998  1.0000
  H   H13       1.0  0.3231299999999999  0.7283100000000001  0.9664299999999999  1.0000
  H   H14       1.0  0.7130099999999999  0.7756  0.04146  1.0000
  H   H15       1.0  0.82312  0.22833  0.96642  1.0000
  H   H16       1.0  0.21300999999999998  0.27559  0.04146  1.0000
  H   H17       1.0  0.23969  0.78818  0.95205  1.0000
  H   H18       1.0  0.80315  0.75064  0.04231  1.0000
  H   H19       1.0  0.73967  0.28817  0.95205  1.0000
  H   H20       1.0  0.30316  0.25064  0.04231  1.0000
  H   H21       1.0  0.6268399999999998  0.07867000000000002  0.04648999999999998  1.0000
  H   H22       1.0  0.37045  0.05061000000000001  0.9570999999999998  1.0000
  H   H23       1.0  0.12683999999999998  0.57867  0.04648999999999998  1.0000
  H   H24       1.0  0.87045  0.55063  0.9570999999999998  1.0000
  H   H25       1.0  0.14268999999999998  0.6358  0.93236  1.0000
  H   H26       1.0  0.8591399999999999  0.5843700000000001  0.07637  1.0000
  H   H27       1.0  0.64268  0.13579  0.93236  1.0000
  H   H28       1.0  0.35914  0.08436  0.07637  1.0000
  H   H29       1.0  0.53317  0.6305  0.44034  1.0000
  H   H30       1.0  0.4666199999999999  0.63041  0.55985  1.0000
  H   H31       1.0  0.03317  0.1305  0.44034  1.0000
  H   H32       1.0  0.96662  0.13041  0.55985  1.0000
  H   H33       1.0  0.44666  0.66763  0.44291  1.0000
  H   H34       1.0  0.55314  0.66784  0.5571899999999997  1.0000
  H   H35       1.0  0.9466599999999998  0.16763000000000003  0.44292  1.0000
  H   H36       1.0  0.05313999999999999  0.16784  0.5571899999999997  1.0000
  H   H37       1.0  0.6081599999999999  0.82914  0.46318  1.0000
  H   H38       1.0  0.39169999999999994  0.8296700000000001  0.5369699999999998  1.0000
  H   H39       1.0  0.10816  0.32914  0.46318  1.0000
  H   H40       1.0  0.8916999999999999  0.32966  0.5369599999999999  1.0000
  H   H41       1.0  0.5989799999999998  0.8635  0.5842399999999999  1.0000
  H   H42       1.0  0.4009599999999999  0.86316  0.41574  1.0000
  H   H43       1.0  0.09898  0.3635  0.5842499999999998  1.0000
  H   H44       1.0  0.9009599999999998  0.36316  0.41574  1.0000
  H   H45       1.0  0.47983  0.00842  0.060689999999999994  1.0000
  H   H46       1.0  0.54536  0.9881300000000002  0.92747  1.0000
  H   H47       1.0  0.9798199999999999  0.50842  0.06069999999999999  1.0000
  H   H48       1.0  0.04536  0.48813  0.92747  1.0000
  H   H49       1.0  0.45412  0.9909000000000002  0.43019  1.0000
  H   H50       1.0  0.54594  0.99107  0.56942  1.0000
  H   H51       1.0  0.9541199999999997  0.49090000000000006  0.43019  1.0000
  H   H52       1.0  0.04594  0.49108000000000007  0.56942  1.0000
  H   H53       1.0  0.42267  0.9764300000000001  0.5495599999999998  1.0000
  H   H54       1.0  0.57766  0.9760700000000001  0.45012  1.0000
  H   H55       1.0  0.9226699999999999  0.47643  0.5495599999999998  1.0000
  H   H56       1.0  0.07766  0.47607  0.45012  1.0000
  H   H57       1.0  0.12999999999999998  0.63781  0.4402299999999999  1.0000
  H   H58       1.0  0.8700399999999999  0.63793  0.5597099999999999  1.0000
  H   H59       1.0  0.63  0.13781  0.4402299999999999  1.0000
  H   H60       1.0  0.37005  0.13793  0.5597099999999999  1.0000
  H   H61       1.0  0.19243  0.74868  0.44048  1.0000
  H   H62       1.0  0.80784  0.7489600000000001  0.55937  1.0000
  H   H63       1.0  0.6924299999999998  0.24867000000000003  0.44048  1.0000
  H   H64       1.0  0.30784  0.24896  0.55937  1.0000
  H   H65       1.0  0.16476  0.7398200000000003  0.5583099999999999  1.0000
  H   H66       1.0  0.8352499999999999  0.74016  0.44154999999999994  1.0000
  H   H67       1.0  0.66477  0.23982000000000003  0.5583099999999999  1.0000
  H   H68       1.0  0.33526  0.24015000000000006  0.44154999999999994  1.0000
  H   H69       1.0  0.14086  0.59117  0.5576399999999999  1.0000
  H   H70       1.0  0.85923  0.59162  0.44239999999999996  1.0000
  H   H71       1.0  0.64086  0.09117  0.5576399999999999  1.0000
  H   H72       1.0  0.35923  0.09161000000000001  0.44239999999999996  1.0000
  H   H73       1.0  0.6907799999999998  0.92927  0.46924999999999994  1.0000
  H   H74       1.0  0.30913  0.92954  0.53135  1.0000
  H   H75       1.0  0.19077  0.42928  0.46924  1.0000
  H   H76       1.0  0.80913  0.42954  0.53136  1.0000
  H   H77       1.0  0.71879  0.92667  0.5869699999999999  1.0000
  H   H78       1.0  0.28135  0.9266500000000001  0.41344  1.0000
  H   H79       1.0  0.21879  0.42667000000000005  0.5869699999999999  1.0000
  H   H80       1.0  0.7813599999999998  0.42665  0.41344  1.0000
  H   H81       1.0  0.34986  0.5719200000000001  0.4278699999999999  1.0000
  H   H82       1.0  0.6500699999999999  0.57219  0.57229  1.0000
  H   H83       1.0  0.84986  0.07192  0.4278699999999999  1.0000
  H   H84       1.0  0.15007999999999996  0.07219  0.57229  1.0000
  H   H85       1.0  0.31341  0.71482  0.4094599999999999  1.0000
  H   H86       1.0  0.6867799999999998  0.7152100000000001  0.59013  1.0000
  H   H87       1.0  0.8134199999999999  0.21480000000000002  0.4094599999999999  1.0000
  H   H88       1.0  0.18678  0.21521  0.59013  1.0000
  H   H89       1.0  0.30010999999999993  0.7543600000000001  0.5273899999999998  1.0000
  H   H90       1.0  0.69971  0.7539800000000002  0.47187  1.0000
  H   H91       1.0  0.8001  0.25436  0.5273799999999998  1.0000
  H   H92       1.0  0.19972  0.25398  0.47187999999999997  1.0000
  H   H93       1.0  0.36035999999999996  0.63902  0.5451  1.0000
  H   H94       1.0  0.63962  0.63799  0.45481  1.0000
  H   H95       1.0  0.8603599999999998  0.13902  0.5451  1.0000
  H   H96       1.0  0.13962  0.138  0.45481999999999995  1.0000
  H   H97       1.0  0.27838999999999997  0.3962900000000001  0.45049  1.0000
  H   H98       1.0  0.72143  0.39643  0.5498499999999998  1.0000
  H   H99       1.0  0.77838  0.89629  0.45049  1.0000
  H   H100      1.0  0.22142999999999996  0.89642  0.5498499999999998  1.0000
  H   H101      1.0  0.30845  0.44408000000000003  0.5671  1.0000
  H   H102      1.0  0.69165  0.4435900000000001  0.4331  1.0000
  H   H103      1.0  0.80845  0.9440700000000001  0.5671  1.0000
  H   H104      1.0  0.19165  0.9436  0.4331  1.0000
  H   H105      1.0  0.31202  0.41954  0.06307  1.0000
  H   H106      1.0  0.6745499999999999  0.43184  0.93573  1.0000
  H   H107      1.0  0.81202  0.91954  0.06307  1.0000
  H   H108      1.0  0.17454999999999998  0.93184  0.93573  1.0000
  H   H109      1.0  0.3471699999999999  0.55538  0.05484  1.0000
  H   H110      1.0  0.64986  0.57985  0.93953  1.0000
  H   H111      1.0  0.8471699999999999  0.055380000000000006  0.05484  1.0000
  H   H112      1.0  0.14986  0.07986  0.93953  1.0000
  H   H113      1.0  0.27351  0.41574000000000005  0.9412599999999999  1.0000
  H   H114      1.0  0.70684  0.42365  0.05324  1.0000
  H   H115      1.0  0.7735199999999999  0.91574  0.9412599999999999  1.0000
  H   H116      1.0  0.20684  0.92365  0.05324  1.0000
  H   H117      1.0  0.66487  0.9397500000000002  0.03358  1.0000
  H   H118      1.0  0.32231  0.91921  0.9613199999999998  1.0000
  H   H119      1.0  0.16487  0.43975000000000003  0.03358  1.0000
  H   H120      1.0  0.8223199999999999  0.4192200000000001  0.9613199999999998  1.0000
  H   H121      1.0  0.66476  0.9853000000000001  0.9123399999999999  1.0000
  H   H122      1.0  0.31504  0.9483300000000002  0.0873  1.0000
  H   H123      1.0  0.16476  0.48532  0.9123399999999999  1.0000
  H   H124      1.0  0.81504  0.4483300000000001  0.0873  1.0000
  O   O1        1.0  0.21413  0.70857  0.8298899999999999  1.0000
  O   O2        1.0  0.78587  0.70857  0.17011  1.0000
  O   O3        1.0  0.71413  0.20857000000000006  0.8298899999999999  1.0000
  O   O4        1.0  0.28586999999999996  0.20857000000000006  0.17011  1.0000
  O   O5        1.0  0.4463599999999999  0.9199900000000001  0.6752299999999998  1.0000
  O   O6        1.0  0.55364  0.9199900000000001  0.32477  1.0000
  O   O7        1.0  0.94636  0.41999  0.6752299999999998  1.0000
  O   O8        1.0  0.05363999999999999  0.41999  0.32477  1.0000
  O   O9        1.0  0.45717  0.7173000000000002  0.66838  1.0000
  O   O10       1.0  0.54283  0.7173000000000002  0.33162  1.0000
  O   O11       1.0  0.9571699999999999  0.21730000000000002  0.66838  1.0000
  O   O12       1.0  0.04282999999999999  0.21730000000000002  0.33162  1.0000
  O   O13       1.0  0.32087  0.62489  0.67313  1.0000
  O   O14       1.0  0.67913  0.62489  0.32687  1.0000
  O   O15       1.0  0.82087  0.12489000000000003  0.67313  1.0000
  O   O16       1.0  0.17913  0.12489000000000003  0.32687  1.0000
  O   O17       1.0  0.33443  0.83443  0.74968  1.0000
  O   O18       1.0  0.66557  0.83443  0.25032  1.0000
  O   O19       1.0  0.8344299999999999  0.33443  0.74968  1.0000
  O   O20       1.0  0.16557  0.33443  0.25032  1.0000
  O   O21       1.0  0.23605  0.95915  0.82527  1.0000
  O   O22       1.0  0.7639499999999999  0.95915  0.17472999999999994  1.0000
  O   O23       1.0  0.73605  0.45915000000000006  0.82527  1.0000
  O   O24       1.0  0.26395  0.45915000000000006  0.17472999999999994  1.0000
  O   O25       1.0  0.3321  0.07665  0.83231  1.0000
  O   O26       1.0  0.6679  0.07665  0.16769  1.0000
  O   O27       1.0  0.8321  0.57665  0.83231  1.0000
  O   O28       1.0  0.1679  0.57665  0.16769  1.0000
  O   O29       1.0  0.4465  0.91862  0.8262399999999999  1.0000
  O   O30       1.0  0.5535  0.91862  0.17375999999999997  1.0000
  O   O31       1.0  0.9464999999999999  0.41862  0.8262399999999999  1.0000
  O   O32       1.0  0.0535  0.41862  0.17375999999999997  1.0000
  O   O33       1.0  0.45731  0.71583  0.83128  1.0000
  O   O34       1.0  0.54269  0.71583  0.16872  1.0000
  O   O35       1.0  0.95731  0.21583  0.83128  1.0000
  O   O36       1.0  0.04268999999999999  0.21583  0.16872  1.0000
  O   O37       1.0  0.32099999999999995  0.6235200000000001  0.82413  1.0000
  O   O38       1.0  0.679  0.6235200000000001  0.17587  1.0000
  O   O39       1.0  0.821  0.12352000000000002  0.82413  1.0000
  O   O40       1.0  0.17899999999999996  0.12352000000000002  0.17587  1.0000
  O   O41       1.0  0.21399  0.7100400000000002  0.667  1.0000
  O   O42       1.0  0.78601  0.7100400000000002  0.33299999999999996  1.0000
  O   O43       1.0  0.7139899999999999  0.21004  0.667  1.0000
  O   O44       1.0  0.28601  0.21004  0.33299999999999996  1.0000
  O   O45       1.0  0.23592  0.9605200000000003  0.67426  1.0000
  O   O46       1.0  0.7640799999999999  0.9605200000000003  0.32574  1.0000
  O   O47       1.0  0.73592  0.4605200000000001  0.67426  1.0000
  O   O48       1.0  0.26408  0.4605200000000001  0.32574  1.0000
  O   O49       1.0  0.33196  0.07812  0.6694099999999997  1.0000
  O   O50       1.0  0.66804  0.07812  0.33059  1.0000
  O   O51       1.0  0.83196  0.57812  0.6694099999999997  1.0000
  O   O52       1.0  0.16804  0.57812  0.33059  1.0000
  O   O53       1.0  0.53144  0.61866  0.9283399999999999  1.0000
  H   H125      1.0  0.53512  0.55467  0.9639  1.0000
  O   O54       1.0  0.45318  0.64165  0.07797  1.0000
  H   H126      1.0  0.4555  0.5702200000000001  0.047779999999999996  1.0000
  O   O55       1.0  0.03145  0.11867000000000001  0.9283399999999999  1.0000
  H   H127      1.0  0.03512  0.05467000000000002  0.9639  1.0000
  O   O56       1.0  0.95318  0.14164  0.07796  1.0000
  H   H128      1.0  0.9554999999999999  0.07022000000000002  0.047769999999999986  1.0000
  C   C121      1.0  0.3685899999999999  0.48547  0.92596  1.0000
  N   N1        1.0  0.42226  0.47244000000000014  0.9013499999999999  1.0000
  C   C122      1.0  0.62149  0.51213  0.07063  1.0000
  N   N2        1.0  0.56817  0.5048400000000001  0.09677  1.0000
  C   C123      1.0  0.86859  0.9854800000000002  0.92597  1.0000
  N   N3        1.0  0.9222599999999999  0.97245  0.9013499999999999  1.0000
  C   C124      1.0  0.12148999999999999  0.01213  0.07063  1.0000
  N   N4        1.0  0.06817  0.0048400000000000006  0.09678  1.0000
