data_image0
_chemical_formula_structural       C124Cr12H64O52CO2HCO2HCO2HCO2HCH3CH3CH3CH3
_chemical_formula_sum              "C132 Cr12 H80 O60"
_cell_length_a       19.06316
_cell_length_b       11.02016
_cell_length_c       18.7339
_cell_angle_alpha    90.24588
_cell_angle_beta     89.49099
_cell_angle_gamma    89.80739

_symmetry_space_group_name_H-M    'P 1'
_symmetry_Int_Tables_number       1

loop_
  _symmetry_equiv_pos_as_xyz
  'x,y,z'

loop_
  _atom_site_type_symbol
  _atom_site_label
  _atom_site_symmetry_multiplicity
  _atom_site_fract_x
  _atom_site_fract_y
  _atom_site_fract_z
  _atom_site_occupancy
  C   C1        1.0  0.7306  0.37656000000000006  0.14621  1.0000
  C   C2        1.0  0.2888  0.32891  0.86093  1.0000
  C   C3        1.0  0.23060000000000003  0.8765600000000001  0.14621  1.0000
  C   C4        1.0  0.78881  0.82889  0.86093  1.0000
  C   C5        1.0  0.52971  0.37318000000000007  0.9219499999999999  1.0000
  C   C6        1.0  0.50675  0.39387  0.06858  1.0000
  C   C7        1.0  0.029720000000000007  0.87317  0.9219499999999999  1.0000
  C   C8        1.0  0.006749999999999999  0.8938700000000003  0.06857  1.0000
  C   C9        1.0  0.03206  0.9866400000000001  0.9548999999999999  1.0000
  C   C10       1.0  0.016900000000000002  0.9970800000000001  0.02738  1.0000
  C   C11       1.0  0.53205  0.48664  0.95491  1.0000
  C   C12       1.0  0.51689  0.49708  0.02738  1.0000
  C   C13       1.0  0.7794300000000002  0.84152  0.93782  1.0000
  C   C14       1.0  0.25443  0.9220500000000003  0.07799  1.0000
  C   C15       1.0  0.27942  0.3415500000000001  0.93782  1.0000
  C   C16       1.0  0.75443  0.42207  0.07799  1.0000
  C   C17       1.0  0.71488  0.8212800000000002  0.9710399999999999  1.0000
  C   C18       1.0  0.30100000000000005  0.8542800000000002  0.03502  1.0000
  C   C19       1.0  0.21488  0.3213  0.9710399999999999  1.0000
  C   C20       1.0  0.80102  0.35434000000000004  0.03503  1.0000
  C   C21       1.0  0.70436  0.84936  0.042219999999999994  1.0000
  C   C22       1.0  0.30191000000000007  0.86905  0.9616099999999999  1.0000
  C   C23       1.0  0.20436  0.3493700000000001  0.042219999999999994  1.0000
  C   C24       1.0  0.8019500000000002  0.36911  0.96162  1.0000
  C   C25       1.0  0.82567  0.9040800000000001  0.05271  1.0000
  C   C26       1.0  0.21445  0.026470000000000007  0.97337  1.0000
  C   C27       1.0  0.32567  0.40407  0.05271  1.0000
  C   C28       1.0  0.71443  0.52647  0.97337  1.0000
  C   C29       1.0  0.83621  0.87538  0.9806  1.0000
  C   C30       1.0  0.21633  0.016280000000000003  0.04694999999999999  1.0000
  C   C31       1.0  0.33621000000000006  0.37539000000000006  0.9806  1.0000
  C   C32       1.0  0.71631  0.5162800000000001  0.04694999999999999  1.0000
  C   C33       1.0  0.64279  0.8606500000000001  0.95074  1.0000
  C   C34       1.0  0.3103500000000001  0.7196800000000001  0.02872  1.0000
  C   C35       1.0  0.14278  0.36066000000000004  0.95075  1.0000
  C   C36       1.0  0.8104400000000002  0.21973  0.02873  1.0000
  C   C37       1.0  0.63077  0.8908100000000002  0.02935  1.0000
  C   C38       1.0  0.3114  0.73594  0.9482199999999998  1.0000
  C   C39       1.0  0.13076  0.39081000000000005  0.02936  1.0000
  C   C40       1.0  0.81151  0.23602000000000004  0.9482199999999998  1.0000
  C   C41       1.0  0.75789  0.90048  0.08273  1.0000
  C   C42       1.0  0.25481  0.94871  0.92968  1.0000
  C   C43       1.0  0.25788  0.40048000000000006  0.08273  1.0000
  C   C44       1.0  0.7548200000000002  0.44872000000000006  0.92968  1.0000
  C   C45       1.0  0.53067  0.15637  0.14761  1.0000
  C   C46       1.0  0.46733  0.15454  0.85388  1.0000
  C   C47       1.0  0.03067  0.65637  0.14761  1.0000
  C   C48       1.0  0.9673300000000001  0.65453  0.85388  1.0000
  C   C49       1.0  0.44462  0.15438000000000002  0.56221  1.0000
  C   C50       1.0  0.4837  0.15619  0.41669  1.0000
  C   C51       1.0  0.94462  0.6543800000000001  0.56221  1.0000
  C   C52       1.0  0.9837000000000001  0.65619  0.41669  1.0000
  C   C53       1.0  0.46042000000000005  0.04686000000000001  0.52615  1.0000
  C   C54       1.0  0.47935000000000005  0.047740000000000005  0.45530999999999994  1.0000
  C   C55       1.0  0.96042  0.54686  0.52615  1.0000
  C   C56       1.0  0.9793500000000002  0.54774  0.45530999999999994  1.0000
  C   C57       1.0  0.4504000000000001  0.25847  0.4472499999999999  1.0000
  C   C58       1.0  0.43384000000000006  0.25888  0.52092  1.0000
  C   C59       1.0  0.9504  0.7584700000000001  0.4472499999999999  1.0000
  C   C60       1.0  0.93384  0.7588800000000001  0.52092  1.0000
  C   C61       1.0  0.51203  0.94939  0.5438  1.0000
  C   C62       1.0  0.5333600000000001  0.9514600000000001  0.46619  1.0000
  C   C63       1.0  0.012039999999999999  0.44939000000000007  0.5438  1.0000
  C   C64       1.0  0.03336000000000001  0.4514600000000001  0.46619  1.0000
  C   C65       1.0  0.7547300000000001  0.91587  0.57586  1.0000
  C   C66       1.0  0.25213  0.9409100000000002  0.41717  1.0000
  C   C67       1.0  0.25472  0.4158700000000001  0.57586  1.0000
  C   C68       1.0  0.75213  0.44091  0.41717  1.0000
  C   C69       1.0  0.8083900000000003  0.9737300000000001  0.53881  1.0000
  C   C70       1.0  0.20654  0.018790000000000005  0.45564  1.0000
  C   C71       1.0  0.30839  0.4737400000000001  0.53881  1.0000
  C   C72       1.0  0.70654  0.5187900000000001  0.45564  1.0000
  C   C73       1.0  0.80833  0.97952  0.46554  1.0000
  C   C74       1.0  0.2086  0.01998  0.52835  1.0000
  C   C75       1.0  0.3083300000000001  0.47953000000000007  0.46554999999999996  1.0000
  C   C76       1.0  0.7086000000000002  0.51998  0.52835  1.0000
  C   C77       1.0  0.7017400000000003  0.8639100000000002  0.46251999999999993  1.0000
  C   C78       1.0  0.31479  0.90575  0.52798  1.0000
  C   C79       1.0  0.20174  0.3639  0.46251999999999993  1.0000
  C   C80       1.0  0.8147900000000002  0.40575  0.52798  1.0000
  C   C81       1.0  0.70127  0.85974  0.53709  1.0000
  C   C82       1.0  0.3122800000000001  0.89954  0.45296  1.0000
  C   C83       1.0  0.20127000000000003  0.35974000000000006  0.53709  1.0000
  C   C84       1.0  0.81228  0.39953  0.45296  1.0000
  C   C85       1.0  0.83193  0.10172  0.54754  1.0000
  C   C86       1.0  0.12989  0.05689  0.46003999999999995  1.0000
  C   C87       1.0  0.33191  0.60173  0.54755  1.0000
  C   C88       1.0  0.62989  0.55689  0.46003999999999995  1.0000
  C   C89       1.0  0.7421500000000002  0.9678500000000001  0.14806999999999998  1.0000
  C   C90       1.0  0.25958  0.97467  0.8542999999999998  1.0000
  C   C91       1.0  0.24215000000000003  0.46784  0.14806999999999998  1.0000
  C   C92       1.0  0.7595800000000003  0.47467  0.85431  1.0000
  C   C93       1.0  0.83206  0.10880000000000002  0.46691  1.0000
  C   C94       1.0  0.13344000000000003  0.048160000000000015  0.54084  1.0000
  C   C95       1.0  0.33204  0.60882  0.46692  1.0000
  C   C96       1.0  0.63344  0.5481600000000001  0.54084  1.0000
  C   C97       1.0  0.7536900000000001  0.9285000000000001  0.4262199999999999  1.0000
  C   C98       1.0  0.25839000000000006  0.95696  0.56679  1.0000
  C   C99       1.0  0.2536900000000001  0.4285100000000001  0.4262199999999999  1.0000
  C   C100      1.0  0.75839  0.45696000000000003  0.56679  1.0000
  C   C101      1.0  0.73038  0.38266  0.35086  1.0000
  C   C102      1.0  0.27016  0.37911  0.6480399999999998  1.0000
  C   C103      1.0  0.23038  0.8826600000000001  0.35086  1.0000
  C   C104      1.0  0.77016  0.8791100000000002  0.6480399999999998  1.0000
  C   C105      1.0  0.5285800000000002  0.15632000000000001  0.35167  1.0000
  C   C106      1.0  0.4344  0.15196  0.63972  1.0000
  C   C107      1.0  0.02857  0.6563200000000002  0.35167  1.0000
  C   C108      1.0  0.93441  0.65197  0.63972  1.0000
  C   C109      1.0  0.74154  0.97281  0.35468  1.0000
  C   C110      1.0  0.2606  0.9775300000000001  0.64311  1.0000
  C   C111      1.0  0.24154000000000003  0.4728000000000001  0.35468  1.0000
  C   C112      1.0  0.7606  0.47753000000000007  0.64311  1.0000
  C   C113      1.0  0.49087  0.15944  0.9280799999999999  1.0000
  C   C114      1.0  0.49806000000000006  0.16963  0.07738  1.0000
  C   C115      1.0  0.99087  0.6594300000000001  0.9280799999999999  1.0000
  C   C116      1.0  0.9980600000000001  0.66963  0.07738  1.0000
  C   C117      1.0  0.5102900000000001  0.26932  0.96141  1.0000
  C   C118      1.0  0.50617  0.27753  0.03678  1.0000
  C   C119      1.0  0.010300000000000002  0.7693100000000002  0.96141  1.0000
  C   C120      1.0  0.00617  0.7775300000000002  0.03676999999999999  1.0000
  C   C121      1.0  0.47686000000000006  0.06367  0.04359999999999999  1.0000
  C   C122      1.0  0.47399  0.05803000000000001  0.97035  1.0000
  C   C123      1.0  0.9768600000000001  0.56367  0.04359999999999999  1.0000
  C   C124      1.0  0.9739900000000001  0.55803  0.97035  1.0000
  Cr  Cr1       1.0  0.77201  0.16967000000000004  0.25009  1.0000
  Cr  Cr2       1.0  0.22799000000000005  0.16967000000000004  0.7499099999999999  1.0000
  Cr  Cr3       1.0  0.27201  0.6696700000000001  0.25009  1.0000
  Cr  Cr4       1.0  0.7279900000000001  0.6696700000000001  0.7499099999999999  1.0000
  Cr  Cr5       1.0  0.615  0.32326000000000005  0.24926  1.0000
  Cr  Cr6       1.0  0.385  0.32326000000000005  0.75074  1.0000
  Cr  Cr7       1.0  0.115  0.82326  0.24926  1.0000
  Cr  Cr8       1.0  0.8850000000000001  0.82326  0.75074  1.0000
  Cr  Cr9       1.0  0.6167100000000001  0.01076  0.25084  1.0000
  Cr  Cr10      1.0  0.3832900000000001  0.01076  0.74916  1.0000
  Cr  Cr11      1.0  0.11671  0.51076  0.25084  1.0000
  Cr  Cr12      1.0  0.8832900000000001  0.51076  0.74916  1.0000
  H   H1        1.0  0.46523000000000003  0.9828800000000002  0.07406  1.0000
  H   H2        1.0  0.45631000000000005  0.9734  0.94714  1.0000
  H   H3        1.0  0.9652300000000001  0.4828800000000001  0.07406  1.0000
  H   H4        1.0  0.95631  0.4734  0.94714  1.0000
  H   H5        1.0  0.44335  0.3405100000000001  0.41734  1.0000
  H   H6        1.0  0.41757000000000005  0.34171  0.54657  1.0000
  H   H7        1.0  0.94336  0.8405000000000001  0.41734  1.0000
  H   H8        1.0  0.9175800000000001  0.8417100000000001  0.54657  1.0000
  H   H9        1.0  0.98638  0.36318000000000006  0.5597099999999999  1.0000
  H   H10       1.0  0.08657  0.48914  0.45783  1.0000
  H   H11       1.0  0.48638  0.8631800000000002  0.5597099999999999  1.0000
  H   H12       1.0  0.58657  0.98914  0.45783  1.0000
  H   H13       1.0  0.5543800000000001  0.98086  0.57985  1.0000
  H   H14       1.0  0.52119  0.86602  0.43712  1.0000
  H   H15       1.0  0.05438  0.4808700000000001  0.57985  1.0000
  H   H16       1.0  0.02119  0.36602000000000007  0.43712  1.0000
  H   H17       1.0  0.6580300000000001  0.8287  0.43329  1.0000
  H   H18       1.0  0.35907000000000006  0.86682  0.55533  1.0000
  H   H19       1.0  0.15804  0.3287  0.43329  1.0000
  H   H20       1.0  0.85907  0.3668200000000001  0.55533  1.0000
  H   H21       1.0  0.6584800000000002  0.8167500000000001  0.5647299999999998  1.0000
  H   H22       1.0  0.35334  0.8511199999999999  0.42436  1.0000
  H   H23       1.0  0.15848000000000004  0.31674  0.5647299999999998  1.0000
  H   H24       1.0  0.8533400000000001  0.35111000000000003  0.42436  1.0000
  H   H25       1.0  0.7910600000000001  0.15947000000000003  0.57365  1.0000
  H   H26       1.0  0.12138000000000002  0.15033000000000002  0.44160999999999995  1.0000
  H   H27       1.0  0.29103  0.65947  0.57365  1.0000
  H   H28       1.0  0.6213800000000003  0.6503300000000001  0.4416  1.0000
  H   H29       1.0  0.79013  0.16915000000000005  0.44680999999999993  1.0000
  H   H30       1.0  0.12373  0.13442  0.56921  1.0000
  H   H31       1.0  0.29011  0.66916  0.44680999999999993  1.0000
  H   H32       1.0  0.62373  0.6344300000000002  0.56921  1.0000
  H   H33       1.0  0.8844400000000001  0.12066000000000003  0.44129  1.0000
  H   H34       1.0  0.10527000000000002  0.9696400000000002  0.56469  1.0000
  H   H35       1.0  0.38442  0.6206900000000001  0.44129999999999997  1.0000
  H   H36       1.0  0.6052700000000001  0.46965  0.56469  1.0000
  H   H37       1.0  0.54103  0.36824  0.8653499999999998  1.0000
  H   H38       1.0  0.4935  0.40757000000000004  0.12423999999999999  1.0000
  H   H39       1.0  0.04104  0.86823  0.8653499999999998  1.0000
  H   H40       1.0  0.9935  0.90757  0.12423999999999999  1.0000
  H   H41       1.0  0.04279000000000001  0.06697  0.92367  1.0000
  H   H42       1.0  0.01141  0.08502  0.05196  1.0000
  H   H43       1.0  0.54278  0.56697  0.92367  1.0000
  H   H44       1.0  0.5114  0.5850200000000001  0.05196  1.0000
  H   H45       1.0  0.8687300000000001  0.9413  0.08268  1.0000
  H   H46       1.0  0.17964  0.09316000000000002  0.9506999999999999  1.0000
  H   H47       1.0  0.36873  0.44127  0.08268  1.0000
  H   H48       1.0  0.67961  0.59313  0.95069  1.0000
  H   H49       1.0  0.88713  0.88997  0.9568299999999998  1.0000
  H   H50       1.0  0.18178000000000005  0.07273000000000002  0.07892  1.0000
  H   H51       1.0  0.38713000000000003  0.38998000000000005  0.9568299999999998  1.0000
  H   H52       1.0  0.68175  0.57271  0.07892  1.0000
  H   H53       1.0  0.11085  0.28397  0.9302799999999999  1.0000
  H   H54       1.0  0.76425  0.16882  0.04915999999999999  1.0000
  H   H55       1.0  0.6108600000000001  0.7839600000000001  0.9302699999999999  1.0000
  H   H56       1.0  0.26416  0.66882  0.04918  1.0000
  H   H57       1.0  0.64298  0.9423400000000002  0.91609  1.0000
  H   H58       1.0  0.36166000000000004  0.68916  0.05009  1.0000
  H   H59       1.0  0.14296  0.44235000000000013  0.9161  1.0000
  H   H60       1.0  0.86176  0.18925000000000003  0.05011  1.0000
  H   H61       1.0  0.62255  0.9892800000000003  0.03979  1.0000
  H   H62       1.0  0.36309  0.71411  0.92324  1.0000
  H   H63       1.0  0.12254000000000001  0.48928  0.03980999999999999  1.0000
  H   H64       1.0  0.8632300000000002  0.21428  0.9232699999999999  1.0000
  O   O1        1.0  0.78752  0.04281  0.17044  1.0000
  O   O2        1.0  0.21248  0.04281  0.82956  1.0000
  O   O3        1.0  0.28752  0.54281  0.17044  1.0000
  O   O4        1.0  0.71248  0.5428099999999999  0.82956  1.0000
  O   O5        1.0  0.55661  0.25288  0.32398  1.0000
  O   O6        1.0  0.44339000000000006  0.25288  0.67602  1.0000
  O   O7        1.0  0.05661000000000001  0.75288  0.32398  1.0000
  O   O8        1.0  0.94339  0.75288  0.67602  1.0000
  O   O9        1.0  0.54595  0.051210000000000006  0.3308599999999999  1.0000
  O   O10       1.0  0.45405  0.051210000000000006  0.66914  1.0000
  O   O11       1.0  0.04595  0.55121  0.3308599999999999  1.0000
  O   O12       1.0  0.9540500000000002  0.55121  0.66914  1.0000
  O   O13       1.0  0.68139  0.9594800000000001  0.32551  1.0000
  O   O14       1.0  0.31861  0.9594800000000001  0.6744899999999999  1.0000
  O   O15       1.0  0.18139  0.45948  0.32551  1.0000
  O   O16       1.0  0.8186100000000002  0.45948  0.6744899999999999  1.0000
  O   O17       1.0  0.6679  0.1679  0.25006  1.0000
  O   O18       1.0  0.33210000000000006  0.1679  0.74994  1.0000
  O   O19       1.0  0.16790000000000005  0.6679  0.25006  1.0000
  O   O20       1.0  0.8321  0.6679  0.74994  1.0000
  O   O21       1.0  0.76564  0.2921  0.17502  1.0000
  O   O22       1.0  0.23436  0.2921  0.82498  1.0000
  O   O23       1.0  0.26564  0.7921000000000002  0.17502  1.0000
  O   O24       1.0  0.73436  0.7921000000000002  0.82498  1.0000
  O   O25       1.0  0.6701900000000002  0.4088400000000001  0.16853999999999997  1.0000
  O   O26       1.0  0.32981000000000005  0.4088400000000001  0.8314599999999999  1.0000
  O   O27       1.0  0.17019  0.90884  0.16853999999999997  1.0000
  O   O28       1.0  0.82981  0.90884  0.8314599999999999  1.0000
  O   O29       1.0  0.55662  0.25141  0.17516  1.0000
  O   O30       1.0  0.44338000000000005  0.25141  0.82484  1.0000
  O   O31       1.0  0.05662  0.75141  0.17516  1.0000
  O   O32       1.0  0.9433800000000002  0.75141  0.82484  1.0000
  O   O33       1.0  0.54596  0.04962000000000001  0.17031999999999997  1.0000
  O   O34       1.0  0.45404000000000005  0.04962000000000001  0.82968  1.0000
  O   O35       1.0  0.04596  0.54962  0.17031999999999997  1.0000
  O   O36       1.0  0.9540400000000001  0.54962  0.82968  1.0000
  O   O37       1.0  0.68139  0.95801  0.17669  1.0000
  O   O38       1.0  0.31861  0.95801  0.82331  1.0000
  O   O39       1.0  0.18139  0.45801  0.17669  1.0000
  O   O40       1.0  0.8186100000000002  0.45801  0.82331  1.0000
  O   O41       1.0  0.7875100000000002  0.04439  0.3309699999999999  1.0000
  O   O42       1.0  0.21249000000000004  0.04439  0.66903  1.0000
  O   O43       1.0  0.28751  0.54439  0.3309699999999999  1.0000
  O   O44       1.0  0.71249  0.54439  0.66903  1.0000
  O   O45       1.0  0.7656300000000001  0.29357  0.32384  1.0000
  O   O46       1.0  0.23437000000000005  0.29357  0.67616  1.0000
  O   O47       1.0  0.26563  0.79357  0.32384  1.0000
  O   O48       1.0  0.73437  0.79357  0.67616  1.0000
  O   O49       1.0  0.6701900000000002  0.41042000000000006  0.32908  1.0000
  O   O50       1.0  0.32981000000000005  0.41042000000000006  0.67092  1.0000
  O   O51       1.0  0.17019  0.9104200000000001  0.32908  1.0000
  O   O52       1.0  0.82981  0.9104200000000001  0.67092  1.0000
  C   C125      1.0  0.90324  0.11346000000000002  0.58116  1.0000
  O   O53       1.0  0.9548300000000001  0.06474  0.55416  1.0000
  O   O54       1.0  0.9098600000000001  0.18158  0.64377  1.0000
  H   H65       1.0  0.9599400000000001  0.18408000000000002  0.66149  1.0000
  C   C126      1.0  0.07778  0.97415  0.42862  1.0000
  O   O55       1.0  0.07845000000000003  0.86716  0.44477  1.0000
  O   O56       1.0  0.03138  0.020460000000000002  0.37799  1.0000
  H   H66       1.0  0.005430000000000002  0.95644  0.35015999999999997  1.0000
  C   C127      1.0  0.4032200000000001  0.61351  0.58116  1.0000
  O   O57       1.0  0.45481  0.56466  0.55418  1.0000
  O   O58       1.0  0.40984  0.68179  0.6437499999999999  1.0000
  H   H67       1.0  0.45992  0.6842900000000001  0.66148  1.0000
  C   C128      1.0  0.57778  0.47415000000000007  0.42862  1.0000
  O   O59       1.0  0.57845  0.36716000000000004  0.44477  1.0000
  O   O60       1.0  0.53138  0.52046  0.37799  1.0000
  H   H68       1.0  0.5054300000000002  0.45643  0.35015999999999997  1.0000
  C   C129      1.0  0.5775200000000003  0.80795  0.06581  1.0000
  H   H69       1.0  0.56942  0.8357900000000003  0.12215999999999999  1.0000
  H   H70       1.0  0.52674  0.8111300000000001  0.03742  1.0000
  H   H71       1.0  0.5969100000000002  0.71344  0.06545  1.0000
  C   C130      1.0  0.24906000000000003  0.67692  0.91042  1.0000
  H   H72       1.0  0.25383000000000006  0.57724  0.91347  1.0000
  H   H73       1.0  0.19829  0.70448  0.93545  1.0000
  H   H74       1.0  0.24902  0.7034  0.8533199999999997  1.0000
  C   C131      1.0  0.07752000000000002  0.30794  0.06582  1.0000
  H   H75       1.0  0.06942  0.3357700000000001  0.12217  1.0000
  H   H76       1.0  0.026740000000000003  0.31111000000000005  0.03744  1.0000
  H   H77       1.0  0.09692  0.21343  0.06545  1.0000
  C   C132      1.0  0.74921  0.17690000000000003  0.9104  1.0000
  H   H78       1.0  0.7540100000000001  0.07723  0.91346  1.0000
  H   H79       1.0  0.69842  0.20442000000000005  0.93539  1.0000
  H   H80       1.0  0.7492000000000001  0.20337000000000002  0.8533  1.0000
