data_image0
_chemical_formula_structural       C56Cr6H23O26CN2HCH3CN2HCH3CN
_chemical_formula_sum              "C61 Cr6 H31 O26 N5"
_cell_length_a       10.95468
_cell_length_b       10.951139999999999
_cell_length_c       18.82529
_cell_angle_alpha    90.54742
_cell_angle_beta     89.72328
_cell_angle_gamma    119.91186

_space_group_name_H-M_alt    "P 1"
_space_group_IT_number       1

loop_
  _space_group_symop_operation_xyz
  'x, y, z'

loop_
  _atom_site_type_symbol
  _atom_site_label
  _atom_site_symmetry_multiplicity
  _atom_site_fract_x
  _atom_site_fract_y
  _atom_site_fract_z
  _atom_site_occupancy
  C   C1        1.0  0.86395  0.63851  0.60333  1.0000
  C   C2        1.0  0.40614  0.61049  0.7787299999999999  1.0000
  C   C3        1.0  0.38423999999999997  0.60315  0.7068699999999999  1.0000
  C   C4        1.0  0.31695  0.67019  0.67729  1.0000
  C   C5        1.0  0.84413  0.16811  0.82315  1.0000
  C   C6        1.0  0.09119000000000001  0.23014999999999997  0.82692  1.0000
  C   C7        1.0  0.21310999999999997  0.25331999999999993  0.7924299999999997  1.0000
  C   C8        1.0  0.21214  0.23205999999999996  0.71942  1.0000
  C   C9        1.0  0.09059999999999999  0.19378  0.68002  1.0000
  C   C10       1.0  0.9683699999999998  0.18112999999999999  0.7128099999999999  1.0000
  C   C11       1.0  0.96723  0.19101  0.78824  1.0000
  C   C12       1.0  0.26582  0.63075  0.60511  1.0000
  C   C13       1.0  0.7217100000000001  0.12047  0.70986  1.0000
  C   C14       1.0  0.73263  0.16035  0.78159  1.0000
  C   C15       1.0  0.59109  0.07095  0.67423  1.0000
  C   C16       1.0  0.4977800000000001  0.11187  0.70114  1.0000
  C   C17       1.0  0.51894  0.17368  0.76801  1.0000
  C   C18       1.0  0.63321  0.19483  0.80884  1.0000
  C   C19       1.0  0.8469400000000001  0.15709  0.67313  1.0000
  C   C20       1.0  0.8617199999999999  0.79716  0.69749  1.0000
  C   C21       1.0  0.8474099999999999  0.8182699999999998  0.76922  1.0000
  C   C22       1.0  0.77833  0.70336  0.81461  1.0000
  C   C23       1.0  0.86284  0.22524  0.60276  1.0000
  C   C24       1.0  0.71542  0.566  0.7869099999999999  1.0000
  C   C25       1.0  0.7328899999999999  0.5446199999999999  0.71552  1.0000
  C   C26       1.0  0.8124299999999999  0.66047  0.6712999999999999  1.0000
  C   C27       1.0  0.28714  0.54519  0.27825  1.0000
  C   C28       1.0  0.29018999999999995  0.5536299999999998  0.20565999999999998  1.0000
  C   C29       1.0  0.32389  0.68066  0.17241  1.0000
  C   C30       1.0  0.32408  0.7899  0.21281999999999998  1.0000
  C   C31       1.0  0.31396  0.77832  0.28682  1.0000
  C   C32       1.0  0.30136  0.65786  0.31985  1.0000
  C   C33       1.0  0.71321  0.11082999999999998  0.29377999999999993  1.0000
  C   C34       1.0  0.8643  0.63783  0.39762999999999993  1.0000
  C   C35       1.0  0.70432  0.09788999999999999  0.22115  1.0000
  C   C36       1.0  0.8239  0.13035  0.18014999999999998  1.0000
  C   C37       1.0  0.95193  0.16835  0.21343  1.0000
  C   C38       1.0  0.96195  0.18518  0.2869099999999999  1.0000
  C   C39       1.0  0.84367  0.16335  0.3267  1.0000
  C   C40       1.0  0.89349  0.78272  0.29504  1.0000
  C   C41       1.0  0.88761  0.79351  0.22282  1.0000
  C   C42       1.0  0.80627  0.67352  0.18056999999999998  1.0000
  C   C43       1.0  0.72207  0.54151  0.21199  1.0000
  C   C44       1.0  0.7229299999999999  0.5314699999999999  0.28622999999999993  1.0000
  C   C45       1.0  0.26642  0.6311  0.3948099999999999  1.0000
  C   C46       1.0  0.8177799999999998  0.6517299999999998  0.32721  1.0000
  C   C47       1.0  0.80867  0.1069  0.89575  1.0000
  C   C48       1.0  0.40012  0.70173  0.89575  1.0000
  C   C49       1.0  0.77316  0.7299699999999998  0.8903099999999999  1.0000
  C   C50       1.0  0.80294  0.09954  0.10473  1.0000
  C   C51       1.0  0.39078  0.70313  0.10248  1.0000
  C   C52       1.0  0.79614  0.69723  0.10574999999999998  1.0000
  C   C53       1.0  0.8617199999999998  0.22637999999999997  0.39669  1.0000
  C   C54       1.0  0.27981999999999996  0.75345  0.7211399999999998  1.0000
  C   C55       1.0  0.3056  0.76243  0.79337  1.0000
  C   C56       1.0  0.36391  0.68744  0.8221399999999998  1.0000
  Cr  Cr1       1.0  0.79166  0.39025  0.49993  1.0000
  Cr  Cr2       1.0  0.0985199999999999  0.7082899999999998  0.50054  1.0000
  Cr  Cr3       1.0  0.10976999999999994  0.4014299999999999  0.49948  1.0000
  Cr  Cr4       1.0  0.87479  0.92589  7e-05  1.0000
  Cr  Cr5       1.0  0.57412  0.94867  0.9993  1.0000
  Cr  Cr6       1.0  0.55142  0.62532  0.00092  1.0000
  H   H1        1.0  0.41097  0.09945999999999999  0.66918  1.0000
  H   H2        1.0  0.44649000000000005  0.20444  0.7885899999999999  1.0000
  H   H3        1.0  0.9191799999999999  0.8875299999999999  0.66353  1.0000
  H   H4        1.0  0.8938299999999998  0.9240099999999999  0.7900499999999999  1.0000
  H   H5        1.0  0.65867  0.47567  0.82093  1.0000
  H   H6        1.0  0.69264  0.43791  0.6962  1.0000
  H   H7        1.0  0.26933  0.4476  0.30145  1.0000
  H   H8        1.0  0.27621999999999997  0.46254999999999996  0.17586  1.0000
  H   H9        1.0  0.2787899999999999  0.8262  0.82743  1.0000
  H   H10       1.0  0.31320000000000003  0.86136  0.31833  1.0000
  H   H11       1.0  0.61967  0.08886999999999999  0.32356  1.0000
  H   H12       1.0  0.60276  0.06190999999999999  0.19712  1.0000
  H   H13       1.0  0.04365  0.18739  0.18278  1.0000
  H   H14       1.0  0.06329  0.22255  0.31193  1.0000
  H   H15       1.0  0.96328  0.8765599999999999  0.32532999999999995  1.0000
  H   H16       1.0  0.94846  0.89742  0.20003  1.0000
  H   H17       1.0  0.45735  0.55633  0.8002999999999998  1.0000
  H   H18       1.0  0.41576  0.54081  0.6748  1.0000
  H   H19       1.0  0.30827999999999994  0.28841999999999995  0.82292  1.0000
  H   H20       1.0  0.30628999999999995  0.24675  0.69296  1.0000
  H   H21       1.0  0.09637999999999998  0.24918999999999997  0.88364  1.0000
  H   H22       1.0  0.093  0.17054  0.6243199999999998  1.0000
  H   H23       1.0  0.6473  0.24569  0.8601099999999999  1.0000
  O   O1        1.0  0.7665  0.25004  0.57979  1.0000
  O   O2        1.0  0.21868999999999997  0.7019  0.42595999999999995  1.0000
  O   O3        1.0  0.24948999999999993  0.5164399999999999  0.4194199999999999  1.0000
  O   O4        1.0  0.9828799999999999  0.28191  0.42489  1.0000
  O   O5        1.0  0.99998  0.49999  0.4999799999999999  1.0000
  O   O6        1.0  0.89511  0.80686  0.92043  1.0000
  O   O7        1.0  0.8722600000000001  0.04697  0.9249999999999999  1.0000
  O   O8        1.0  0.69143  0.08506  0.91855  1.0000
  O   O9        1.0  0.4514899999999999  0.8224599999999999  0.92525  1.0000
  O   O10       1.0  0.41333  0.60336  0.92044  1.0000
  O   O11       1.0  0.6761099999999999  0.62625  0.92675  1.0000
  O   O12       1.0  0.7985700000000001  0.51678  0.5747799999999997  1.0000
  O   O13       1.0  0.89535  0.8098699999999999  0.08094999999999998  1.0000
  O   O14       1.0  0.87249  0.04975999999999999  0.0738  1.0000
  O   O15       1.0  0.69168  0.08806999999999998  0.07907  1.0000
  O   O16       1.0  0.4517199999999999  0.8252499999999998  0.07405  1.0000
  O   O17       1.0  0.41358  0.60637  0.08096  1.0000
  O   O18       1.0  0.67634  0.62904  0.07555  1.0000
  O   O19       1.0  0.66678  0.83329  9e-05  1.0000
  O   O20       1.0  0.984  0.73295  0.58109  1.0000
  O   O21       1.0  0.2186  0.70089  0.57476  1.0000
  O   O22       1.0  0.24938999999999995  0.5153499999999999  0.5799399999999999  1.0000
  O   O23       1.0  0.9827899999999999  0.2809  0.5737  1.0000
  O   O24       1.0  0.7665999999999998  0.25113  0.4192599999999999  1.0000
  O   O25       1.0  0.79866  0.51779  0.42598  1.0000
  O   O26       1.0  0.9840999999999999  0.7340399999999999  0.42057  1.0000
  C   C57       1.0  0.21564  0.83177  0.6960999999999998  1.0000
  N   N1        1.0  0.16713999999999996  0.8988499999999999  0.67797  1.0000
  N   N2        1.0  0.5589999999999999  0.9940899999999999  0.60839  1.0000
  H   H24       1.0  0.46081  0.96251  0.58736  1.0000
  C   C58       1.0  0.60908  0.89486  0.5979199999999999  1.0000
  H   H25       1.0  0.71429  0.9477099999999999  0.57248  1.0000
  H   H26       1.0  0.53755  0.80873  0.56144  1.0000
  H   H27       1.0  0.6150599999999999  0.8484199999999998  0.64909  1.0000
  C   C59       1.0  0.32642999999999983  0.9093999999999999  0.17979  1.0000
  N   N3        1.0  0.32759  0.00486  0.1533  1.0000
  N   N4        1.0  0.64823  0.41861  0.16845  1.0000
  H   H28       1.0  0.67117  0.3403599999999999  0.17998999999999998  1.0000
  C   C60       1.0  0.49863  0.36508999999999997  0.16111  1.0000
  H   H29       1.0  0.4408000000000001  0.30316999999999994  0.20838  1.0000
  H   H30       1.0  0.45934  0.29577  0.11346  1.0000
  H   H31       1.0  0.4770499999999999  0.45261999999999997  0.15442  1.0000
  C   C61       1.0  0.6248000000000001  0.39853  0.31875  1.0000
  N   N5        1.0  0.5452  0.29266  0.34459  1.0000
