data_image0
_chemical_formula_structural       C100Cr12H44O52CHOCHOCHOCHOCO2HCO2HCO2HCO2H
_chemical_formula_sum              "C108 Cr12 H52 O64"
_cell_length_a       18.82388
_cell_length_b       10.93452
_cell_length_c       18.81965
_cell_angle_alpha    89.93263
_cell_angle_beta     91.32816
_cell_angle_gamma    89.92459

_symmetry_space_group_name_H-M    'P 1'
_symmetry_Int_Tables_number       1

loop_
  _symmetry_equiv_pos_as_xyz
  'x,y,z'

loop_
  _atom_site_type_symbol
  _atom_site_label
  _atom_site_symmetry_multiplicity
  _atom_site_fract_x
  _atom_site_fract_y
  _atom_site_fract_z
  _atom_site_occupancy
  C   C1        1.0  0.2717  0.044829999999999995  0.85289  1.0000
  C   C2        1.0  0.72487  0.03796  0.14415  1.0000
  C   C3        1.0  0.7716600000000001  0.54393  0.85308  1.0000
  C   C4        1.0  0.22830000000000006  0.54502  0.14711999999999997  1.0000
  C   C5        1.0  0.5364800000000002  0.7364200000000001  0.97168  1.0000
  C   C6        1.0  0.47748000000000007  0.72069  0.026619999999999998  1.0000
  C   C7        1.0  0.03305999999999999  0.23143  0.9721799999999999  1.0000
  C   C8        1.0  0.9732500000000001  0.22609  0.02684  1.0000
  C   C9        1.0  0.30698  0.5449500000000002  0.9665499999999999  1.0000
  C   C10       1.0  0.70036  0.52851  0.03646  1.0000
  C   C11       1.0  0.8086300000000002  0.05287  0.96581  1.0000
  C   C12       1.0  0.19369000000000006  0.04378  0.03377  1.0000
  C   C13       1.0  0.30204  0.53137  0.03991  1.0000
  C   C14       1.0  0.7045700000000001  0.51372  0.96318  1.0000
  C   C15       1.0  0.8003  0.037140000000000006  0.038459999999999994  1.0000
  C   C16       1.0  0.19875  0.02936  0.9604999999999999  1.0000
  C   C17       1.0  0.24712000000000006  0.5896  0.07649999999999998  1.0000
  C   C18       1.0  0.7514900000000001  0.58607  0.9236399999999998  1.0000
  C   C19       1.0  0.73569  0.06783  0.06958  1.0000
  C   C20       1.0  0.2526400000000001  0.08936999999999999  0.9234  1.0000
  C   C21       1.0  0.19983  0.66886  0.038999999999999986  1.0000
  C   C22       1.0  0.79087  0.67975  0.95789  1.0000
  C   C23       1.0  0.6783400000000003  0.11364  0.02603  1.0000
  C   C24       1.0  0.29883000000000004  0.17092  0.96031  1.0000
  C   C25       1.0  0.20155  0.6717  0.96566  1.0000
  C   C26       1.0  0.7882  0.68982  0.03108  1.0000
  C   C27       1.0  0.68599  0.11722  0.95355  1.0000
  C   C28       1.0  0.29686  0.17540000000000003  0.03361  1.0000
  C   C29       1.0  0.25476  0.61058  0.9286899999999999  1.0000
  C   C30       1.0  0.74419  0.6137100000000001  0.07095  1.0000
  C   C31       1.0  0.75098  0.09155  0.92315  1.0000
  C   C32       1.0  0.24487  0.11215000000000001  0.07107  1.0000
  C   C33       1.0  0.5004700000000001  0.72352  0.53671  1.0000
  C   C34       1.0  0.50201  0.7233500000000002  0.46413999999999994  1.0000
  C   C35       1.0  0.000500000000000001  0.22352  0.53672  1.0000
  C   C36       1.0  0.002050000000000001  0.22335000000000002  0.46416  1.0000
  C   C37       1.0  0.5038  0.8330900000000001  0.42595  1.0000
  C   C38       1.0  0.4971500000000001  0.8333700000000002  0.5744699999999999  1.0000
  C   C39       1.0  0.0038199999999999996  0.33308000000000004  0.42595999999999995  1.0000
  C   C40       1.0  0.99716  0.33338  0.57448  1.0000
  C   C41       1.0  0.4995100000000001  0.9465100000000002  0.4624  1.0000
  C   C42       1.0  0.50061  0.9466900000000001  0.53769  1.0000
  C   C43       1.0  0.9995200000000001  0.4465  0.4624  1.0000
  C   C44       1.0  0.0006099999999999999  0.44670000000000004  0.53769  1.0000
  C   C45       1.0  0.47053  0.8215300000000001  0.85562  1.0000
  C   C46       1.0  0.5291900000000002  0.82175  0.14441  1.0000
  C   C47       1.0  0.97116  0.32179  0.8553499999999999  1.0000
  C   C48       1.0  0.029210000000000003  0.32187  0.14441  1.0000
  C   C49       1.0  0.20891  0.68821  0.5252299999999999  1.0000
  C   C50       1.0  0.79069  0.68875  0.47480999999999995  1.0000
  C   C51       1.0  0.7089  0.18816  0.5252399999999999  1.0000
  C   C52       1.0  0.2907  0.18873000000000004  0.47479999999999994  1.0000
  C   C53       1.0  0.20979000000000006  0.68157  0.45267  1.0000
  C   C54       1.0  0.78974  0.6821300000000001  0.54737  1.0000
  C   C55       1.0  0.7097800000000002  0.18153000000000002  0.4526799999999999  1.0000
  C   C56       1.0  0.28975  0.18211  0.54736  1.0000
  C   C57       1.0  0.25303  0.59509  0.4207599999999999  1.0000
  C   C58       1.0  0.74677  0.5954  0.5793099999999999  1.0000
  C   C59       1.0  0.75302  0.09507000000000002  0.42077  1.0000
  C   C60       1.0  0.24677000000000002  0.09539  0.5793099999999999  1.0000
  C   C61       1.0  0.3043800000000001  0.53047  0.46099999999999997  1.0000
  C   C62       1.0  0.6956  0.53066  0.53911  1.0000
  C   C63       1.0  0.8043700000000003  0.03045  0.46100999999999986  1.0000
  C   C64       1.0  0.1956  0.030660000000000007  0.5391  1.0000
  C   C65       1.0  0.3055600000000001  0.54072  0.5342799999999999  1.0000
  C   C66       1.0  0.69448  0.5409  0.46582999999999997  1.0000
  C   C67       1.0  0.80555  0.0407  0.53429  1.0000
  C   C68       1.0  0.19447999999999996  0.04089  0.46581999999999996  1.0000
  C   C69       1.0  0.25565  0.61596  0.56665  1.0000
  C   C70       1.0  0.74424  0.61626  0.4334299999999999  1.0000
  C   C71       1.0  0.75564  0.11593000000000002  0.56666  1.0000
  C   C72       1.0  0.24424000000000004  0.11624000000000001  0.4334299999999999  1.0000
  C   C73       1.0  0.26195  0.64083  0.85363  1.0000
  C   C74       1.0  0.7378900000000003  0.64157  0.14626  1.0000
  C   C75       1.0  0.7609600000000001  0.13613  0.85157  1.0000
  C   C76       1.0  0.23790000000000003  0.14155  0.14622  1.0000
  C   C77       1.0  0.26977  0.04875000000000001  0.64747  1.0000
  C   C78       1.0  0.7302  0.04868000000000001  0.35256  1.0000
  C   C79       1.0  0.76977  0.54876  0.64747  1.0000
  C   C80       1.0  0.2302  0.5486900000000001  0.35255  1.0000
  C   C81       1.0  0.47067  0.8241  0.64704  1.0000
  C   C82       1.0  0.52955  0.8240400000000002  0.35311  1.0000
  C   C83       1.0  0.97067  0.3241  0.64704  1.0000
  C   C84       1.0  0.02955  0.32404000000000005  0.35311  1.0000
  C   C85       1.0  0.26109  0.64186  0.6414499999999999  1.0000
  C   C86       1.0  0.7389000000000002  0.64196  0.3585799999999999  1.0000
  C   C87       1.0  0.76108  0.14185  0.6414599999999999  1.0000
  C   C88       1.0  0.2389  0.14195  0.3585799999999999  1.0000
  C   C89       1.0  0.4612  0.9204200000000001  0.028659999999999995  1.0000
  C   C90       1.0  0.5199900000000001  0.9360600000000001  0.97303  1.0000
  C   C91       1.0  0.9677100000000001  0.42764  0.027759999999999996  1.0000
  C   C92       1.0  0.02745  0.43301000000000006  0.9724299999999999  1.0000
  C   C93       1.0  0.42977  0.8124500000000001  0.9852799999999999  1.0000
  C   C94       1.0  0.56791  0.84441  0.01467  1.0000
  C   C95       1.0  0.9308300000000002  0.32419  0.98478  1.0000
  C   C96       1.0  0.06993  0.33486  0.014869999999999998  1.0000
  C   C97       1.0  0.48929  0.8279900000000001  0.9311799999999999  1.0000
  C   C98       1.0  0.50856  0.82852  0.06901  1.0000
  C   C99       1.0  0.9911300000000001  0.3292300000000001  0.9307999999999997  1.0000
  C   C100      1.0  0.00962  0.32922  0.06883  1.0000
  Cr  Cr1       1.0  0.22963  0.8359  0.74735  1.0000
  Cr  Cr2       1.0  0.7703700000000001  0.8359  0.25265  1.0000
  Cr  Cr3       1.0  0.72963  0.33590000000000003  0.74735  1.0000
  Cr  Cr4       1.0  0.27037  0.33590000000000003  0.25265  1.0000
  Cr  Cr5       1.0  0.38741  0.98985  0.75085  1.0000
  Cr  Cr6       1.0  0.6125900000000002  0.98985  0.24915  1.0000
  Cr  Cr7       1.0  0.88741  0.48985000000000006  0.75085  1.0000
  Cr  Cr8       1.0  0.11259000000000001  0.48985000000000006  0.24915  1.0000
  Cr  Cr9       1.0  0.3858000000000001  0.67712  0.7493399999999999  1.0000
  Cr  Cr10      1.0  0.6142  0.67712  0.25066  1.0000
  Cr  Cr11      1.0  0.8858  0.17712  0.7493399999999999  1.0000
  Cr  Cr12      1.0  0.1142  0.17712  0.25066  1.0000
  H   H1        1.0  0.37258  0.7996900000000001  0.97146  1.0000
  H   H2        1.0  0.6251600000000003  0.85708  0.02828  1.0000
  H   H3        1.0  0.8732  0.31986  0.9708399999999999  1.0000
  H   H4        1.0  0.12756  0.33932  0.02882  1.0000
  H   H5        1.0  0.1718  0.75129  0.5485599999999999  1.0000
  H   H6        1.0  0.82767  0.75193  0.45141999999999993  1.0000
  H   H7        1.0  0.6717800000000003  0.25124  0.54857  1.0000
  H   H8        1.0  0.3276900000000001  0.2519  0.45141999999999993  1.0000
  H   H9        1.0  0.17198  0.73601  0.42198  1.0000
  H   H10       1.0  0.8273500000000001  0.7367000000000001  0.57805  1.0000
  H   H11       1.0  0.6719600000000002  0.23598000000000005  0.4219899999999999  1.0000
  H   H12       1.0  0.32737  0.23668  0.57804  1.0000
  H   H13       1.0  0.34004000000000006  0.46625  0.43645999999999996  1.0000
  H   H14       1.0  0.66011  0.46623  0.5636699999999999  1.0000
  H   H15       1.0  0.84005  0.96625  0.43645999999999996  1.0000
  H   H16       1.0  0.1601  0.96625  0.5636699999999999  1.0000
  H   H17       1.0  0.34439000000000003  0.48918  0.56543  1.0000
  H   H18       1.0  0.65583  0.48919  0.43470999999999993  1.0000
  H   H19       1.0  0.8443900000000001  0.98917  0.56544  1.0000
  H   H20       1.0  0.15583000000000005  0.98919  0.43470999999999993  1.0000
  H   H21       1.0  0.43011  0.99492  0.05325  1.0000
  H   H22       1.0  0.53644  0.02293  0.94795  1.0000
  H   H23       1.0  0.9403500000000001  0.50699  0.05177999999999999  1.0000
  H   H24       1.0  0.05033000000000001  0.5168600000000001  0.9488099999999999  1.0000
  H   H25       1.0  0.5676600000000002  0.66205  0.9470999999999999  1.0000
  H   H26       1.0  0.45924000000000004  0.63287  0.04952  1.0000
  H   H27       1.0  0.06005000000000001  0.15186  0.9481099999999999  1.0000
  H   H28       1.0  0.95074  0.14193  0.05034  1.0000
  H   H29       1.0  0.3513  0.50481  0.93946  1.0000
  H   H30       1.0  0.66421  0.47221  0.06617999999999999  1.0000
  H   H31       1.0  0.86047  0.03879  0.94346  1.0000
  H   H32       1.0  0.15027  0.00173  0.06127  1.0000
  H   H33       1.0  0.33984000000000003  0.47255  0.06761  1.0000
  H   H34       1.0  0.67378  0.44134000000000007  0.9381499999999999  1.0000
  H   H35       1.0  0.8446100000000002  0.0031  0.07048999999999997  1.0000
  H   H36       1.0  0.16189000000000003  0.9684300000000001  0.9333099999999999  1.0000
  H   H37       1.0  0.16323000000000001  0.72934  0.93774  1.0000
  H   H38       1.0  0.8191  0.76154  0.056679999999999994  1.0000
  H   H39       1.0  0.64132  0.14822  0.92074  1.0000
  H   H40       1.0  0.33415  0.23526000000000002  0.061099999999999995  1.0000
  H   H41       1.0  0.49866000000000005  0.63535  0.5629599999999999  1.0000
  H   H42       1.0  0.50486  0.63507  0.4382499999999999  1.0000
  H   H43       1.0  0.9987000000000001  0.13535  0.56297  1.0000
  H   H44       1.0  0.00492  0.13507  0.43826  1.0000
  O   O1        1.0  0.21427000000000004  0.709  0.82747  1.0000
  O   O2        1.0  0.7857300000000002  0.709  0.17253  1.0000
  O   O3        1.0  0.71427  0.209  0.82747  1.0000
  O   O4        1.0  0.28573  0.209  0.17253  1.0000
  O   O5        1.0  0.4459500000000001  0.91944  0.6765199999999998  1.0000
  O   O6        1.0  0.5540500000000002  0.91944  0.32348  1.0000
  O   O7        1.0  0.9459500000000001  0.41944  0.6765199999999998  1.0000
  O   O8        1.0  0.05405000000000001  0.41944  0.32348  1.0000
  O   O9        1.0  0.45673  0.71763  0.66984  1.0000
  O   O10       1.0  0.54327  0.71763  0.33015999999999995  1.0000
  O   O11       1.0  0.9567300000000001  0.21763  0.66984  1.0000
  O   O12       1.0  0.043269999999999996  0.21763  0.33015999999999995  1.0000
  O   O13       1.0  0.32062  0.62564  0.67292  1.0000
  O   O14       1.0  0.6793800000000002  0.62564  0.32708  1.0000
  O   O15       1.0  0.82062  0.12564  0.67292  1.0000
  O   O16       1.0  0.17938  0.12564  0.32708  1.0000
  O   O17       1.0  0.33428000000000013  0.8342900000000001  0.74918  1.0000
  O   O18       1.0  0.66572  0.8342900000000001  0.25082  1.0000
  O   O19       1.0  0.8342800000000001  0.33429  0.74918  1.0000
  O   O20       1.0  0.16572  0.33429  0.25082  1.0000
  O   O21       1.0  0.23616000000000004  0.95849  0.82313  1.0000
  O   O22       1.0  0.7638400000000001  0.95849  0.17686999999999997  1.0000
  O   O23       1.0  0.73616  0.45849000000000006  0.82313  1.0000
  O   O24       1.0  0.26384  0.45849000000000006  0.17686999999999997  1.0000
  O   O25       1.0  0.33208  0.07547000000000001  0.83128  1.0000
  O   O26       1.0  0.66792  0.07547000000000001  0.16872  1.0000
  O   O27       1.0  0.8320800000000003  0.57547  0.83128  1.0000
  O   O28       1.0  0.16792  0.57547  0.16872  1.0000
  O   O29       1.0  0.4463  0.9181100000000002  0.82662  1.0000
  O   O30       1.0  0.5537  0.9181100000000002  0.17337999999999995  1.0000
  O   O31       1.0  0.9463000000000001  0.41811000000000004  0.82662  1.0000
  O   O32       1.0  0.053700000000000005  0.41811000000000004  0.17337999999999995  1.0000
  O   O33       1.0  0.45711  0.7162000000000001  0.8317599999999998  1.0000
  O   O34       1.0  0.5428900000000001  0.7162000000000001  0.16824  1.0000
  O   O35       1.0  0.9571100000000001  0.2162  0.8317599999999998  1.0000
  O   O36       1.0  0.04289  0.2162  0.16824  1.0000
  O   O37       1.0  0.32098  0.62431  0.82303  1.0000
  O   O38       1.0  0.67902  0.62431  0.17697  1.0000
  O   O39       1.0  0.8209800000000002  0.12431  0.82303  1.0000
  O   O40       1.0  0.17902  0.12431  0.17697  1.0000
  O   O41       1.0  0.21389000000000002  0.71043  0.6655399999999998  1.0000
  O   O42       1.0  0.78611  0.71043  0.33446  1.0000
  O   O43       1.0  0.7138900000000002  0.21043  0.6655399999999998  1.0000
  O   O44       1.0  0.28611000000000003  0.21043  0.33446  1.0000
  O   O45       1.0  0.23580999999999994  0.9598200000000001  0.67302  1.0000
  O   O46       1.0  0.7641900000000003  0.9598200000000001  0.32698  1.0000
  O   O47       1.0  0.73581  0.45982  0.67302  1.0000
  O   O48       1.0  0.26419  0.45982  0.32698  1.0000
  O   O49       1.0  0.3317  0.0769  0.6693499999999998  1.0000
  O   O50       1.0  0.6683  0.0769  0.33065  1.0000
  O   O51       1.0  0.8317000000000001  0.5769  0.6693499999999998  1.0000
  O   O52       1.0  0.1683  0.5769  0.33065  1.0000
  C   C101      1.0  0.14842000000000005  0.7507400000000001  0.07443  1.0000
  H   H45       1.0  0.16025000000000003  0.78592  0.12729  1.0000
  O   O53       1.0  0.09253  0.7802  0.04483  1.0000
  C   C102      1.0  0.83602  0.76718  0.9189899999999999  1.0000
  H   H46       1.0  0.8212000000000003  0.7954500000000002  0.8653499999999998  1.0000
  O   O54       1.0  0.8908800000000001  0.80673  0.94614  1.0000
  C   C103      1.0  0.60881  0.1587  0.05158999999999999  1.0000
  H   H47       1.0  0.5764500000000001  0.10375  0.08605  1.0000
  O   O55       1.0  0.58526  0.25701  0.03103  1.0000
  C   C104      1.0  0.3495900000000001  0.25305  0.92429  1.0000
  H   H48       1.0  0.33728  0.28776000000000007  0.8713599999999999  1.0000
  O   O56       1.0  0.40564  0.28274  0.9533799999999999  1.0000
  C   C105      1.0  0.49291000000000007  0.06321  0.42217  1.0000
  O   O57       1.0  0.44753000000000004  0.07333  0.37495  1.0000
  O   O58       1.0  0.5385700000000001  0.1607  0.43771999999999994  1.0000
  H   H49       1.0  0.52857  0.23478  0.4066099999999999  1.0000
  C   C106      1.0  0.50643  0.06368  0.5775699999999999  1.0000
  O   O59       1.0  0.55152  0.07446  0.6249899999999999  1.0000
  O   O60       1.0  0.4604  0.16067000000000004  0.5614699999999998  1.0000
  H   H50       1.0  0.46992  0.23501000000000005  0.59237  1.0000
  C   C107      1.0  0.9929200000000001  0.56321  0.4221799999999999  1.0000
  O   O61       1.0  0.94753  0.57333  0.37495999999999996  1.0000
  O   O62       1.0  0.03859  0.6606800000000002  0.43771999999999994  1.0000
  H   H51       1.0  0.02859  0.7347600000000002  0.4066099999999999  1.0000
  C   C108      1.0  0.006419999999999998  0.56368  0.5775699999999999  1.0000
  O   O63       1.0  0.05151  0.57449  0.6249899999999999  1.0000
  O   O64       1.0  0.96039  0.66067  0.56146  1.0000
  H   H52       1.0  0.96989  0.7350200000000001  0.5923599999999999  1.0000
