data_image0
_chemical_formula_structural       C42Cr6H17O26NHCH3
_chemical_formula_sum              "C43 Cr6 H21 O26 N1"
_cell_length_a       10.65759
_cell_length_b       10.57719
_cell_length_c       16.92418
_cell_angle_alpha    98.54541999999998
_cell_angle_beta     98.69958
_cell_angle_gamma    61.83123

_symmetry_space_group_name_H-M    'P 1'
_symmetry_Int_Tables_number       1

loop_
  _symmetry_equiv_pos_as_xyz
  'x,y,z'

loop_
  _atom_site_type_symbol
  _atom_site_label
  _atom_site_symmetry_multiplicity
  _atom_site_fract_x
  _atom_site_fract_y
  _atom_site_fract_z
  _atom_site_occupancy
  C   C1        1.0  0.35467999999999994  0.77684  0.39981  1.0000
  C   C2        1.0  0.7596299999999999  0.28633  0.24771  1.0000
  C   C3        1.0  0.8192499999999999  0.35085  0.32156  1.0000
  C   C4        1.0  0.9721  0.25587  0.30216  1.0000
  C   C5        1.0  0.95961  0.37459  0.25377  1.0000
  C   C6        1.0  0.8047699999999999  0.47112  0.27431  1.0000
  C   C7        1.0  0.7476299999999999  0.4049  0.19923  1.0000
  C   C8        1.0  0.9023099999999998  0.30806  0.17992000000000005  1.0000
  C   C9        1.0  0.44961  0.79865  0.21822  1.0000
  C   C10       1.0  0.37938999999999995  0.71823  0.24863000000000002  1.0000
  C   C11       1.0  0.34354  0.82599  0.3234  1.0000
  C   C12       1.0  0.37102000000000007  0.34696  0.35867  1.0000
  C   C13       1.0  0.41617  0.9041700000000001  0.29518  1.0000
  C   C14       1.0  0.26976  0.00475  0.25378  1.0000
  C   C15       1.0  0.19906999999999989  0.9242000000000001  0.28352  1.0000
  C   C16       1.0  0.23296  0.81795  0.20799  1.0000
  C   C17       1.0  0.30250999999999995  0.8986400000000001  0.17874  1.0000
  C   C18       1.0  0.4814900000000001  0.29547  0.7978300000000003  1.0000
  C   C19       1.0  0.41639  0.43955000000000005  0.7585500000000002  1.0000
  C   C20       1.0  0.3791399999999999  0.3645  0.68024  1.0000
  C   C21       1.0  0.44144999999999995  0.22411000000000006  0.7197100000000002  1.0000
  C   C22       1.0  0.29439  0.2645  0.7442  1.0000
  C   C23       1.0  0.77287  0.37944  0.4005  1.0000
  C   C24       1.0  0.23033999999999993  0.40836  0.7056100000000002  1.0000
  C   C25       1.0  0.26704  0.48254  0.78539  1.0000
  C   C26       1.0  0.33271  0.33848  0.82259  1.0000
  C   C27       1.0  0.7688099999999999  0.36723  0.71552  1.0000
  C   C28       1.0  0.81341  0.32984  0.78223  1.0000
  C   C29       1.0  0.3381499999999999  0.8125  0.70972  1.0000
  C   C30       1.0  0.31288  0.83954  0.77841  1.0000
  C   C31       1.0  0.9542799999999999  0.28653  0.10278  1.0000
  C   C32       1.0  0.31948000000000004  0.30005  0.12006000000000001  1.0000
  C   C33       1.0  0.26267  0.95002  0.09962  1.0000
  C   C34       1.0  0.35664000000000007  0.77183  0.62718  1.0000
  C   C35       1.0  0.87857  0.30238  0.86216  1.0000
  C   C36       1.0  0.31093999999999994  0.298  0.89518  1.0000
  C   C37       1.0  0.27986  0.8847  0.85896  1.0000
  C   C38       1.0  0.4082100000000001  0.37695000000000006  0.6012700000000002  1.0000
  C   C39       1.0  0.7184900000000001  0.41025  0.63574  1.0000
  C   C40       1.0  0.34494000000000014  0.33719  0.2748700000000001  1.0000
  C   C41       1.0  0.33296  0.32735  0.20365  1.0000
  C   C42       1.0  0.9146  0.18912  0.22663  1.0000
  Cr  Cr1       1.0  0.6083400000000001  0.61104  0.52043  1.0000
  Cr  Cr2       1.0  0.2876499999999999  0.60112  0.48935  1.0000
  Cr  Cr3       1.0  0.60404  0.28787  0.49028  1.0000
  Cr  Cr4       1.0  0.05402000000000002  0.05270000000000002  0.9708500000000001  1.0000
  Cr  Cr5       1.0  0.059230000000000026  0.37512  0.9933900000000001  1.0000
  Cr  Cr6       1.0  0.37495  0.061200000000000004  0.99234  1.0000
  H   H1        1.0  0.67683  0.2508  0.24771  1.0000
  H   H2        1.0  0.23126999999999998  0.12155  0.25181  1.0000
  H   H3        1.0  0.10088  0.96598  0.31467  1.0000
  H   H4        1.0  0.15784999999999996  0.7818  0.17182  1.0000
  H   H5        1.0  0.4665499999999999  0.51166  0.76259  1.0000
  H   H6        1.0  0.58329  0.25038  0.83703  1.0000
  H   H7        1.0  0.24524  0.19116  0.7394  1.0000
  H   H8        1.0  0.12821000000000005  0.45404999999999995  0.6667200000000002  1.0000
  H   H9        1.0  0.19537000000000002  0.58872  0.81484  1.0000
  H   H10       1.0  0.95312  0.07593  0.20087  1.0000
  H   H11       1.0  0.05833999999999999  0.20386  0.34989  1.0000
  H   H12       1.0  0.041669999999999915  0.41108  0.25414  1.0000
  H   H13       1.0  0.75872  0.58734  0.2955  1.0000
  H   H14       1.0  0.6574  0.46484999999999993  0.15509  1.0000
  H   H15       1.0  0.42528999999999995  0.5997  0.24912  1.0000
  H   H16       1.0  0.55094  0.74813  0.18914  1.0000
  H   H17       1.0  0.49060000000000004  0.9388  0.33349  1.0000
  O   O1        1.0  0.75122  0.49923000000000006  0.43517  1.0000
  O   O2        1.0  0.29788  0.46908000000000005  0.56005  1.0000
  O   O3        1.0  0.48971999999999993  0.25459000000000004  0.5648100000000003  1.0000
  O   O4        1.0  0.72522  0.30423  0.58508  1.0000
  O   O5        1.0  0.50001  0.50001  0.50002  1.0000
  O   O6        1.0  0.17183000000000004  0.91388  0.05751  1.0000
  O   O7        1.0  0.9406899999999999  0.18605  0.054730000000000015  1.0000
  O   O8        1.0  0.9204700000000001  0.40572  0.07501000000000002  1.0000
  O   O9        1.0  0.19669  0.37046  0.08412000000000003  1.0000
  O   O10       1.0  0.41299  0.18075  0.09161  1.0000
  O   O11       1.0  0.36661999999999995  0.94313  0.06576  1.0000
  O   O12       1.0  0.47721999999999987  0.7276  0.43687  1.0000
  O   O13       1.0  0.16050999999999999  0.9063300000000001  0.87921  1.0000
  O   O14       1.0  0.93019  0.17905000000000004  0.8894500000000002  1.0000
  O   O15       1.0  0.9091399999999998  0.39817  0.89671  1.0000
  O   O16       1.0  0.18619000000000002  0.36346000000000006  0.91883  1.0000
  O   O17       1.0  0.40167  0.17320000000000002  0.9133100000000002  1.0000
  O   O18       1.0  0.35612  0.9361299999999999  0.90047  1.0000
  O   O19       1.0  0.16273999999999997  0.16301  0.9855300000000001  1.0000
  O   O20       1.0  0.25865  0.74512  0.4114700000000001  1.0000
  O   O21       1.0  0.29707  0.46724  0.39596  1.0000
  O   O22       1.0  0.48883  0.25261  0.38779  1.0000
  O   O23       1.0  0.7244  0.30239  0.42098  1.0000
  O   O24       1.0  0.7521  0.50121  0.61219  1.0000
  O   O25       1.0  0.47804  0.72944  0.60097  1.0000
  O   O26       1.0  0.25953  0.7471100000000002  0.5884900000000001  1.0000
  N   N1        1.0  0.53328  0.08254  0.6835  1.0000
  H   H18       1.0  0.48459  0.05331000000000001  0.63184  1.0000
  C   C43       1.0  0.60075  0.9704  0.73787  1.0000
  H   H19       1.0  0.6661599999999999  0.8661000000000001  0.70429  1.0000
  H   H20       1.0  0.5187000000000003  0.9601799999999999  0.7660000000000001  1.0000
  H   H21       1.0  0.6725700000000001  0.99453  0.7852700000000002  1.0000
