data_image0
_chemical_formula_structural       O2CO2CO2CO2CO2CO2CCr3OCH2CH3C3H2C3H3C8H6C8H6C8H5C8H6C8H5O2CO2CO2CO2CO2CO2CCr3ONO2NO2NO2NO2
_chemical_formula_sum              "O34 C60 Cr6 H38 N4"
_cell_length_a       10.9618
_cell_length_b       11.04911
_cell_length_c       18.738830000000004
_cell_angle_alpha    90.38476999999999
_cell_angle_beta     89.70547
_cell_angle_gamma    60.4227

_symmetry_space_group_name_H-M    'P 1'
_symmetry_Int_Tables_number       1

loop_
  _symmetry_equiv_pos_as_xyz
  'x,y,z'

loop_
  _atom_site_type_symbol
  _atom_site_label
  _atom_site_symmetry_multiplicity
  _atom_site_fract_x
  _atom_site_fract_y
  _atom_site_fract_z
  _atom_site_occupancy
  O   O1        1.0  0.50738  0.2557  0.5814400000000002  1.0000
  O   O2        1.0  0.28031999999999996  0.52735  0.57893  1.0000
  C   C1        1.0  0.24214000000000002  0.64437  0.61098  1.0000
  O   O3        1.0  0.26051  0.73959  0.58459  1.0000
  O   O4        1.0  0.5323  0.69508  0.57382  1.0000
  C   C2        1.0  0.6528299999999999  0.62033  0.6012700000000001  1.0000
  O   O5        1.0  0.7448399999999998  0.5035  0.57637  1.0000
  O   O6        1.0  0.6991200000000001  0.27656  0.57196  1.0000
  C   C3        1.0  0.6304499999999997  0.22511  0.60143  1.0000
  O   O7        1.0  0.49894  0.25649999999999995  0.41986  1.0000
  O   O8        1.0  0.2725  0.52808  0.42915000000000003  1.0000
  C   C4        1.0  0.22053  0.64993  0.40233  1.0000
  O   O9        1.0  0.25205999999999995  0.74038  0.42301  1.0000
  O   O10       1.0  0.5244800000000001  0.6958099999999998  0.42404  1.0000
  C   C5        1.0  0.6402900000000001  0.61953  0.39078  1.0000
  O   O11       1.0  0.7363899999999999  0.50429  0.41479  1.0000
  O   O12       1.0  0.6912999999999998  0.27729  0.42217  1.0000
  C   C6        1.0  0.6197099999999999  0.2235  0.39655  1.0000
  Cr  Cr1       1.0  0.3929600000000001  0.39792  0.50224  1.0000
  Cr  Cr2       1.0  0.3983400000000001  0.70848  0.50125  1.0000
  Cr  Cr3       1.0  0.70867  0.39357  0.49646000000000007  1.0000
  O   O13       1.0  0.49999  0.49999  0.49998000000000004  1.0000
  C   C7        1.0  0.5642599999999999  0.80191  0.7843100000000001  1.0000
  H   H1        1.0  0.5626100000000002  0.9005  0.7968100000000001  1.0000
  H   H2        1.0  0.47149  0.8059599999999999  0.81113  1.0000
  C   C8        1.0  0.5538199999999998  0.79013  0.7031800000000001  1.0000
  H   H3        1.0  0.44832000000000016  0.8057999999999998  0.69081  1.0000
  H   H4        1.0  0.5640300000000001  0.87393  0.67605  1.0000
  H   H5        1.0  0.81303  0.71868  0.65249  1.0000
  C   C9        1.0  0.8291400000000002  0.66567  0.76779  1.0000
  C   C10       1.0  0.6908199999999998  0.54285  0.79945  1.0000
  C   C11       1.0  0.7013599999999999  0.67549  0.81182  1.0000
  H   H6        1.0  0.7908399999999999  0.44893  0.8142  1.0000
  H   H7        1.0  0.60605  0.545  0.83339  1.0000
  C   C12       1.0  0.671  0.64526  0.67633  1.0000
  C   C13       1.0  0.81511  0.63719  0.6876  1.0000
  C   C14       1.0  0.6595200000000001  0.53296  0.7208400000000001  1.0000
  H   H8        1.0  0.55232  0.54621  0.716  1.0000
  H   H9        1.0  0.7337  0.42793  0.70031  1.0000
  H   H10       1.0  0.9260599999999999  0.57676  0.78904  1.0000
  C   C15       1.0  0.6836799999999998  0.14984  0.82175  1.0000
  C   C16       1.0  0.77843  0.17567  0.7839800000000001  1.0000
  C   C17       1.0  0.77355  0.18307  0.70961  1.0000
  C   C18       1.0  0.58441  0.13213  0.7085  1.0000
  C   C19       1.0  0.5805  0.13808  0.78196  1.0000
  C   C20       1.0  0.93397  0.09991  0.78502  1.0000
  C   C21       1.0  0.92993  0.10442999999999998  0.70413  1.0000
  C   C22       1.0  0.67689  0.16077999999999998  0.6708900000000002  1.0000
  H   H11       1.0  0.5041899999999999  0.11955  0.68143  1.0000
  H   H12       1.0  0.4984300000000001  0.12566  0.80714  1.0000
  H   H13       1.0  0.9753099999999998  0.99441  0.8069700000000002  1.0000
  H   H14       1.0  0.9766  0.16339  0.80909  1.0000
  H   H15       1.0  0.9728099999999997  0.1679  0.6810500000000002  1.0000
  H   H16       1.0  0.96989  0.0011900000000000012  0.67792  1.0000
  C   C23       1.0  0.18818999999999997  0.66576  0.8369300000000002  1.0000
  C   C24       1.0  0.17390000000000003  0.566  0.7973300000000001  1.0000
  C   C25       1.0  0.18423  0.56197  0.72316  1.0000
  C   C26       1.0  0.21226999999999996  0.76439  0.72635  1.0000
  C   C27       1.0  0.21287  0.76201  0.8004  1.0000
  C   C28       1.0  0.26559999999999995  0.41265  0.8022700000000001  1.0000
  C   C29       1.0  0.2795700000000001  0.40904999999999997  0.72198  1.0000
  C   C30       1.0  0.20118000000000003  0.6620299999999999  0.68627  1.0000
  H   H17       1.0  0.22585000000000002  0.84439  0.70076  1.0000
  H   H18       1.0  0.22182000000000002  0.8428799999999999  0.82889  1.0000
  H   H19       1.0  0.20715999999999993  0.3609  0.82198  1.0000
  H   H20       1.0  0.36455  0.38432999999999995  0.83087  1.0000
  H   H21       1.0  0.3852599999999999  0.38491  0.7034  1.0000
  H   H22       1.0  0.23443999999999998  0.35083  0.69478  1.0000
  C   C31       1.0  0.6408499999999998  0.6726999999999999  0.16528  1.0000
  C   C32       1.0  0.6941599999999998  0.54224  0.19578  1.0000
  C   C33       1.0  0.6930199999999999  0.52742  0.26861  1.0000
  C   C34       1.0  0.5664899999999999  0.77516  0.28436  1.0000
  C   C35       1.0  0.5628  0.7893  0.20978  1.0000
  C   C36       1.0  0.83218  0.41291  0.18717  1.0000
  C   C37       1.0  0.8294899999999998  0.39481  0.26737000000000005  1.0000
  C   C38       1.0  0.6432499999999998  0.64251  0.31455  1.0000
  H   H23       1.0  0.5128399999999999  0.86707  0.31801  1.0000
  H   H24       1.0  0.5092100000000002  0.89129  0.18707  1.0000
  H   H25       1.0  0.9159999999999999  0.43235  0.16813  1.0000
  H   H26       1.0  0.81589  0.30645  0.28328  1.0000
  H   H27       1.0  0.9121000000000002  0.40427  0.29674  1.0000
  C   C39       1.0  0.69895  0.052379999999999996  0.18846  1.0000
  C   C40       1.0  0.58136  0.07345  0.22639  1.0000
  C   C41       1.0  0.56462  0.1116  0.29751000000000005  1.0000
  C   C42       1.0  0.7955300000000002  0.08471  0.29999  1.0000
  C   C43       1.0  0.81178  0.046270000000000006  0.22737000000000002  1.0000
  C   C44       1.0  0.43264  0.17213  0.21008  1.0000
  C   C45       1.0  0.41213  0.21116999999999997  0.28808  1.0000
  C   C46       1.0  0.66439  0.13354  0.33299  1.0000
  H   H28       1.0  0.8792699999999999  0.09028  0.32743  1.0000
  H   H29       1.0  0.907  0.02526  0.20028000000000004  1.0000
  H   H30       1.0  0.37221  0.12157  0.19200000000000003  1.0000
  H   H31       1.0  0.42539  0.25694  0.17592  1.0000
  H   H32       1.0  0.38505  0.32098  0.2974800000000001  1.0000
  H   H33       1.0  0.34516  0.17723999999999998  0.31664  1.0000
  C   C47       1.0  0.13593999999999998  0.67629  0.18618000000000004  1.0000
  C   C48       1.0  0.12969999999999995  0.7873499999999999  0.2243  1.0000
  C   C49       1.0  0.13132  0.79176  0.29644000000000004  1.0000
  C   C50       1.0  0.13649999999999998  0.57142  0.30006000000000005  1.0000
  C   C51       1.0  0.13496999999999995  0.56603  0.22486  1.0000
  C   C52       1.0  0.20869  0.8634  0.21400000000000002  1.0000
  C   C53       1.0  0.21123  0.8702799999999999  0.29435  1.0000
  C   C54       1.0  0.14924000000000007  0.6771999999999999  0.33521  1.0000
  H   H34       1.0  0.14497000000000002  0.4848  0.3306  1.0000
  H   H35       1.0  0.14530000000000004  0.96699  0.18931  1.0000
  H   H36       1.0  0.31316999999999995  0.7962699999999999  0.18902  1.0000
  H   H37       1.0  0.3188400000000001  0.8101599999999999  0.3153  1.0000
  H   H38       1.0  0.14890999999999996  0.9779  0.31615  1.0000
  O   O14       1.0  0.08939999999999997  0.82569  0.93057  1.0000
  O   O15       1.0  0.81846  0.05444  0.92985  1.0000
  C   C55       1.0  0.7013199999999999  0.10209  0.8958700000000002  1.0000
  O   O16       1.0  0.60606  0.07715  0.9155100000000002  1.0000
  O   O17       1.0  0.6465499999999998  0.80668  0.91757  1.0000
  C   C56       1.0  0.7232799999999999  0.68796  0.88852  1.0000
  O   O18       1.0  0.8371700000000001  0.5934099999999999  0.91525  1.0000
  O   O19       1.0  0.06520000000000001  0.63553  0.93157  1.0000
  C   C57       1.0  0.12214000000000004  0.70447  0.90729  1.0000
  O   O20       1.0  0.06825999999999996  0.82889  0.09184000000000002  1.0000
  O   O21       1.0  0.79887  0.05741  0.07934  1.0000
  C   C58       1.0  0.70369  0.03807  0.1105  1.0000
  O   O22       1.0  0.58493  0.08035  0.07678  1.0000
  O   O23       1.0  0.62696  0.80965  0.06706000000000001  1.0000
  C   C59       1.0  0.69359  0.69046  0.09677  1.0000
  O   O24       1.0  0.81604  0.59661  0.07651  1.0000
  O   O25       1.0  0.045609999999999984  0.6385  0.08106  1.0000
  C   C60       1.0  0.09271999999999998  0.70912  0.11278000000000002  1.0000
  Cr  Cr4       1.0  0.9376500000000001  0.9385399999999999  0.0076100000000000004  1.0000
  Cr  Cr5       1.0  0.6253299999999999  0.93737  0.9945200000000001  1.0000
  Cr  Cr6       1.0  0.9379399999999999  0.62523  0.00119  1.0000
  O   O26       1.0  0.8336400000000002  0.8337099999999998  0.0011  1.0000
  N   N1        1.0  0.93511  0.50417  0.66394  1.0000
  O   O27       1.0  0.006939999999999985  0.50031  0.6076  1.0000
  O   O28       1.0  0.9760299999999998  0.3912  0.70056  1.0000
  N   N2        1.0  0.82359  0.30544999999999994  0.14556  1.0000
  O   O29       1.0  0.70471  0.32884  0.11860000000000002  1.0000
  O   O30       1.0  0.93943  0.19987999999999997  0.12215  1.0000
  N   N3        1.0  0.14524000000000004  0.44371999999999995  0.19078  1.0000
  O   O31       1.0  0.19975000000000004  0.40467  0.12723  1.0000
  O   O32       1.0  0.12850999999999999  0.35483  0.22877000000000003  1.0000
  N   N4        1.0  0.84272  0.79104  0.77732  1.0000
  O   O33       1.0  0.8653599999999999  0.85165  0.7237000000000001  1.0000
  O   O34       1.0  0.8572199999999999  0.82827  0.84093  1.0000
