data_image0
_chemical_formula_structural       PO6HCH2P2O5CHCH2CH2CH3BaCH2CH3CH2CH3PO4PO4BaPCH2OCH2CH3PO2HCH2CH3PCHO2H2CH2C6H2C10H4C7HC7H5NO2
_chemical_formula_sum              "P8 O26 H51 C46 Ba2 N1"
_cell_length_a       8.17367
_cell_length_b       14.272930000000002
_cell_length_c       14.92638
_cell_angle_alpha    94.92443
_cell_angle_beta     97.86234999999999
_cell_angle_gamma    91.62316

_symmetry_space_group_name_H-M    'P 1'
_symmetry_Int_Tables_number       1

loop_
  _symmetry_equiv_pos_as_xyz
  'x,y,z'

loop_
  _atom_site_type_symbol
  _atom_site_label
  _atom_site_symmetry_multiplicity
  _atom_site_fract_x
  _atom_site_fract_y
  _atom_site_fract_z
  _atom_site_occupancy
  P   P1        1.0  0.018600000000000026  0.4167899999999999  0.2959700000000001  1.0000
  O   O1        1.0  0.84123  0.4441599999999999  0.28043000000000007  1.0000
  O   O2        1.0  0.11286  0.4473499999999999  0.39371  1.0000
  O   O3        1.0  0.59794  0.6157  0.3276900000000001  1.0000
  O   O4        1.0  0.69943  0.5551699999999999  0.17317  1.0000
  O   O5        1.0  0.0016900000000000224  0.29371999999999987  0.2782600000000001  1.0000
  O   O6        1.0  0.5954700000000002  0.72672  0.17961  1.0000
  H   H1        1.0  0.6305099999999999  0.78834  0.31232  1.0000
  C   C1        1.0  0.56723  0.8910399999999999  0.21811000000000005  1.0000
  H   H2        1.0  0.69839  0.9099299999999998  0.21451  1.0000
  H   H3        1.0  0.49525  0.8962599999999997  0.15024  1.0000
  P   P2        1.0  0.6356599999999999  0.7165299999999998  0.5609  1.0000
  P   P3        1.0  0.035489999999999994  0.7862999999999998  0.36648  1.0000
  O   O7        1.0  0.8022400000000001  0.72974  0.5328500000000002  1.0000
  O   O8        1.0  0.01718  0.66479  0.37108  1.0000
  O   O9        1.0  0.92126  0.8310299999999999  0.43091  1.0000
  O   O10       1.0  0.67085  0.74608  0.67852  1.0000
  O   O11       1.0  0.94498  0.8155099999999997  0.25956000000000007  1.0000
  C   C2        1.0  0.03836999999999999  0.7848599999999998  0.19075  1.0000
  H   H4        1.0  0.12383000000000002  0.7283399999999999  0.21082000000000006  1.0000
  C   C3        1.0  0.13908  0.8684799999999998  0.16662  1.0000
  H   H5        1.0  0.05662999999999999  0.9250099999999999  0.14406  1.0000
  H   H6        1.0  0.22503000000000004  0.89831  0.22649  1.0000
  C   C4        1.0  0.21185000000000007  0.7444999999999999  0.6415700000000002  1.0000
  H   H7        1.0  0.32494000000000006  0.71717  0.6179900000000002  1.0000
  H   H8        1.0  0.10466000000000004  0.72728  0.58808  1.0000
  C   C5        1.0  0.23120000000000002  0.85102  0.66022  1.0000
  H   H9        1.0  0.34539000000000003  0.8705300000000001  0.7084400000000002  1.0000
  H   H10       1.0  0.23908  0.88403  0.59637  1.0000
  H   H11       1.0  0.12283000000000001  0.8785299999999999  0.6899700000000002  1.0000
  Ba  Ba1       1.0  0.8334000000000001  0.54331  0.4535200000000001  1.0000
  C   C6        1.0  0.9837400000000001  0.25532  0.3595  1.0000
  H   H12       1.0  0.87166  0.28162  0.38478  1.0000
  H   H13       1.0  0.09234000000000003  0.2738899999999999  0.41154  1.0000
  C   C7        1.0  0.96818  0.14859  0.34136  1.0000
  H   H14       1.0  0.8530600000000003  0.12757999999999997  0.2944200000000001  1.0000
  H   H15       1.0  0.9645900000000002  0.11552999999999998  0.4055800000000001  1.0000
  H   H16       1.0  0.07614000000000004  0.12233999999999998  0.31034000000000006  1.0000
  C   C8        1.0  0.73393  0.66951  0.72263  1.0000
  H   H17       1.0  0.8529800000000001  0.65117  0.7000100000000002  1.0000
  H   H18       1.0  0.64608  0.6075999999999999  0.7089900000000001  1.0000
  C   C9        1.0  0.76184  0.6973399999999997  0.8245100000000002  1.0000
  H   H19       1.0  0.8548300000000002  0.75677  0.8406400000000003  1.0000
  H   H20       1.0  0.8071300000000002  0.63723  0.8618300000000002  1.0000
  H   H21       1.0  0.64398  0.71903  0.84774  1.0000
  P   P4        1.0  0.1710900000000001  0.58329  0.7040300000000003  1.0000
  O   O12       1.0  0.34848  0.55587  0.71962  1.0000
  O   O13       1.0  0.07683000000000001  0.5527299999999999  0.6063  1.0000
  O   O14       1.0  0.59176  0.3843799999999999  0.67232  1.0000
  O   O15       1.0  0.18750000000000003  0.7062899999999998  0.7220800000000003  1.0000
  P   P5        1.0  0.16114000000000006  0.21379999999999993  0.6372  1.0000
  O   O16       1.0  0.62909  0.3863499999999999  0.45924  1.0000
  O   O17       1.0  0.17252000000000006  0.33528999999999987  0.6289200000000003  1.0000
  O   O18       1.0  0.28853000000000006  0.16961  0.5804700000000003  1.0000
  O   O19       1.0  0.23885  0.19515999999999994  0.74911  1.0000
  Ba  Ba2       1.0  0.35642  0.45677  0.54648  1.0000
  P   P6        1.0  0.56171  0.6126599999999999  0.21008000000000004  1.0000
  C   C10       1.0  0.5491400000000002  0.7917299999999999  0.24676  1.0000
  H   H22       1.0  0.4186600000000002  0.77768  0.2562000000000001  1.0000
  H   H23       1.0  0.52212  0.9424699999999998  0.26821  1.0000
  O   O20       1.0  0.5606100000000003  0.61373  0.54077  1.0000
  C   C11       1.0  0.45854  0.3130399999999999  0.27474000000000004  1.0000
  H   H24       1.0  0.33923000000000014  0.3300999999999999  0.29849  1.0000
  H   H25       1.0  0.54395  0.3761599999999999  0.28732  1.0000
  C   C12       1.0  0.42703  0.28581  0.17286  1.0000
  H   H26       1.0  0.33811  0.22436  0.15762  1.0000
  H   H27       1.0  0.37471000000000004  0.34546  0.13698  1.0000
  H   H28       1.0  0.54476  0.26751  0.14753000000000002  1.0000
  P   P7        1.0  0.56229  0.2685999999999999  0.4356500000000001  1.0000
  O   O21       1.0  0.3874600000000001  0.2702899999999999  0.4672100000000001  1.0000
  O   O22       1.0  0.52804  0.23729999999999996  0.31837  1.0000
  H   H29       1.0  0.21052999999999997  0.8454699999999998  0.11108  1.0000
  C   C13       1.0  0.12381  0.22558  0.80607  1.0000
  H   H30       1.0  0.06854  0.2928499999999999  0.7875800000000002  1.0000
  H   H31       1.0  0.02519999999999999  0.16981  0.80298  1.0000
  C   C14       1.0  0.20996999999999993  0.24205999999999994  0.90343  1.0000
  H   H32       1.0  0.30571  0.2998699999999999  0.90913  1.0000
  H   H33       1.0  0.11844000000000005  0.26213  0.9494900000000002  1.0000
  H   H34       1.0  0.2693  0.17695999999999995  0.9247200000000002  1.0000
  P   P8        1.0  0.62931  0.38696  0.78999  1.0000
  C   C15       1.0  0.6487  0.20857  0.75591  1.0000
  H   H35       1.0  0.7763600000000004  0.22791999999999996  0.7448800000000002  1.0000
  O   O23       1.0  0.4947400000000001  0.44616000000000006  0.8280700000000002  1.0000
  O   O24       1.0  0.5917200000000001  0.27321  0.8198100000000003  1.0000
  H   H36       1.0  0.56596  0.20548000000000002  0.6901700000000002  1.0000
  H   H37       1.0  0.69231  0.05944000000000002  0.7401800000000002  1.0000
  C   C16       1.0  0.64824  0.11132999999999998  0.7902700000000003  1.0000
  H   H38       1.0  0.52107  0.08937  0.8003100000000002  1.0000
  H   H39       1.0  0.7313  0.1123  0.85581  1.0000
  C   C17       1.0  0.83905  0.43796  0.83249  1.0000
  C   C18       1.0  0.9096200000000002  0.44318999999999986  0.9247200000000002  1.0000
  C   C19       1.0  0.05025  0.45773  0.11122000000000003  1.0000
  C   C20       1.0  0.90162  0.4057599999999999  0.08041000000000002  1.0000
  C   C21       1.0  0.8312300000000001  0.40025  0.9896100000000002  1.0000
  C   C22       1.0  0.11634  0.47049999999999986  0.20504000000000006  1.0000
  H   H40       1.0  0.8358700000000002  0.36936  0.12587000000000004  1.0000
  H   H41       1.0  0.7146500000000002  0.36123  0.9712300000000001  1.0000
  C   C23       1.0  0.26689  0.52068  0.23079000000000005  1.0000
  C   C24       1.0  0.07677999999999999  0.52624  0.79443  1.0000
  C   C25       1.0  0.14549  0.5363899999999998  0.88792  1.0000
  C   C26       1.0  0.06386000000000006  0.4922499999999999  0.9526400000000003  1.0000
  C   C27       1.0  0.2929800000000001  0.58934  0.9190100000000001  1.0000
  C   C28       1.0  0.36402  0.5943  0.00963  1.0000
  C   C29       1.0  0.28662999999999994  0.5504299999999998  0.07432  1.0000
  C   C30       1.0  0.13408  0.49970999999999993  0.046070000000000014  1.0000
  C   C31       1.0  0.35511  0.5577899999999999  0.16692000000000004  1.0000
  C   C32       1.0  0.92687  0.47539  0.76863  1.0000
  H   H42       1.0  0.47935  0.6345399999999998  0.02823000000000001  1.0000
  H   H43       1.0  0.3567500000000001  0.62764  0.8740500000000002  1.0000
  H   H44       1.0  0.3191200000000001  0.528  0.30175  1.0000
  H   H45       1.0  0.87353  0.46906  0.69785  1.0000
  C   C33       1.0  0.70741  0.9368699999999998  0.55106  1.0000
  C   C34       1.0  0.51052  0.80094  0.49724  1.0000
  C   C35       1.0  0.35924  0.76766  0.44774  1.0000
  C   C36       1.0  0.24741000000000002  0.8296699999999998  0.40873000000000004  1.0000
  C   C37       1.0  0.2915200000000001  0.9248399999999998  0.41206  1.0000
  C   C38       1.0  0.44720000000000015  0.95895  0.45589000000000013  1.0000
  C   C39       1.0  0.5566800000000002  0.8981699999999998  0.50206  1.0000
  H   H46       1.0  0.32314  0.6938599999999999  0.44531000000000004  1.0000
  C   C40       1.0  0.64326  0.09186999999999997  0.5022  1.0000
  C   C41       1.0  0.75289  0.032340000000000015  0.5499100000000002  1.0000
  C   C42       1.0  0.68838  0.18803  0.50293  1.0000
  C   C43       1.0  0.83857  0.22375999999999993  0.55133  1.0000
  C   C44       1.0  0.95184  0.16435  0.5931200000000001  1.0000
  C   C45       1.0  0.9084900000000002  0.06879  0.5938600000000003  1.0000
  C   C46       1.0  0.49173  0.053899999999999997  0.4554300000000001  1.0000
  H   H47       1.0  0.20332000000000006  0.9723299999999999  0.3817700000000001  1.0000
  H   H48       1.0  0.9965  0.023130000000000015  0.6270500000000002  1.0000
  H   H49       1.0  0.87218  0.29763  0.55122  1.0000
  H   H50       1.0  0.7918400000000002  0.89391  0.5899700000000002  1.0000
  H   H51       1.0  0.4057  0.09738  0.4180900000000001  1.0000
  N   N1        1.0  0.92464  0.74859  0.11021000000000002  1.0000
  O   O25       1.0  0.92728  0.66117  0.0783  1.0000
  O   O26       1.0  0.81927  0.8033199999999998  0.06969  1.0000
