data_image0
_chemical_formula_structural       C30Cu2H36N6O8
_chemical_formula_sum              "C30 Cu2 H36 N6 O8"
_cell_length_a       10.73325
_cell_length_b       9.74064
_cell_length_c       11.67381
_cell_angle_alpha    88.38991
_cell_angle_beta     93.87647
_cell_angle_gamma    91.83482999999998

_symmetry_space_group_name_H-M    'P 1'
_symmetry_Int_Tables_number       1

loop_
  _symmetry_equiv_pos_as_xyz
  'x,y,z'

loop_
  _atom_site_type_symbol
  _atom_site_label
  _atom_site_symmetry_multiplicity
  _atom_site_fract_x
  _atom_site_fract_y
  _atom_site_fract_z
  _atom_site_occupancy
  C   C1        1.0  0.26301  0.49841  0.49832  1.0000
  C   C2        1.0  0.92948  0.55501  0.40356  1.0000
  C   C3        1.0  0.94078  0.44867  0.59666  1.0000
  C   C4        1.0  0.0591  0.55073  0.40216  1.0000
  C   C5        1.0  0.87121  0.50426  0.50112  1.0000
  C   C6        1.0  0.12873  0.4958899999999999  0.49779  1.0000
  C   C7        1.0  0.41462  0.07335999999999998  0.42989  1.0000
  C   C8        1.0  0.59183  0.9293899999999998  0.56091  1.0000
  C   C9        1.0  0.57886  0.07354  0.57444  1.0000
  C   C10       1.0  0.41903000000000007  0.9255599999999998  0.42567  1.0000
  C   C11       1.0  0.30439000000000005  0.14276  0.36465  1.0000
  C   C12       1.0  0.7369500000000001  0.50163  0.50101  1.0000
  C   C13       1.0  0.18369000000000002  0.11944  0.42830999999999997  1.0000
  C   C14       1.0  0.06983000000000002  0.17097999999999997  0.35633  1.0000
  C   C15       1.0  0.72609  0.8822699999999999  0.57818  1.0000
  C   C16       1.0  0.75717  0.8061499999999998  0.6935  1.0000
  C   C17       1.0  0.89813  0.7941199999999998  0.71712  1.0000
  C   C18       1.0  0.64368  0.13731999999999997  0.68117  1.0000
  C   C19       1.0  0.56504  0.11092  0.78532  1.0000
  C   C20       1.0  0.6339  0.16186999999999999  0.89551  1.0000
  C   C21       1.0  0.34719  0.85587  0.3248  1.0000
  C   C22       1.0  0.4139000000000001  0.88026  0.21268  1.0000
  C   C23       1.0  0.49968  0.50143  0.28452  1.0000
  C   C24       1.0  0.33498  0.82419  0.10971999999999998  1.0000
  C   C25       1.0  0.49997999999999987  0.49858999999999987  0.7154599999999999  1.0000
  C   C26       1.0  0.4998600000000001  0.50352  0.16258  1.0000
  C   C27       1.0  0.49939000000000006  0.49674999999999997  0.83736  1.0000
  C   C28       1.0  0.4997  0.50192  0.05993  1.0000
  C   C29       1.0  0.49933  0.49862  0.9399999999999998  1.0000
  C   C30       1.0  0.07102  0.44426999999999994  0.59484  1.0000
  Cu  Cu1       1.0  0.5  0.64066  0.5  1.0000
  Cu  Cu2       1.0  0.5  0.35933999999999994  0.5  1.0000
  H   H1        1.0  0.13094000000000003  0.44729  0.76352  1.0000
  H   H2        1.0  0.05176  0.10762999999999999  0.27898  1.0000
  H   H3        1.0  0.98646  0.16334  0.40784  1.0000
  H   H4        1.0  0.1672  0.008780000000000001  0.4492999999999999  1.0000
  H   H5        1.0  0.19182  0.17215999999999995  0.51151  1.0000
  H   H6        1.0  0.32085  0.2516  0.34627  1.0000
  H   H7        1.0  0.28886  0.10605  0.27601  1.0000
  H   H8        1.0  0.9389800000000003  0.74285  0.64528  1.0000
  H   H9        1.0  0.9432200000000002  0.89766  0.72764  1.0000
  H   H10       1.0  0.9178300000000001  0.73253  0.79741  1.0000
  H   H11       1.0  0.72037  0.8615699999999998  0.7651  1.0000
  H   H12       1.0  0.118  0.28825  0.70677  1.0000
  H   H13       1.0  0.71465  0.70161  0.69427  1.0000
  H   H14       1.0  0.75433  0.8302  0.50223  1.0000
  H   H15       1.0  0.79183  0.97221  0.57192  1.0000
  H   H16       1.0  0.71847  0.10085  0.91661  1.0000
  H   H17       1.0  0.6626300000000002  0.27178  0.88552  1.0000
  H   H18       1.0  0.57175  0.15014  0.96767  1.0000
  H   H19       1.0  0.47417  0.16217  0.77182  1.0000
  H   H20       1.0  0.54416  0.99903  0.79642  1.0000
  H   H21       1.0  0.73696  0.0958  0.70361  1.0000
  H   H22       1.0  0.66626  0.24647999999999984  0.66845  1.0000
  H   H23       1.0  0.8096500000000001  0.6921399999999999  0.32731  1.0000
  H   H24       1.0  0.31189000000000006  0.7133199999999998  0.12363  1.0000
  H   H25       1.0  0.24686  0.8810099999999998  0.09634  1.0000
  H   H26       1.0  0.3876500000000001  0.83707  0.03126  1.0000
  H   H27       1.0  0.4339500000000001  0.99124  0.19624999999999998  1.0000
  H   H28       1.0  0.50563  0.8303199999999998  0.21924  1.0000
  H   H29       1.0  0.33127  0.74658  0.33854  1.0000
  H   H30       1.0  0.24997000000000005  0.8903699999999998  0.31305  1.0000
  H   H31       1.0  0.7939800000000001  0.53097  0.27524  1.0000
  H   H32       1.0  0.9116000000000002  0.45799999999999996  0.7661299999999999  1.0000
  H   H33       1.0  0.8996900000000002  0.29760999999999993  0.71245  1.0000
  H   H34       1.0  0.09651  0.6990599999999998  0.28358  1.0000
  H   H35       1.0  0.08642  0.53783  0.23307  1.0000
  H   H36       1.0  0.08517000000000002  0.27967  0.32867  1.0000
  N   N1        1.0  0.5  0.8520699999999999  0.5  1.0000
  N   N2        1.0  0.5  0.14793  0.5  1.0000
  N   N3        1.0  0.14595  0.3904799999999999  0.6913699999999999  1.0000
  N   N4        1.0  0.85846  0.60724  0.30402  1.0000
  N   N5        1.0  0.8783300000000002  0.40044  0.69568  1.0000
  N   N6        1.0  0.1205  0.5973099999999998  0.30216  1.0000
  O   O1        1.0  0.31964  0.61874  0.49999  1.0000
  O   O2        1.0  0.68036  0.38126  0.50001  1.0000
  O   O3        1.0  0.68036  0.61874  0.50001  1.0000
  O   O4        1.0  0.31964  0.38126  0.49999  1.0000
  O   O5        1.0  0.5000100000000001  0.6187899999999998  0.3372  1.0000
  O   O6        1.0  0.49999000000000005  0.38120999999999994  0.6628  1.0000
  O   O7        1.0  0.49999000000000005  0.6187899999999998  0.6628  1.0000
  O   O8        1.0  0.5000100000000001  0.38120999999999994  0.3372  1.0000
