data_image0
_chemical_formula_structural       O4C2O4C2O2V2C2H2C26H2C8H2C4O4C2O4C2O2V2F4CH3CH3F12
_chemical_formula_sum              "O20 C50 V4 H12 F16"
_cell_length_a       20.14832
_cell_length_b       7.2550099999999995
_cell_length_c       13.576079999999997
_cell_angle_alpha    89.99994
_cell_angle_beta     102.88973
_cell_angle_gamma    89.99987

_symmetry_space_group_name_H-M    'P 1'
_symmetry_Int_Tables_number       1

loop_
  _symmetry_equiv_pos_as_xyz
  'x,y,z'

loop_
  _atom_site_type_symbol
  _atom_site_label
  _atom_site_symmetry_multiplicity
  _atom_site_fract_x
  _atom_site_fract_y
  _atom_site_fract_z
  _atom_site_occupancy
  O   O1        1.0  0.44956  0.50681  0.5996999999999999  1.0000
  O   O2        1.0  0.5504400000000002  0.006809999999999999  0.4003  1.0000
  O   O3        1.0  0.58796  0.18006  0.5957599999999998  1.0000
  O   O4        1.0  0.41204  0.68006  0.40424  1.0000
  C   C1        1.0  0.61477  0.3443999999999999  0.61769  1.0000
  C   C2        1.0  0.38522999999999996  0.8443999999999998  0.38230999999999987  1.0000
  O   O5        1.0  0.45238000000000006  0.17743  0.6116999999999999  1.0000
  O   O6        1.0  0.54762  0.67743  0.38829999999999987  1.0000
  O   O7        1.0  0.4139000000000001  0.0018899999999999995  0.4163499999999999  1.0000
  O   O8        1.0  0.5861  0.50189  0.58365  1.0000
  C   C3        1.0  0.43659  0.34609  0.63794  1.0000
  C   C4        1.0  0.56341  0.84609  0.36206  1.0000
  O   O9        1.0  0.4875300000000001  0.33749  0.43589  1.0000
  O   O10       1.0  0.51247  0.8374899999999998  0.56411  1.0000
  V   V1        1.0  0.50231  0.06466  0.51189  1.0000
  V   V2        1.0  0.49769  0.5646599999999998  0.48811  1.0000
  C   C5        1.0  0.6059800000000001  0.95923  0.11421  1.0000
  C   C6        1.0  0.39402  0.4592599999999999  0.88579  1.0000
  H   H1        1.0  0.51576  0.96613  0.17301  1.0000
  H   H2        1.0  0.48424  0.4661599999999999  0.8269899999999998  1.0000
  C   C7        1.0  0.60123  0.8597199999999998  0.28214  1.0000
  C   C8        1.0  0.39877000000000007  0.35971999999999993  0.7178699999999999  1.0000
  C   C9        1.0  0.92732  0.8447499999999998  0.3136699999999999  1.0000
  C   C10       1.0  0.07267999999999998  0.34477  0.6863199999999999  1.0000
  C   C11       1.0  0.89114  0.85767  0.38907  1.0000
  C   C12       1.0  0.10887000000000001  0.35768999999999995  0.61093  1.0000
  C   C13       1.0  0.8206800000000002  0.8774099999999999  0.36469  1.0000
  C   C14       1.0  0.17933  0.37741  0.63531  1.0000
  C   C15       1.0  0.7838  0.87269  0.26234  1.0000
  C   C16       1.0  0.21618999999999997  0.37267999999999996  0.7376599999999998  1.0000
  C   C17       1.0  0.82136  0.88039  0.18522999999999995  1.0000
  C   C18       1.0  0.17864000000000005  0.3803699999999999  0.8147699999999999  1.0000
  C   C19       1.0  0.71121  0.8742799999999997  0.23484999999999998  1.0000
  C   C20       1.0  0.28878999999999994  0.3742799999999999  0.7651599999999997  1.0000
  C   C21       1.0  0.6773700000000001  0.9268299999999998  0.13482  1.0000
  C   C22       1.0  0.32263  0.4268399999999999  0.8651799999999997  1.0000
  C   C23       1.0  0.7156000000000001  0.9431299999999998  0.05909  1.0000
  C   C24       1.0  0.28439  0.4431299999999999  0.94091  1.0000
  C   C25       1.0  0.7862300000000001  0.9124799999999997  0.08423999999999997  1.0000
  C   C26       1.0  0.21376999999999996  0.41243999999999986  0.9157599999999999  1.0000
  C   C27       1.0  0.67079  0.82124  0.30333  1.0000
  C   C28       1.0  0.32921000000000006  0.32123  0.69667  1.0000
  C   C29       1.0  0.56955  0.9329199999999997  0.18887  1.0000
  C   C30       1.0  0.43045000000000005  0.43294  0.8111299999999998  1.0000
  C   C31       1.0  0.8936300000000003  0.86151  0.21221  1.0000
  C   C32       1.0  0.10637  0.36151  0.78779  1.0000
  H   H3        1.0  0.9182500000000001  0.8590099999999998  0.4674999999999999  1.0000
  H   H4        1.0  0.08175  0.35903  0.5325  1.0000
  C   C33       1.0  0.22609  0.01754  0.19869999999999993  1.0000
  C   C34       1.0  0.7739100000000001  0.51754  0.8013  1.0000
  C   C35       1.0  0.29109  0.013669999999999996  0.2623599999999999  1.0000
  C   C36       1.0  0.7089100000000002  0.51367  0.73763  1.0000
  C   C37       1.0  0.31646  0.85097  0.3136  1.0000
  C   C38       1.0  0.68354  0.3509699999999999  0.6863999999999998  1.0000
  C   C39       1.0  0.2751  0.69259  0.29901999999999995  1.0000
  C   C40       1.0  0.7249000000000001  0.19259  0.7009799999999999  1.0000
  H   H5        1.0  0.29281999999999997  0.5652799999999998  0.33774  1.0000
  H   H6        1.0  0.70718  0.06526999999999998  0.6622599999999997  1.0000
  C   C41       1.0  0.20987  0.69614  0.23593999999999998  1.0000
  C   C42       1.0  0.7901300000000001  0.19614  0.7640599999999999  1.0000
  C   C43       1.0  0.18418000000000007  0.85904  0.18461  1.0000
  C   C44       1.0  0.81582  0.3590399999999999  0.8153899999999997  1.0000
  O   O11       1.0  0.91392  0.20337  0.9162599999999999  1.0000
  O   O12       1.0  0.08608  0.7033699999999998  0.08374  1.0000
  O   O13       1.0  0.04762  0.53554  0.88829  1.0000
  O   O14       1.0  0.9523800000000002  0.03554  0.11171  1.0000
  C   C45       1.0  0.06429  0.36836  0.8629199999999999  1.0000
  C   C46       1.0  0.93571  0.86837  0.13708  1.0000
  O   O15       1.0  0.9120400000000001  0.53278  0.9042199999999998  1.0000
  O   O16       1.0  0.08796  0.03278  0.09577999999999998  1.0000
  O   O17       1.0  0.94955  0.70816  0.09972  1.0000
  O   O18       1.0  0.05045000000000003  0.20815999999999996  0.90028  1.0000
  C   C47       1.0  0.88531  0.36488  0.8831999999999998  1.0000
  C   C48       1.0  0.1147  0.86488  0.11679999999999997  1.0000
  O   O19       1.0  0.012480000000000002  0.3752999999999999  0.06406  1.0000
  O   O20       1.0  0.98752  0.8752999999999997  0.9359399999999998  1.0000
  V   V3        1.0  0.9976900000000002  0.6481799999999998  0.9881099999999998  1.0000
  V   V4        1.0  0.0023100000000000004  0.14817999999999995  0.011889999999999998  1.0000
  F   F1        1.0  0.32948000000000005  0.16924  0.27188999999999997  1.0000
  F   F2        1.0  0.67052  0.66925  0.7281  1.0000
  F   F3        1.0  0.17173  0.5403  0.22719999999999996  1.0000
  F   F4        1.0  0.82826  0.04029  0.77281  1.0000
  C   C49       1.0  0.68225  0.9868499999999998  0.9500499999999997  1.0000
  H   H7        1.0  0.71825  0.9845699999999997  0.89914  1.0000
  H   H8        1.0  0.6424099999999999  0.8828599999999998  0.9201899999999997  1.0000
  H   H9        1.0  0.6599000000000002  0.12734  0.94468  1.0000
  C   C50       1.0  0.31774  0.48687999999999987  0.049939999999999984  1.0000
  H   H10       1.0  0.28174000000000005  0.48459999999999986  0.10085  1.0000
  H   H11       1.0  0.35759000000000013  0.38289  0.07981  1.0000
  H   H12       1.0  0.34009  0.6273599999999999  0.055309999999999984  1.0000
  F   F5        1.0  0.5704  0.02262  0.02382  1.0000
  F   F6        1.0  0.42960000000000004  0.5226699999999997  0.9761799999999998  1.0000
  F   F7        1.0  0.697  0.721  0.3875599999999999  1.0000
  F   F8        1.0  0.30300000000000005  0.22097999999999995  0.61245  1.0000
  F   F9        1.0  0.99616  0.82798  0.33997  1.0000
  F   F10       1.0  0.0038299999999999628  0.32801999999999987  0.6600299999999998  1.0000
  F   F11       1.0  0.7908300000000003  0.9240399999999998  0.4414099999999999  1.0000
  F   F12       1.0  0.20918  0.42404999999999987  0.55859  1.0000
  F   F13       1.0  0.82081  0.9231199999999999  0.00927  1.0000
  F   F14       1.0  0.17919  0.42305  0.9907399999999997  1.0000
  F   F15       1.0  0.20506  0.17714999999999995  0.14959  1.0000
  F   F16       1.0  0.79494  0.67715  0.8504099999999998  1.0000
