data_image0
_chemical_formula_structural       C73Cr6H48O26
_chemical_formula_sum              "C73 Cr6 H48 O26"
_cell_length_a       10.87014
_cell_length_b       11.013970000000002
_cell_length_c       18.83195
_cell_angle_alpha    90.32172
_cell_angle_beta     89.92857
_cell_angle_gamma    60.23968

_symmetry_space_group_name_H-M    'P 1'
_symmetry_Int_Tables_number       1

loop_
  _symmetry_equiv_pos_as_xyz
  'x,y,z'

loop_
  _atom_site_type_symbol
  _atom_site_label
  _atom_site_symmetry_multiplicity
  _atom_site_fract_x
  _atom_site_fract_y
  _atom_site_fract_z
  _atom_site_occupancy
  C   C1        1.0  0.23492  0.64558  0.60954  1.0000
  C   C2        1.0  0.59725  0.10755  0.70242  1.0000
  C   C3        1.0  0.61467  0.07939  0.77359  1.0000
  C   C4        1.0  0.63093  0.59205  0.60896  1.0000
  C   C5        1.0  0.92633  0.13062  0.80984  1.0000
  C   C6        1.0  0.02836999999999999  0.14277  0.77043  1.0000
  C   C7        1.0  0.028350000000000007  0.13594  0.69677  1.0000
  C   C8        1.0  0.92132  0.12605  0.66199  1.0000
  C   C9        1.0  0.68764  0.14098  0.66609  1.0000
  C   C10       1.0  0.17952999999999997  0.67079  0.83377  1.0000
  C   C11       1.0  0.20726999999999995  0.54568  0.79928  1.0000
  C   C12       1.0  0.72005  0.50995  0.80492  1.0000
  C   C13       1.0  0.19853000000000004  0.5428  0.72397  1.0000
  C   C14       1.0  0.16751999999999997  0.77719  0.72055  1.0000
  C   C15       1.0  0.16855000000000003  0.7816  0.7935  1.0000
  C   C16       1.0  0.6326599999999998  0.22132  0.60037  1.0000
  C   C17       1.0  0.24491  0.42311  0.8382199999999999  1.0000
  C   C18       1.0  0.26200000000000007  0.30334  0.80449  1.0000
  C   C19       1.0  0.23931999999999998  0.30442  0.73195  1.0000
  C   C20       1.0  0.20433000000000004  0.42337  0.69215  1.0000
  C   C21       1.0  0.18627  0.65855  0.68409  1.0000
  C   C22       1.0  0.66949  0.65547  0.17034  1.0000
  C   C23       1.0  0.6895  0.66153  0.81664  1.0000
  C   C24       1.0  0.7878199999999997  0.5575  0.21202  1.0000
  C   C25       1.0  0.7878100000000002  0.58207  0.28504  1.0000
  C   C26       1.0  0.53238  0.73119  0.27804  1.0000
  C   C27       1.0  0.5408400000000001  0.73968  0.20448  1.0000
  C   C28       1.0  0.22065  0.64815  0.40237  1.0000
  C   C29       1.0  0.9076  0.43734  0.18378  1.0000
  C   C30       1.0  0.03263999999999997  0.36885  0.22165999999999997  1.0000
  C   C31       1.0  0.03695  0.40465  0.29184  1.0000
  C   C32       1.0  0.9169399999999999  0.51412  0.32291  1.0000
  C   C33       1.0  0.65628  0.65904  0.31926999999999994  1.0000
  C   C34       1.0  0.6529200000000001  0.6229799999999999  0.68287  1.0000
  C   C35       1.0  0.6334  0.16702  0.17511999999999997  1.0000
  C   C36       1.0  0.54592  0.13439  0.21884  1.0000
  C   C37       1.0  0.57289  0.11916  0.29194  1.0000
  C   C38       1.0  0.7065999999999998  0.24141999999999997  0.27801  1.0000
  C   C39       1.0  0.70927  0.22466999999999998  0.20534  1.0000
  C   C40       1.0  0.6426199999999999  0.6236  0.39249  1.0000
  C   C41       1.0  0.43241000000000007  0.11741999999999998  0.19337  1.0000
  C   C42       1.0  0.3625299999999999  0.07041  0.23779  1.0000
  C   C43       1.0  0.40175  0.040659999999999995  0.30825  1.0000
  C   C44       1.0  0.51167  0.05716999999999999  0.33431  1.0000
  C   C45       1.0  0.7771400000000003  0.6564899999999999  0.6894  1.0000
  C   C46       1.0  0.6466  0.18141  0.32193  1.0000
  C   C47       1.0  0.1327  0.69447  0.18809  1.0000
  C   C48       1.0  0.09658000000000005  0.81333  0.23369  1.0000
  C   C49       1.0  0.08183999999999997  0.79896  0.30639  1.0000
  C   C50       1.0  0.2117  0.54667  0.28918  1.0000
  C   C51       1.0  0.1901700000000001  0.5619199999999999  0.21689000000000003  1.0000
  C   C52       1.0  0.6179500000000001  0.22906999999999997  0.3949  1.0000
  C   C53       1.0  0.08249000000000004  0.9429899999999999  0.21179  1.0000
  C   C54       1.0  0.03568  0.05518  0.25876  1.0000
  C   C55       1.0  0.0017899999999999986  0.04379  0.32826  1.0000
  C   C56       1.0  0.69278  0.48935  0.72684  1.0000
  C   C57       1.0  0.01878000000000002  0.91773  0.35144999999999993  1.0000
  C   C58       1.0  0.15532  0.66486  0.33412  1.0000
  C   C59       1.0  0.7263999999999999  0.049389999999999996  0.88828  1.0000
  C   C60       1.0  0.7185799999999999  0.6840499999999999  0.8906799999999999  1.0000
  C   C61       1.0  0.11955000000000002  0.7057999999999999  0.90589  1.0000
  C   C62       1.0  0.67182  0.10877  0.10375  1.0000
  C   C63       1.0  0.6963200000000002  0.68695  0.09744  1.0000
  C   C64       1.0  0.5339299999999999  0.76248  0.79512  1.0000
  C   C65       1.0  0.08960999999999997  0.71408  0.11406999999999999  1.0000
  C   C66       1.0  0.51407  0.74338  0.71583  1.0000
  C   C67       1.0  0.72051  0.08702  0.8126  1.0000
  C   C68       1.0  0.7902699999999999  0.68762  0.76848  1.0000
  C   C69       1.0  0.76687  0.77581  0.6409599999999999  1.0000
  C   C70       1.0  0.83531  0.7260099999999999  0.56718  1.0000
  C   C71       1.0  0.8501799999999999  0.84  0.52907  1.0000
  C   C72       1.0  0.8198599999999999  0.11335  0.7758  1.0000
  C   C73       1.0  0.81002  0.12609  0.70052  1.0000
  Cr  Cr1       1.0  0.39293999999999996  0.39795  0.50223  1.0000
  Cr  Cr2       1.0  0.3984  0.7085  0.50126  1.0000
  Cr  Cr3       1.0  0.7086399999999999  0.39353  0.49646  1.0000
  Cr  Cr4       1.0  0.93788  0.93832  0.00762  1.0000
  Cr  Cr5       1.0  0.62556  0.93722  0.99451  1.0000
  Cr  Cr6       1.0  0.9380799999999996  0.62501  0.00119  1.0000
  H   H1        1.0  0.50415  0.8729099999999999  0.8051699999999999  1.0000
  H   H2        1.0  0.92875  0.11521  0.60484  1.0000
  H   H3        1.0  0.16296  0.86423  0.6924699999999999  1.0000
  H   H4        1.0  0.46116  0.7409999999999999  0.82746  1.0000
  H   H5        1.0  0.26578  0.41757  0.89462  1.0000
  H   H6        1.0  0.15652  0.87514  0.81869  1.0000
  H   H7        1.0  0.2920699999999999  0.20967999999999998  0.83488  1.0000
  H   H8        1.0  0.25273  0.21115999999999996  0.70604  1.0000
  H   H9        1.0  0.17910000000000006  0.42000999999999994  0.63709  1.0000
  H   H10       1.0  0.4284800000000001  0.77992  0.30253  1.0000
  H   H11       1.0  0.9062199999999999  0.39257  0.13274  1.0000
  H   H12       1.0  0.78986  0.39964  0.70446  1.0000
  H   H13       1.0  0.4471200000000001  0.8074099999999997  0.17418  1.0000
  H   H14       1.0  0.12456  0.28519  0.19635  1.0000
  H   H15       1.0  0.13261000000000003  0.34633  0.32248  1.0000
  H   H16       1.0  0.42901000000000006  0.71678  0.71004  1.0000
  H   H17       1.0  0.92414  0.54162  0.37745  1.0000
  H   H18       1.0  0.75367  0.30008  0.29982  1.0000
  H   H19       1.0  0.3886999999999999  0.14831  0.14089  1.0000
  H   H20       1.0  0.7703500000000001  0.2565  0.17272  1.0000
  H   H21       1.0  0.2789  0.05496  0.21697  1.0000
  H   H22       1.0  0.34689  0.00484  0.34284  1.0000
  H   H23       1.0  0.90239  0.62024  0.78515  1.0000
  H   H24       1.0  0.54285  0.028679999999999997  0.389  1.0000
  H   H25       1.0  0.27720000000000006  0.44204999999999994  0.30953  1.0000
  H   H26       1.0  0.11742999999999998  0.95941  0.16104  1.0000
  H   H27       1.0  0.22518  0.47035999999999994  0.18325  1.0000
  H   H28       1.0  0.47861  0.84371  0.68776  1.0000
  H   H29       1.0  0.02298  0.15218  0.2405  1.0000
  H   H30       1.0  0.96476  0.13184999999999997  0.36444  1.0000
  H   H31       1.0  0.9959999999999998  0.90981  0.40663  1.0000
  H   H32       1.0  0.76594  0.7972  0.77663  1.0000
  H   H33       1.0  0.83222  0.43412999999999996  0.81809  1.0000
  H   H34       1.0  0.87774  0.55957  0.67538  1.0000
  H   H35       1.0  0.6514999999999999  0.48769  0.84022  1.0000
  H   H36       1.0  0.60671  0.46241999999999994  0.72397  1.0000
  H   H37       1.0  0.74491  0.9354599999999998  0.52322  1.0000
  H   H38       1.0  0.9218900000000001  0.8665399999999999  0.55892  1.0000
  H   H39       1.0  0.8956  0.80154  0.4754  1.0000
  H   H40       1.0  0.9423  0.63238  0.57215  1.0000
  H   H41       1.0  0.76898  0.69929  0.53325  1.0000
  H   H42       1.0  0.6551899999999998  0.85897  0.63439  1.0000
  H   H43       1.0  0.8239999999999997  0.82431  0.66695  1.0000
  H   H44       1.0  0.50797  0.10875999999999998  0.6763599999999999  1.0000
  H   H45       1.0  0.93385  0.13734  0.8663699999999999  1.0000
  H   H46       1.0  0.54058  0.05465  0.79861  1.0000
  H   H47       1.0  0.11074  0.15213  0.79755  1.0000
  H   H48       1.0  0.11186999999999993  0.13619  0.6659  1.0000
  O   O1        1.0  0.50734  0.25569  0.58143  1.0000
  O   O2        1.0  0.8372899999999998  0.59324  0.9152399999999999  1.0000
  O   O3        1.0  0.06532  0.63531  0.93158  1.0000
  O   O4        1.0  0.28035999999999994  0.52738  0.57891  1.0000
  O   O5        1.0  0.06847000000000006  0.8286199999999999  0.09184999999999999  1.0000
  O   O6        1.0  0.7991499999999999  0.057199999999999994  0.07935  1.0000
  O   O7        1.0  0.58522  0.08017999999999999  0.07677  1.0000
  O   O8        1.0  0.6271700000000001  0.8094799999999999  0.06705  1.0000
  O   O9        1.0  0.8162  0.59641  0.0765  1.0000
  O   O10       1.0  0.045770000000000026  0.63824  0.08107  1.0000
  O   O11       1.0  0.83384  0.8335199999999999  0.00111  1.0000
  O   O12       1.0  0.5245099999999999  0.69582  0.42405  1.0000
  O   O13       1.0  0.26059999999999994  0.73961  0.58458  1.0000
  O   O14       1.0  0.5323700000000001  0.69505  0.57383  1.0000
  O   O15       1.0  0.74485  0.50343  0.57638  1.0000
  O   O16       1.0  0.6990799999999999  0.2765  0.57195  1.0000
  O   O17       1.0  0.49886  0.25652  0.41986  1.0000
  O   O18       1.0  0.27249  0.52815  0.42914  1.0000
  O   O19       1.0  0.25211  0.7404399999999999  0.42301  1.0000
  O   O20       1.0  0.73637  0.50426  0.41481  1.0000
  O   O21       1.0  0.6912199999999998  0.27727  0.42218  1.0000
  O   O22       1.0  0.49998999999999993  0.49999  0.4999799999999999  1.0000
  O   O23       1.0  0.08957000000000002  0.82545  0.9305899999999999  1.0000
  O   O24       1.0  0.8187  0.05426  0.9298600000000001  1.0000
  O   O25       1.0  0.60631  0.07701  0.91552  1.0000
  O   O26       1.0  0.6467300000000001  0.80654  0.9175599999999999  1.0000
