data_image0
_chemical_formula_structural       C92Cr12H24O52F8OHOHOHOHF4OHOHOHOHOHOHOHOHOHOHOHOHF4
_chemical_formula_sum              "C92 Cr12 H40 O68 F16"
_cell_length_a       19.12786
_cell_length_b       10.93386
_cell_length_c       18.8107
_cell_angle_alpha    89.93094
_cell_angle_beta     90.37010000000001
_cell_angle_gamma    90.13823

_space_group_name_H-M_alt    "P 1"
_space_group_IT_number       1

loop_
  _space_group_symop_operation_xyz
  'x, y, z'

loop_
  _atom_site_type_symbol
  _atom_site_label
  _atom_site_symmetry_multiplicity
  _atom_site_fract_x
  _atom_site_fract_y
  _atom_site_fract_z
  _atom_site_occupancy
  C   C1        1.0  0.23944  0.46394  0.64818  1.0000
  C   C2        1.0  0.76036  0.46497  0.35159  1.0000
  C   C3        1.0  0.73944  0.96394  0.64818  1.0000
  C   C4        1.0  0.26036  0.9649699999999999  0.35159  1.0000
  C   C5        1.0  0.28523  0.8539600000000002  0.53618  1.0000
  C   C6        1.0  0.80799  0.8627400000000001  0.47398  1.0000
  C   C7        1.0  0.78523  0.35396  0.53618  1.0000
  C   C8        1.0  0.30799  0.36274  0.47398  1.0000
  C   C9        1.0  0.005069999999999999  0.65793  0.42611  1.0000
  C   C10       1.0  0.9932799999999999  0.67086  0.5753099999999999  1.0000
  C   C11       1.0  0.50507  0.15793  0.42611  1.0000
  C   C12       1.0  0.49328  0.17086  0.5753099999999999  1.0000
  C   C13       1.0  0.03541  0.87556  0.42192  1.0000
  C   C14       1.0  0.01075  0.89595  0.56698  1.0000
  C   C15       1.0  0.53541  0.37556  0.42192  1.0000
  C   C16       1.0  0.51075  0.39595  0.56698  1.0000
  C   C17       1.0  0.04918  0.98682  0.45642999999999995  1.0000
  C   C18       1.0  0.03581  0.9976200000000001  0.52907  1.0000
  C   C19       1.0  0.54917  0.48682  0.45642999999999995  1.0000
  C   C20       1.0  0.53581  0.49761  0.52907  1.0000
  C   C21       1.0  0.00581  0.7794100000000002  0.53496  1.0000
  C   C22       1.0  0.01439  0.77134  0.46042000000000005  1.0000
  C   C23       1.0  0.5058  0.27942  0.53496  1.0000
  C   C24       1.0  0.51439  0.27134  0.46042000000000005  1.0000
  C   C25       1.0  0.97824  0.56133  0.53921  1.0000
  C   C26       1.0  0.99946  0.55022  0.46828  1.0000
  C   C27       1.0  0.47824000000000005  0.06132  0.53921  1.0000
  C   C28       1.0  0.49945999999999996  0.05022  0.46828  1.0000
  C   C29       1.0  0.94994  0.45811  0.57438  1.0000
  C   C30       1.0  0.0109  0.4309  0.44135  1.0000
  C   C31       1.0  0.44993999999999995  0.95811  0.57438  1.0000
  C   C32       1.0  0.5109  0.9309  0.44135  1.0000
  C   C33       1.0  0.9543  0.34275  0.54364  1.0000
  C   C34       1.0  0.9861800000000001  0.32898  0.47803  1.0000
  C   C35       1.0  0.4542999999999999  0.8427599999999998  0.54364  1.0000
  C   C36       1.0  0.48618000000000006  0.82898  0.47803  1.0000
  C   C37       1.0  0.23706  0.8949400000000001  0.9294199999999999  1.0000
  C   C38       1.0  0.77647  0.84973  0.06537  1.0000
  C   C39       1.0  0.73706  0.39494  0.9294199999999999  1.0000
  C   C40       1.0  0.27647  0.34973  0.06537  1.0000
  C   C41       1.0  0.2442  0.88896  0.08861  1.0000
  C   C42       1.0  0.75729  0.88711  0.9104399999999999  1.0000
  C   C43       1.0  0.7442  0.38896  0.08861  1.0000
  C   C44       1.0  0.25729  0.38711  0.9104399999999999  1.0000
  C   C45       1.0  0.22734  0.8758999999999999  0.6487499999999999  1.0000
  C   C46       1.0  0.77304  0.8762  0.35145  1.0000
  C   C47       1.0  0.72734  0.3759  0.6487499999999999  1.0000
  C   C48       1.0  0.27304  0.3762  0.35145  1.0000
  C   C49       1.0  0.18932  0.9187600000000001  0.048119999999999996  1.0000
  C   C50       1.0  0.81585  0.9125  0.94758  1.0000
  C   C51       1.0  0.68932  0.41876  0.048119999999999996  1.0000
  C   C52       1.0  0.31585  0.4125  0.94758  1.0000
  C   C53       1.0  0.18356  0.87944  0.97491  1.0000
  C   C54       1.0  0.82882  0.87399  0.02066  1.0000
  C   C55       1.0  0.68356  0.37944  0.97491  1.0000
  C   C56       1.0  0.32882  0.37399  0.02066  1.0000
  C   C57       1.0  0.9800399999999999  0.66226  0.90979  1.0000
  C   C58       1.0  0.9638  0.6519  0.06767999999999999  1.0000
  C   C59       1.0  0.48004  0.16226  0.90979  1.0000
  C   C60       1.0  0.46379999999999993  0.1519  0.06767999999999999  1.0000
  C   C61       1.0  0.9363099999999999  0.57067  0.021469999999999996  1.0000
  C   C62       1.0  0.96034  0.562  0.94715  1.0000
  C   C63       1.0  0.43631  0.07067  0.021469999999999996  1.0000
  C   C64       1.0  0.46034  0.062  0.94715  1.0000
  C   C65       1.0  0.02695  0.65659  0.64626  1.0000
  C   C66       1.0  0.97315  0.65416  0.35386  1.0000
  C   C67       1.0  0.52695  0.15659  0.64626  1.0000
  C   C68       1.0  0.47314999999999996  0.15416  0.35386  1.0000
  C   C69       1.0  0.23994999999999997  0.46237  0.84908  1.0000
  C   C70       1.0  0.7601  0.4622899999999999  0.15104  1.0000
  C   C71       1.0  0.73995  0.96237  0.84908  1.0000
  C   C72       1.0  0.2601  0.96229  0.15104  1.0000
  C   C73       1.0  0.22516  0.8687000000000001  0.8550699999999999  1.0000
  C   C74       1.0  0.79067  0.82681  0.13971  1.0000
  C   C75       1.0  0.72516  0.3687  0.8550699999999999  1.0000
  C   C76       1.0  0.29067  0.32681  0.13971  1.0000
  C   C77       1.0  0.026300000000000004  0.65227  0.84857  1.0000
  C   C78       1.0  0.94087  0.64793  0.14102  1.0000
  C   C79       1.0  0.5263  0.15227  0.84857  1.0000
  C   C80       1.0  0.44087  0.14793  0.14102  1.0000
  C   C81       1.0  0.25218  0.9261899999999998  0.58254  1.0000
  C   C82       1.0  0.76148  0.90456  0.42523  1.0000
  C   C83       1.0  0.75218  0.42619000000000007  0.58254  1.0000
  C   C84       1.0  0.26148  0.40457  0.42523  1.0000
  C   C85       1.0  0.24730999999999997  0.8963099999999999  0.41522  1.0000
  C   C86       1.0  0.75344  0.88613  0.58684  1.0000
  C   C87       1.0  0.74731  0.39631  0.41522  1.0000
  C   C88       1.0  0.25344  0.3861299999999999  0.58684  1.0000
  C   C89       1.0  0.29688  0.90256  0.46588  1.0000
  C   C90       1.0  0.80661  0.9140200000000002  0.54464  1.0000
  C   C91       1.0  0.79688  0.40256  0.46588  1.0000
  C   C92       1.0  0.30661  0.41402  0.54464  1.0000
  Cr  Cr1       1.0  0.11397000000000002  0.50863  0.7479199999999999  1.0000
  Cr  Cr2       1.0  0.88603  0.50863  0.25208  1.0000
  Cr  Cr3       1.0  0.61397  0.00863  0.7479199999999999  1.0000
  Cr  Cr4       1.0  0.38603  0.00863  0.25208  1.0000
  Cr  Cr5       1.0  0.2692  0.66674  0.74985  1.0000
  Cr  Cr6       1.0  0.7308  0.66674  0.25015  1.0000
  Cr  Cr7       1.0  0.7692  0.16674  0.74985  1.0000
  Cr  Cr8       1.0  0.2308  0.16674  0.25015  1.0000
  Cr  Cr9       1.0  0.11230000000000001  0.82007  0.7498  1.0000
  Cr  Cr10      1.0  0.8877  0.82007  0.2502  1.0000
  Cr  Cr11      1.0  0.6123  0.32007  0.7498  1.0000
  Cr  Cr12      1.0  0.3877  0.32007  0.2502  1.0000
  H   H1        1.0  0.34375  0.9574  0.45826999999999996  1.0000
  H   H2        1.0  0.84475  0.98412  0.55817  1.0000
  H   H3        1.0  0.8437399999999999  0.4574  0.45826999999999996  1.0000
  H   H4        1.0  0.34475  0.48412  0.55817  1.0000
  H   H5        1.0  0.28794  0.9264299999999999  0.9467299999999998  1.0000
  H   H6        1.0  0.72227  0.84908  0.0483  1.0000
  H   H7        1.0  0.78794  0.42643  0.9467299999999998  1.0000
  H   H8        1.0  0.22227000000000002  0.34908  0.0483  1.0000
  H   H9        1.0  0.23632  0.018230000000000003  0.5675199999999999  1.0000
  H   H10       1.0  0.72147  0.9706700000000001  0.43912  1.0000
  H   H11       1.0  0.73632  0.51823  0.5675199999999999  1.0000
  H   H12       1.0  0.22147000000000003  0.47067  0.43912  1.0000
  H   H13       1.0  0.04706  0.86826  0.36584  1.0000
  H   H14       1.0  0.99526  0.90935  0.62156  1.0000
  H   H15       1.0  0.54706  0.36826000000000003  0.36584  1.0000
  H   H16       1.0  0.49526  0.40935  0.62156  1.0000
  H   H17       1.0  0.9342699999999999  0.26356  0.57144  1.0000
  H   H18       1.0  0.9904199999999999  0.23929  0.45489  1.0000
  H   H19       1.0  0.43426999999999993  0.76356  0.57144  1.0000
  H   H20       1.0  0.4904199999999999  0.73929  0.45489  1.0000
  H   H21       1.0  0.14994  0.98278  0.06628  1.0000
  H   H22       1.0  0.8546000000000001  0.9753899999999999  0.92649  1.0000
  H   H23       1.0  0.64994  0.48278  0.06628  1.0000
  H   H24       1.0  0.3546  0.47539  0.92649  1.0000
  O   O1        1.0  0.04323  0.5493  0.66799  1.0000
  O   O2        1.0  0.95677  0.5493  0.33201  1.0000
  O   O3        1.0  0.54323  0.0493  0.66799  1.0000
  O   O4        1.0  0.45677000000000006  0.0493  0.33201  1.0000
  O   O5        1.0  0.26292  0.7885999999999999  0.8244199999999999  1.0000
  O   O6        1.0  0.73708  0.7885999999999999  0.17558  1.0000
  O   O7        1.0  0.76292  0.2886  0.8244199999999999  1.0000
  O   O8        1.0  0.23707999999999999  0.2886  0.17558  1.0000
  O   O9        1.0  0.16753  0.9051099999999999  0.83034  1.0000
  O   O10       1.0  0.83247  0.9051099999999999  0.16966  1.0000
  O   O11       1.0  0.66753  0.4051100000000001  0.83034  1.0000
  O   O12       1.0  0.33247  0.4051100000000001  0.16966  1.0000
  O   O13       1.0  0.05401000000000001  0.74844  0.82286  1.0000
  O   O14       1.0  0.9459900000000001  0.74844  0.17714  1.0000
  O   O15       1.0  0.55401  0.24844000000000002  0.82286  1.0000
  O   O16       1.0  0.44599  0.24844000000000002  0.17714  1.0000
  O   O17       1.0  0.16516  0.66515  0.74919  1.0000
  O   O18       1.0  0.83484  0.66515  0.25081  1.0000
  O   O19       1.0  0.66516  0.16515  0.74919  1.0000
  O   O20       1.0  0.33484  0.16515  0.25081  1.0000
  O   O21       1.0  0.17862  0.4576  0.6741  1.0000
  O   O22       1.0  0.82138  0.4576  0.32589999999999997  1.0000
  O   O23       1.0  0.67862  0.9576  0.6741  1.0000
  O   O24       1.0  0.32138  0.9576  0.32589999999999997  1.0000
  O   O25       1.0  0.28468  0.5421  0.66946  1.0000
  O   O26       1.0  0.71532  0.5421  0.33054  1.0000
  O   O27       1.0  0.78468  0.0421  0.66946  1.0000
  O   O28       1.0  0.21532000000000004  0.0421  0.33054  1.0000
  O   O29       1.0  0.26286  0.79039  0.67665  1.0000
  O   O30       1.0  0.73714  0.79039  0.32334999999999997  1.0000
  O   O31       1.0  0.76286  0.29039  0.67665  1.0000
  O   O32       1.0  0.23714  0.29039  0.32334999999999997  1.0000
  O   O33       1.0  0.16746  0.90703  0.67094  1.0000
  O   O34       1.0  0.83254  0.90703  0.32906  1.0000
  O   O35       1.0  0.66746  0.40703000000000006  0.67094  1.0000
  O   O36       1.0  0.33254  0.40703000000000006  0.32906  1.0000
  O   O37       1.0  0.053950000000000005  0.75022  0.6751  1.0000
  O   O38       1.0  0.94605  0.75022  0.3249  1.0000
  O   O39       1.0  0.55395  0.25022  0.6751  1.0000
  O   O40       1.0  0.44605  0.25022  0.3249  1.0000
  O   O41       1.0  0.0433  0.54737  0.82739  1.0000
  O   O42       1.0  0.9567  0.54737  0.17261  1.0000
  O   O43       1.0  0.5433  0.04737  0.82739  1.0000
  O   O44       1.0  0.4567  0.04737  0.17261  1.0000
  O   O45       1.0  0.17869  0.45582  0.82186  1.0000
  O   O46       1.0  0.82131  0.45582  0.17814  1.0000
  O   O47       1.0  0.67869  0.95582  0.82186  1.0000
  O   O48       1.0  0.32131  0.95582  0.17814  1.0000
  O   O49       1.0  0.28475  0.54017  0.82886  1.0000
  O   O50       1.0  0.71525  0.54017  0.17114  1.0000
  O   O51       1.0  0.78475  0.04017  0.82886  1.0000
  O   O52       1.0  0.21524999999999997  0.04017  0.17114  1.0000
  F   F1        1.0  0.11946  0.8414800000000001  0.95207  1.0000
  F   F2        1.0  0.89541  0.88514  0.0456  1.0000
  F   F3        1.0  0.61946  0.34148  0.95207  1.0000
  F   F4        1.0  0.39541  0.38514000000000004  0.0456  1.0000
  F   F5        1.0  0.28919  0.79947  0.06825  1.0000
  F   F6        1.0  0.71162  0.79827  0.93072  1.0000
  F   F7        1.0  0.78919  0.29947  0.06825  1.0000
  F   F8        1.0  0.21162  0.29827  0.93072  1.0000
  O   O53       1.0  0.8894400000000001  0.48529  0.04707  1.0000
  H   H25       1.0  0.88414  0.41880999999999996  0.01196  1.0000
  O   O54       1.0  0.9639299999999998  0.44563  0.9187399999999999  1.0000
  H   H26       1.0  0.9416399999999999  0.44879  0.87098  1.0000
  O   O55       1.0  0.38944  0.98529  0.04707  1.0000
  H   H27       1.0  0.38414  0.91881  0.01196  1.0000
  O   O56       1.0  0.46393  0.94563  0.9187399999999999  1.0000
  H   H28       1.0  0.44164  0.94879  0.87098  1.0000
  F   F9        1.0  0.01674  0.72937  0.05006  1.0000
  F   F10       1.0  0.9629200000000001  0.77655  0.93203  1.0000
  F   F11       1.0  0.51674  0.22937  0.05006  1.0000
  F   F12       1.0  0.46292  0.27655  0.93203  1.0000
  O   O57       1.0  0.29793  0.7317900000000002  0.55037  1.0000
  H   H29       1.0  0.31922  0.69471  0.50755  1.0000
  O   O58       1.0  0.8568199999999999  0.7727999999999999  0.46072  1.0000
  H   H30       1.0  0.8400600000000001  0.72057  0.42112  1.0000
  O   O59       1.0  0.79793  0.23179  0.55037  1.0000
  H   H31       1.0  0.81922  0.19471  0.50755  1.0000
  O   O60       1.0  0.35682  0.27281  0.46072  1.0000
  H   H32       1.0  0.34006  0.22057  0.42112  1.0000
  O   O61       1.0  0.18477  0.83344  0.4213  1.0000
  H   H33       1.0  0.18471  0.78269  0.46488  1.0000
  O   O62       1.0  0.70826  0.7922899999999999  0.56725  1.0000
  H   H34       1.0  0.67463  0.77705  0.60609  1.0000
  O   O63       1.0  0.68477  0.33344  0.4213  1.0000
  H   H35       1.0  0.68471  0.28269  0.46488  1.0000
  O   O64       1.0  0.20826  0.29229  0.56725  1.0000
  H   H36       1.0  0.17463  0.27705  0.60609  1.0000
  O   O65       1.0  0.07717  0.08546  0.42062  1.0000
  H   H37       1.0  0.08077  0.06503  0.36944  1.0000
  O   O66       1.0  0.04925  0.10779000000000001  0.56218  1.0000
  H   H38       1.0  0.03851  0.10012  0.6135  1.0000
  O   O67       1.0  0.57717  0.58546  0.42062  1.0000
  H   H39       1.0  0.58078  0.56503  0.36944  1.0000
  O   O68       1.0  0.54925  0.60779  0.56218  1.0000
  H   H40       1.0  0.53851  0.60012  0.6135  1.0000
  F   F13       1.0  0.04829  0.41242  0.38114  1.0000
  F   F14       1.0  0.9179199999999998  0.46934000000000003  0.63831  1.0000
  F   F15       1.0  0.54829  0.9124200000000001  0.38114  1.0000
  F   F16       1.0  0.41792  0.96934  0.63831  1.0000
