data_image0
_chemical_formula_structural       O2CO2CO2CO2CO2CO2CCr3OCH2CH3C3H2C3H3C8H6C8H5C8H6C8H6C8H6O2CO2CO2CO2CO2CO2CCr3OClNO2Cl
_chemical_formula_sum              "O28 C60 Cr6 H39 Cl2 N1"
_cell_length_a       10.92185
_cell_length_b       11.01414
_cell_length_c       18.824569999999998
_cell_angle_alpha    90.06693
_cell_angle_beta     89.96219
_cell_angle_gamma    60.40043000000001

_space_group_name_H-M_alt    "P 1"
_space_group_IT_number       1

loop_
  _space_group_symop_operation_xyz
  'x, y, z'

loop_
  _atom_site_type_symbol
  _atom_site_label
  _atom_site_symmetry_multiplicity
  _atom_site_fract_x
  _atom_site_fract_y
  _atom_site_fract_z
  _atom_site_occupancy
  O   O1        1.0  0.50738  0.2557  0.58144  1.0000
  O   O2        1.0  0.28031999999999996  0.52735  0.57893  1.0000
  C   C1        1.0  0.23730999999999997  0.64581  0.6094200000000001  1.0000
  O   O3        1.0  0.2605099999999999  0.73959  0.58459  1.0000
  O   O4        1.0  0.5323  0.69508  0.57382  1.0000
  C   C2        1.0  0.65584  0.62363  0.59989  1.0000
  O   O5        1.0  0.74484  0.5035  0.5763700000000002  1.0000
  O   O6        1.0  0.6991200000000001  0.27656  0.57196  1.0000
  C   C3        1.0  0.6314100000000002  0.22294000000000003  0.60108  1.0000
  O   O7        1.0  0.49894  0.2565  0.41986  1.0000
  O   O8        1.0  0.2725000000000001  0.52808  0.42915000000000003  1.0000
  C   C4        1.0  0.22314999999999996  0.64874  0.40098  1.0000
  O   O9        1.0  0.25206  0.74038  0.4230100000000001  1.0000
  O   O10       1.0  0.52448  0.69581  0.42404  1.0000
  C   C5        1.0  0.6447200000000001  0.62447  0.39356  1.0000
  O   O11       1.0  0.73639  0.50429  0.41479  1.0000
  O   O12       1.0  0.6913  0.27729  0.42217  1.0000
  C   C6        1.0  0.61811  0.22639000000000004  0.39598000000000005  1.0000
  Cr  Cr1       1.0  0.39296  0.39792  0.50224  1.0000
  Cr  Cr2       1.0  0.39834  0.70848  0.50125  1.0000
  Cr  Cr3       1.0  0.7086699999999999  0.39357  0.49646  1.0000
  O   O13       1.0  0.49998999999999993  0.49999  0.49998000000000004  1.0000
  C   C7        1.0  0.6209  0.82252  0.7753400000000001  1.0000
  H   H1        1.0  0.69022  0.86917  0.77899  1.0000
  H   H2        1.0  0.5209400000000001  0.89194  0.8039  1.0000
  C   C8        1.0  0.59224  0.80883  0.6959400000000001  1.0000
  H   H3        1.0  0.6323199999999999  0.8652799999999999  0.66283  1.0000
  H   H4        1.0  0.90803  0.64701  0.7893700000000002  1.0000
  H   H5        1.0  0.86059  0.67513  0.67288  1.0000
  C   C9        1.0  0.84641  0.59559  0.77512  1.0000
  C   C10       1.0  0.6171199999999999  0.60081  0.80061  1.0000
  C   C11       1.0  0.70055  0.67694  0.81161  1.0000
  H   H6        1.0  0.6672099999999997  0.50046  0.82997  1.0000
  H   H7        1.0  0.50854  0.66533  0.82211  1.0000
  C   C12       1.0  0.67346  0.65041  0.67519  1.0000
  C   C13       1.0  0.83232  0.59801  0.69447  1.0000
  C   C14       1.0  0.6106  0.57536  0.7209100000000002  1.0000
  H   H8        1.0  0.49900999999999995  0.61255  0.70607  1.0000
  H   H9        1.0  0.66577  0.46238  0.71083  1.0000
  H   H10       1.0  0.90332  0.48604  0.79502  1.0000
  C   C15       1.0  0.69861  0.12523  0.8169300000000003  1.0000
  C   C16       1.0  0.81548  0.10508  0.7767  1.0000
  C   C17       1.0  0.80747  0.11398999999999998  0.70256  1.0000
  C   C18       1.0  0.583  0.126  0.7059600000000001  1.0000
  C   C19       1.0  0.58513  0.12868  0.77921  1.0000
  C   C20       1.0  0.8986300000000002  0.17973  0.77912  1.0000
  C   C21       1.0  0.8973999999999999  0.17983  0.69841  1.0000
  C   C22       1.0  0.68238  0.14282  0.66716  1.0000
  H   H11       1.0  0.49116  0.13155  0.6809000000000001  1.0000
  H   H12       1.0  0.49669  0.12987  0.8058700000000001  1.0000
  H   H13       1.0  0.005420000000000005  0.11689  0.80164  1.0000
  H   H14       1.0  0.83845  0.28539  0.80256  1.0000
  H   H15       1.0  0.84358  0.28309  0.6736  1.0000
  H   H16       1.0  0.001859999999999982  0.10941000000000002  0.67461  1.0000
  C   C23       1.0  0.15384  0.68744  0.83004  1.0000
  C   C24       1.0  0.16226000000000002  0.57317  0.79384  1.0000
  C   C25       1.0  0.1814  0.56114  0.72094  1.0000
  C   C26       1.0  0.15275  0.79165  0.7165900000000001  1.0000
  C   C27       1.0  0.14562000000000003  0.79863  0.79014  1.0000
  C   C28       1.0  0.26036  0.4224399999999999  0.80611  1.0000
  C   C29       1.0  0.29  0.41055  0.72646  1.0000
  C   C30       1.0  0.18019  0.66853  0.6810400000000001  1.0000
  H   H17       1.0  0.1500899999999999  0.8780700000000001  0.6883500000000001  1.0000
  H   H18       1.0  0.13490999999999995  0.8908600000000001  0.8158400000000001  1.0000
  H   H19       1.0  0.20502  0.36627  0.82455  1.0000
  H   H20       1.0  0.3951899999999999  0.39467  0.71146  1.0000
  H   H21       1.0  0.25791  0.34155  0.69893  1.0000
  C   C31       1.0  0.67926  0.68697  0.17614  1.0000
  C   C32       1.0  0.7886299999999999  0.57776  0.21293999999999996  1.0000
  C   C33       1.0  0.78683  0.56761  0.28514  1.0000
  C   C34       1.0  0.57495  0.79056  0.29063  1.0000
  C   C35       1.0  0.5779  0.80066  0.21604  1.0000
  C   C36       1.0  0.8551199999999999  0.42437  0.20121  1.0000
  C   C37       1.0  0.85258  0.41189  0.28098  1.0000
  C   C38       1.0  0.6724399999999999  0.66629  0.3247  1.0000
  H   H22       1.0  0.4934899999999998  0.8753500000000001  0.32089  1.0000
  H   H23       1.0  0.50021  0.89433  0.1898  1.0000
  H   H24       1.0  0.96336  0.37845  0.17911  1.0000
  H   H25       1.0  0.7842500000000001  0.39467  0.1731  1.0000
  H   H26       1.0  0.77848  0.37684  0.29871000000000003  1.0000
  H   H27       1.0  0.95924  0.35691  0.30522  1.0000
  C   C39       1.0  0.66261  0.13686  0.18009  1.0000
  C   C40       1.0  0.56086  0.12394  0.2184  1.0000
  C   C41       1.0  0.55654  0.13293  0.29119000000000006  1.0000
  C   C42       1.0  0.77416  0.13884  0.29158000000000006  1.0000
  C   C43       1.0  0.77535  0.13481  0.21754000000000004  1.0000
  C   C44       1.0  0.40481  0.20356  0.2107  1.0000
  C   C45       1.0  0.39852  0.21313  0.29086000000000006  1.0000
  C   C46       1.0  0.6557499999999999  0.15455  0.32829  1.0000
  H   H28       1.0  0.85759  0.14539  0.31916  1.0000
  H   H29       1.0  0.86196  0.13446  0.18963  1.0000
  H   H30       1.0  0.36103  0.13925  0.18891  1.0000
  H   H31       1.0  0.36736  0.30594  0.18407000000000004  1.0000
  H   H32       1.0  0.35539  0.32161  0.31017  1.0000
  H   H33       1.0  0.35182  0.1536  0.31551  1.0000
  C   C47       1.0  0.15731999999999996  0.66412  0.18071000000000004  1.0000
  C   C48       1.0  0.22094000000000003  0.73306  0.21292000000000003  1.0000
  C   C49       1.0  0.23062999999999997  0.73308  0.28504  1.0000
  C   C50       1.0  0.13789999999999997  0.57595  0.29589  1.0000
  C   C51       1.0  0.12612999999999996  0.57608  0.22203999999999996  1.0000
  C   C52       1.0  0.19112000000000007  0.88169  0.20883  1.0000
  C   C53       1.0  0.19767  0.8812899999999999  0.28881000000000007  1.0000
  C   C54       1.0  0.18212  0.66267  0.32784  1.0000
  H   H34       1.0  0.10992  0.51138  0.32772000000000007  1.0000
  H   H35       1.0  0.08134999999999998  0.51737  0.19827  1.0000
  H   H36       1.0  0.08490999999999992  0.9574500000000001  0.18939  1.0000
  H   H37       1.0  0.27824  0.88979  0.18301  1.0000
  H   H38       1.0  0.28559999999999997  0.89265  0.30996  1.0000
  H   H39       1.0  0.09427999999999989  0.9499800000000002  0.31441  1.0000
  O   O14       1.0  0.08940000000000003  0.82569  0.9305700000000001  1.0000
  O   O15       1.0  0.81846  0.054439999999999995  0.9298500000000001  1.0000
  C   C55       1.0  0.70557  0.09405  0.89337  1.0000
  O   O16       1.0  0.60606  0.07715  0.9155099999999999  1.0000
  O   O17       1.0  0.6465500000000001  0.80668  0.9175700000000001  1.0000
  C   C56       1.0  0.72335  0.68876  0.8881500000000001  1.0000
  O   O18       1.0  0.83717  0.59341  0.91525  1.0000
  O   O19       1.0  0.0652  0.63553  0.9315700000000001  1.0000
  C   C57       1.0  0.11222999999999997  0.71059  0.9041400000000002  1.0000
  O   O20       1.0  0.06826000000000004  0.82889  0.09184  1.0000
  O   O21       1.0  0.7988699999999999  0.05741  0.07934  1.0000
  C   C58       1.0  0.67695  0.10302  0.10533  1.0000
  O   O22       1.0  0.58493  0.08035  0.07678  1.0000
  O   O23       1.0  0.62696  0.80965  0.06706000000000001  1.0000
  C   C59       1.0  0.70117  0.69468  0.10041  1.0000
  O   O24       1.0  0.81604  0.59661  0.07651  1.0000
  O   O25       1.0  0.04561  0.6385  0.08106  1.0000
  C   C60       1.0  0.09324000000000002  0.70928  0.11227  1.0000
  Cr  Cr4       1.0  0.9376499999999999  0.93854  0.00761  1.0000
  Cr  Cr5       1.0  0.6253299999999998  0.93737  0.9945200000000001  1.0000
  Cr  Cr6       1.0  0.9379399999999998  0.62523  0.0011900000000000003  1.0000
  O   O26       1.0  0.8336399999999998  0.83371  0.0011  1.0000
  Cl  Cl1       1.0  0.9691799999999999  0.43437  0.66041  1.0000
  N   N1        1.0  0.3782700000000001  0.39982  0.8515600000000001  1.0000
  O   O27       1.0  0.46545999999999993  0.44175  0.8321  1.0000
  O   O28       1.0  0.38166  0.35943  0.91676  1.0000
  Cl  Cl2       1.0  0.4049100000000001  0.8963299999999998  0.68198  1.0000
