data_image0
_chemical_formula_structural       O2CO2CO2CO2CO2CO2CCr3OCH2CHC3HC3H3C4H3C4H2C4H2C4H2C4H2O2CO2CO2CO2CO2CO2CCr3OF5NO2NO2F2NO2NO2FNO2NO2
_chemical_formula_sum              "O38 C40 Cr6 H18 F8 N6"
_cell_length_a       10.93909
_cell_length_b       11.0027
_cell_length_c       18.61756
_cell_angle_alpha    90.39209
_cell_angle_beta     90.18668
_cell_angle_gamma    59.83808

_space_group_name_H-M_alt    "P 1"
_space_group_IT_number       1

loop_
  _space_group_symop_operation_xyz
  'x, y, z'

loop_
  _atom_site_type_symbol
  _atom_site_label
  _atom_site_symmetry_multiplicity
  _atom_site_fract_x
  _atom_site_fract_y
  _atom_site_fract_z
  _atom_site_occupancy
  O   O1        1.0  0.50711  0.25628  0.5803  1.0000
  O   O2        1.0  0.28083  0.52719  0.5779400000000001  1.0000
  C   C1        1.0  0.23129  0.64802  0.6067800000000001  1.0000
  O   O3        1.0  0.26136  0.73899  0.58427  1.0000
  O   O4        1.0  0.53259  0.6947799999999998  0.57437  1.0000
  C   C2        1.0  0.6267100000000001  0.58542  0.6093600000000002  1.0000
  O   O5        1.0  0.74447  0.50375  0.577  1.0000
  O   O6        1.0  0.69852  0.27723  0.5716200000000001  1.0000
  C   C3        1.0  0.62928  0.22579  0.60122  1.0000
  O   O7        1.0  0.49853000000000003  0.25692  0.4192800000000001  1.0000
  O   O8        1.0  0.27288  0.52778  0.42868000000000006  1.0000
  C   C4        1.0  0.21719000000000005  0.65157  0.40289  1.0000
  O   O9        1.0  0.25278  0.73963  0.42325  1.0000
  O   O10       1.0  0.52464  0.69537  0.4251  1.0000
  C   C5        1.0  0.6121300000000001  0.5840499999999998  0.38822  1.0000
  O   O11       1.0  0.73589  0.50439  0.41598  1.0000
  O   O12       1.0  0.6905600000000001  0.27781999999999996  0.42235  1.0000
  C   C6        1.0  0.6153699999999998  0.23109999999999997  0.3939900000000001  1.0000
  Cr  Cr1       1.0  0.39301  0.39804999999999996  0.50148  1.0000
  Cr  Cr2       1.0  0.39882  0.70798  0.50163  1.0000
  Cr  Cr3       1.0  0.70814  0.39394  0.49685000000000007  1.0000
  O   O13       1.0  0.49998999999999993  0.49999  0.49998  1.0000
  C   C7        1.0  0.5273400000000003  0.73088  0.80276  1.0000
  H   H1        1.0  0.4777500000000001  0.8468899999999999  0.8091000000000002  1.0000
  H   H2        1.0  0.4742100000000002  0.6988399999999999  0.84267  1.0000
  C   C8        1.0  0.5030199999999999  0.69624  0.7254500000000003  1.0000
  H   H3        1.0  0.6896100000000001  0.84422  0.77347  1.0000
  C   C9        1.0  0.74793  0.7279099999999997  0.76622  1.0000
  C   C10       1.0  0.76359  0.49772  0.8019000000000001  1.0000
  C   C11       1.0  0.68782  0.65974  0.8175400000000003  1.0000
  H   H4        1.0  0.8799100000000001  0.45577999999999996  0.8054600000000002  1.0000
  C   C12       1.0  0.64782  0.61287  0.68457  1.0000
  C   C13       1.0  0.7374699999999998  0.68822  0.68808  1.0000
  C   C14       1.0  0.73343  0.46974  0.7247900000000003  1.0000
  H   H5        1.0  0.6725499999999999  0.41393  0.7250300000000002  1.0000
  H   H6        1.0  0.8606300000000001  0.6912199999999998  0.77916  1.0000
  H   H7        1.0  0.84732  0.61063  0.6708100000000002  1.0000
  C   C15       1.0  0.67626  0.14987  0.6688200000000001  1.0000
  C   C16       1.0  0.69365  0.15789  0.82598  1.0000
  C   C17       1.0  0.80644  0.10288  0.7817600000000002  1.0000
  C   C18       1.0  0.7897499999999998  0.13460999999999998  0.7044400000000001  1.0000
  H   H8        1.0  0.91185  0.031129999999999998  0.80192  1.0000
  H   H9        1.0  0.8679600000000001  0.15143  0.6777800000000003  1.0000
  H   H10       1.0  0.58859  0.23211  0.80639  1.0000
  C   C19       1.0  0.16029  0.67137  0.67555  1.0000
  C   C20       1.0  0.18170000000000003  0.66954  0.8366300000000002  1.0000
  C   C21       1.0  0.16698  0.57676  0.79559  1.0000
  C   C22       1.0  0.1991400000000001  0.5607099999999999  0.7190400000000001  1.0000
  H   H11       1.0  0.13067  0.50972  0.8183000000000001  1.0000
  H   H12       1.0  0.26414  0.45369999999999994  0.69937  1.0000
  C   C23       1.0  0.6053  0.59913  0.3101000000000001  1.0000
  C   C24       1.0  0.63519  0.6598899999999998  0.15895  1.0000
  C   C25       1.0  0.70172  0.53038  0.18768000000000007  1.0000
  C   C26       1.0  0.70929  0.50873  0.26571  1.0000
  H   H13       1.0  0.5604100000000001  0.7513799999999998  0.18956  1.0000
  H   H14       1.0  0.50733  0.6837  0.28847  1.0000
  C   C27       1.0  0.63072  0.19611  0.31868  1.0000
  C   C28       1.0  0.6368200000000002  0.20696999999999993  0.16244000000000006  1.0000
  C   C29       1.0  0.517  0.25198  0.19962  1.0000
  C   C30       1.0  0.5184  0.27716  0.27643000000000006  1.0000
  H   H15       1.0  0.42051000000000005  0.36066  0.29948  1.0000
  H   H16       1.0  0.7294099999999999  0.10995999999999999  0.29828  1.0000
  C   C31       1.0  0.12911000000000003  0.6842899999999998  0.33918  1.0000
  C   C32       1.0  0.9990500000000001  0.74976  0.19516  1.0000
  C   C33       1.0  0.014279999999999985  0.84064  0.23786000000000002  1.0000
  C   C34       1.0  0.046959999999999995  0.8169999999999998  0.31513  1.0000
  H   H17       1.0  0.022070000000000017  0.9266  0.21433000000000005  1.0000
  H   H18       1.0  0.1531800000000001  0.5942499999999998  0.30549  1.0000
  O   O14       1.0  0.08919000000000006  0.82587  0.93232  1.0000
  O   O15       1.0  0.81907  0.05396  0.9314400000000002  1.0000
  C   C35       1.0  0.70411  0.09986  0.8969900000000001  1.0000
  O   O16       1.0  0.60707  0.07644  0.91646  1.0000
  O   O17       1.0  0.6471100000000001  0.8065499999999999  0.91769  1.0000
  C   C36       1.0  0.7186299999999999  0.6842499999999999  0.8909600000000001  1.0000
  O   O18       1.0  0.8370800000000002  0.5938599999999999  0.9153  1.0000
  O   O19       1.0  0.06476999999999998  0.63608  0.9325500000000001  1.0000
  C   C37       1.0  0.11637000000000003  0.70764  0.9068400000000001  1.0000
  O   O20       1.0  0.06824999999999998  0.8292  0.09294000000000002  1.0000
  O   O21       1.0  0.79965  0.057039999999999993  0.08033  1.0000
  C   C38       1.0  0.6721399999999998  0.11575  0.10067  1.0000
  O   O22       1.0  0.58613  0.07975999999999998  0.07708  1.0000
  O   O23       1.0  0.6277000000000003  0.8096299999999997  0.06658  1.0000
  C   C39       1.0  0.6917299999999998  0.68751  0.09420000000000003  1.0000
  O   O24       1.0  0.8161400000000001  0.59718  0.07592  1.0000
  O   O25       1.0  0.04536000000000003  0.63917  0.08144  1.0000
  C   C40       1.0  0.015469999999999963  0.75377  0.11715000000000002  1.0000
  Cr  Cr4       1.0  0.9379500000000001  0.93845  0.00894  1.0000
  Cr  Cr5       1.0  0.62618  0.93703  0.9947500000000001  1.0000
  Cr  Cr6       1.0  0.9377900000000001  0.62576  0.0014100000000000002  1.0000
  O   O26       1.0  0.83398  0.83375  0.0017  1.0000
  F   F1        1.0  0.86178  0.3810999999999999  0.6914400000000002  1.0000
  F   F2        1.0  0.58688  0.1146  0.70081  1.0000
  F   F3        1.0  0.23054000000000002  0.75102  0.80902  1.0000
  F   F4        1.0  0.07219  0.80555  0.69834  1.0000
  F   F5        1.0  0.79331  0.41799  0.1469  1.0000
  N   N1        1.0  0.8390400000000001  0.39476999999999995  0.29313  1.0000
  O   O27       1.0  0.9424599999999999  0.4147599999999999  0.31135  1.0000
  O   O28       1.0  0.85232  0.27213  0.3025200000000001  1.0000
  N   N2        1.0  0.38809  0.27351  0.16699000000000006  1.0000
  O   O29       1.0  0.35112999999999994  0.33026  0.1037  1.0000
  O   O30       1.0  0.29691  0.25856  0.20506  1.0000
  F   F6        1.0  0.7441799999999998  0.22047  0.19034000000000006  1.0000
  F   F7        1.0  0.44157  0.6130199999999999  0.72799  1.0000
  N   N3        1.0  0.01796999999999999  0.9357  0.35951  1.0000
  O   O31       1.0  0.95791  0.95236  0.4218500000000001  1.0000
  O   O32       1.0  0.0671  0.017  0.34148000000000006  1.0000
  N   N4        1.0  0.9550100000000002  0.6568499999999998  0.22416000000000003  1.0000
  O   O33       1.0  0.8607700000000003  0.70038  0.2750700000000001  1.0000
  O   O34       1.0  0.004830000000000075  0.5307199999999999  0.19806000000000004  1.0000
  F   F8        1.0  0.4079  0.81982  0.6916000000000002  1.0000
  N   N5        1.0  0.6865100000000002  0.80954  0.6401100000000001  1.0000
  O   O35       1.0  0.55857  0.9156199999999999  0.64513  1.0000
  O   O36       1.0  0.7702100000000001  0.81109  0.59108  1.0000
  N   N6        1.0  0.72693  0.42283  0.8548300000000002  1.0000
  O   O37       1.0  0.82473  0.33025  0.8964600000000001  1.0000
  O   O38       1.0  0.59715  0.45106  0.86288  1.0000
