data_image0
_chemical_formula_structural       O8C4O8C4O8C4O8C4O8C4O8C4Cr12O4H4C20H8C16H16C8H4C16H16NO2NO2NO2NO2
_chemical_formula_sum              "O60 C84 Cr12 H48 N4"
_cell_length_a       19.03079
_cell_length_b       10.95783
_cell_length_c       18.79144
_cell_angle_alpha    89.84449
_cell_angle_beta     90.14641
_cell_angle_gamma    90.00951

_space_group_name_H-M_alt    "P 1"
_space_group_IT_number       1

loop_
  _space_group_symop_operation_xyz
  'x, y, z'

loop_
  _atom_site_type_symbol
  _atom_site_label
  _atom_site_symmetry_multiplicity
  _atom_site_fract_x
  _atom_site_fract_y
  _atom_site_fract_z
  _atom_site_occupancy
  O   O1        1.0  0.21509  0.7098600000000002  0.82813  1.0000
  O   O2        1.0  0.78491  0.7098600000000002  0.17187  1.0000
  O   O3        1.0  0.71509  0.20986  0.82813  1.0000
  O   O4        1.0  0.28491  0.20986  0.17187  1.0000
  O   O5        1.0  0.23699  0.95839  0.82371  1.0000
  O   O6        1.0  0.76301  0.95839  0.17629  1.0000
  O   O7        1.0  0.73699  0.4583900000000001  0.82371  1.0000
  O   O8        1.0  0.26301  0.4583900000000001  0.17629  1.0000
  C   C1        1.0  0.27257  0.042170000000000006  0.8535699999999999  1.0000
  C   C2        1.0  0.72742  0.042380000000000015  0.14644  1.0000
  C   C3        1.0  0.77257  0.54219  0.85356  1.0000
  C   C4        1.0  0.22741999999999998  0.54237  0.14644  1.0000
  O   O9        1.0  0.33237999999999995  0.07475  0.83085  1.0000
  O   O10       1.0  0.6676199999999999  0.07475  0.16915  1.0000
  O   O11       1.0  0.83238  0.5747500000000001  0.83085  1.0000
  O   O12       1.0  0.16761999999999994  0.5747500000000001  0.16915  1.0000
  O   O13       1.0  0.4458  0.9177700000000002  0.82507  1.0000
  O   O14       1.0  0.5542  0.9177700000000002  0.17493  1.0000
  O   O15       1.0  0.9458  0.41777000000000003  0.82507  1.0000
  O   O16       1.0  0.0542  0.41777000000000003  0.17493  1.0000
  C   C5        1.0  0.47139  0.8219400000000002  0.8533  1.0000
  C   C6        1.0  0.52811  0.8225600000000001  0.14707  1.0000
  C   C7        1.0  0.97136  0.32194  0.85332  1.0000
  C   C8        1.0  0.02808  0.32256000000000007  0.14709  1.0000
  O   O17       1.0  0.45641  0.71658  0.82997  1.0000
  O   O18       1.0  0.54359  0.71658  0.17003  1.0000
  O   O19       1.0  0.9564099999999999  0.21658000000000002  0.82997  1.0000
  O   O20       1.0  0.04358999999999999  0.21658000000000002  0.17003  1.0000
  O   O21       1.0  0.32108  0.6252900000000001  0.82265  1.0000
  O   O22       1.0  0.67892  0.6252900000000001  0.17735  1.0000
  O   O23       1.0  0.8210799999999999  0.12529000000000004  0.82265  1.0000
  O   O24       1.0  0.17891999999999994  0.12529000000000004  0.17735  1.0000
  C   C9        1.0  0.26103  0.6360900000000002  0.85145  1.0000
  C   C10       1.0  0.73896  0.63631  0.14853  1.0000
  C   C11       1.0  0.76103  0.13608  0.85145  1.0000
  C   C12       1.0  0.23896  0.1363  0.14853  1.0000
  O   O25       1.0  0.21492999999999998  0.7114500000000001  0.66816  1.0000
  O   O26       1.0  0.78507  0.7114500000000001  0.33184  1.0000
  O   O27       1.0  0.71493  0.21145000000000005  0.66816  1.0000
  O   O28       1.0  0.28507  0.21145000000000005  0.33184  1.0000
  O   O29       1.0  0.23685  0.9598700000000002  0.67542  1.0000
  O   O30       1.0  0.76315  0.9598700000000002  0.32458  1.0000
  O   O31       1.0  0.73685  0.4598700000000001  0.67542  1.0000
  O   O32       1.0  0.26315  0.4598700000000001  0.32458  1.0000
  C   C13       1.0  0.27392  0.042370000000000005  0.64623  1.0000
  C   C14       1.0  0.72596  0.04191000000000001  0.3539  1.0000
  C   C15       1.0  0.7740399999999998  0.54212  0.6461  1.0000
  C   C16       1.0  0.22896  0.54823  0.35035  1.0000
  O   O33       1.0  0.33222999999999997  0.07635  0.67088  1.0000
  O   O34       1.0  0.66777  0.07635  0.32912  1.0000
  O   O35       1.0  0.8322299999999999  0.5763500000000001  0.67088  1.0000
  O   O36       1.0  0.16776999999999995  0.5763500000000001  0.32912  1.0000
  O   O37       1.0  0.44565999999999995  0.91925  0.67678  1.0000
  O   O38       1.0  0.55434  0.91925  0.32322  1.0000
  O   O39       1.0  0.94566  0.41925000000000007  0.67678  1.0000
  O   O40       1.0  0.054339999999999986  0.41925000000000007  0.32322  1.0000
  C   C17       1.0  0.47365999999999997  0.82474  0.65048  1.0000
  C   C18       1.0  0.5314  0.82269  0.3539  1.0000
  C   C19       1.0  0.96854  0.32289000000000007  0.64605  1.0000
  C   C20       1.0  0.026209999999999994  0.32453  0.34939  1.0000
  O   O41       1.0  0.45626  0.71817  0.67  1.0000
  O   O42       1.0  0.5437399999999998  0.71817  0.33  1.0000
  O   O43       1.0  0.9562599999999999  0.21817000000000006  0.67  1.0000
  O   O44       1.0  0.04374  0.21817000000000006  0.33  1.0000
  O   O45       1.0  0.32094  0.62676  0.67437  1.0000
  O   O46       1.0  0.67906  0.62676  0.32563  1.0000
  O   O47       1.0  0.82094  0.12676  0.67437  1.0000
  O   O48       1.0  0.17905999999999997  0.12676  0.32563  1.0000
  C   C21       1.0  0.26174  0.64227  0.64384  1.0000
  C   C22       1.0  0.74008  0.634  0.35259  1.0000
  C   C23       1.0  0.7599299999999999  0.13421  0.64742  1.0000
  C   C24       1.0  0.23999999999999996  0.13403000000000004  0.35263  1.0000
  Cr  Cr1       1.0  0.23052999999999998  0.83634  0.74887  1.0000
  Cr  Cr2       1.0  0.7694699999999999  0.83634  0.25113  1.0000
  Cr  Cr3       1.0  0.73053  0.33634000000000003  0.74887  1.0000
  Cr  Cr4       1.0  0.26947  0.33634000000000003  0.25113  1.0000
  Cr  Cr5       1.0  0.38741999999999993  0.98943  0.75082  1.0000
  Cr  Cr6       1.0  0.6125799999999998  0.98943  0.24918000000000004  1.0000
  Cr  Cr7       1.0  0.8874199999999999  0.4894300000000001  0.75082  1.0000
  Cr  Cr8       1.0  0.11257999999999999  0.4894300000000001  0.24918000000000004  1.0000
  Cr  Cr9       1.0  0.38564  0.67786  0.74923  1.0000
  Cr  Cr10      1.0  0.6143599999999998  0.67786  0.25077  1.0000
  Cr  Cr11      1.0  0.8856399999999999  0.17786  0.74923  1.0000
  Cr  Cr12      1.0  0.11435999999999999  0.17786  0.25077  1.0000
  O   O49       1.0  0.33452999999999994  0.8345400000000002  0.74964  1.0000
  O   O50       1.0  0.6654699999999999  0.8345400000000002  0.25036  1.0000
  O   O51       1.0  0.83453  0.33454000000000006  0.74964  1.0000
  O   O52       1.0  0.16547  0.33454000000000006  0.25036  1.0000
  H   H1        1.0  0.49049  0.6321800000000001  0.93988  1.0000
  H   H2        1.0  0.49245999999999995  0.6347  0.06529  1.0000
  H   H3        1.0  0.9903  0.13219  0.9399500000000001  1.0000
  H   H4        1.0  0.9922799999999999  0.13471  0.06536  1.0000
  C   C25       1.0  0.49896  0.8320400000000001  0.07514  1.0000
  C   C26       1.0  0.49810999999999994  0.8292600000000002  0.92619  1.0000
  C   C27       1.0  0.9988499999999999  0.33204  0.0752  1.0000
  C   C28       1.0  0.9979899999999999  0.32927000000000006  0.9262600000000001  1.0000
  C   C29       1.0  0.49837999999999993  0.94443  0.03717  1.0000
  C   C30       1.0  0.50494  0.94232  0.96215  1.0000
  C   C31       1.0  0.99824  0.4444200000000001  0.03724  1.0000
  C   C32       1.0  0.0048  0.44234000000000007  0.96222  1.0000
  C   C33       1.0  0.49512  0.72044  0.96534  1.0000
  C   C34       1.0  0.49369999999999997  0.72201  0.03808  1.0000
  C   C35       1.0  0.9949599999999998  0.22045  0.9654  1.0000
  C   C36       1.0  0.9935399999999999  0.22202  0.03814  1.0000
  C   C37       1.0  0.4919  0.05859  0.07151  1.0000
  C   C38       1.0  0.51784  0.05312  0.92568  1.0000
  C   C39       1.0  0.9917499999999999  0.55857  0.0716  1.0000
  C   C40       1.0  0.01769  0.5531600000000001  0.9257699999999999  1.0000
  C   C41       1.0  0.0004999999999999999  0.66725  0.03388  1.0000
  C   C42       1.0  0.01567  0.66436  0.9615700000000001  1.0000
  C   C43       1.0  0.50068  0.16725  0.03378  1.0000
  C   C44       1.0  0.51585  0.16433000000000003  0.96147  1.0000
  H   H5        1.0  0.47839999999999994  0.06524  0.12721  1.0000
  H   H6        1.0  0.53102  0.05474  0.8697500000000001  1.0000
  H   H7        1.0  0.9782499999999998  0.5651700000000001  0.1273  1.0000
  H   H8        1.0  0.030879999999999998  0.55481  0.8698400000000001  1.0000
  H   H9        1.0  0.9963999999999998  0.7539200000000003  0.06107  1.0000
  H   H10       1.0  0.024809999999999995  0.7486500000000003  0.9328599999999999  1.0000
  H   H11       1.0  0.49659999999999993  0.25394  0.06096  1.0000
  H   H12       1.0  0.5249999999999998  0.2486  0.9327500000000001  1.0000
  C   C45       1.0  0.24927999999999997  0.57978  0.9206299999999998  1.0000
  C   C46       1.0  0.75077  0.58016  0.07945  1.0000
  C   C47       1.0  0.74927  0.07976000000000001  0.9206299999999998  1.0000
  C   C48       1.0  0.25077999999999995  0.08014  0.07945  1.0000
  C   C49       1.0  0.24975  0.58711  0.07709  1.0000
  C   C50       1.0  0.7501999999999998  0.58673  0.9228300000000002  1.0000
  C   C51       1.0  0.74975  0.08710000000000001  0.07708  1.0000
  C   C52       1.0  0.25020999999999993  0.08670000000000001  0.9228399999999999  1.0000
  C   C53       1.0  0.29512  0.5223300000000001  0.03768  1.0000
  C   C54       1.0  0.70512  0.52163  0.9626  1.0000
  C   C55       1.0  0.7951  0.022300000000000004  0.03768  1.0000
  C   C56       1.0  0.20514  0.02158  0.96262  1.0000
  C   C57       1.0  0.30403  0.54711  0.96169  1.0000
  C   C58       1.0  0.6961  0.54689  0.0385  1.0000
  C   C59       1.0  0.80402  0.04708000000000001  0.96169  1.0000
  C   C60       1.0  0.19611999999999996  0.04684  0.03851  1.0000
  H   H13       1.0  0.32526  0.44777  0.06068  1.0000
  H   H14       1.0  0.6752399999999998  0.44661  0.93998  1.0000
  H   H15       1.0  0.82524  0.9477400000000002  0.060669999999999995  1.0000
  H   H16       1.0  0.17527  0.9465500000000002  0.93999  1.0000
  H   H17       1.0  0.3568299999999999  0.54146  0.94013  1.0000
  H   H18       1.0  0.64329  0.54102  0.06006  1.0000
  H   H19       1.0  0.85682  0.04141  0.9401199999999998  1.0000
  H   H20       1.0  0.14331  0.04095  0.06007  1.0000
  H   H21       1.0  0.22143  0.66389  0.05410999999999999  1.0000
  H   H22       1.0  0.77828  0.66388  0.9454599999999999  1.0000
  H   H23       1.0  0.72143  0.16389000000000004  0.0541  1.0000
  H   H24       1.0  0.27829  0.16386000000000003  0.94547  1.0000
  H   H25       1.0  0.19635  0.58188  0.94223  1.0000
  H   H26       1.0  0.8037  0.58254  0.057839999999999996  1.0000
  H   H27       1.0  0.69634  0.08187  0.94223  1.0000
  H   H28       1.0  0.30369999999999997  0.08252000000000001  0.05785  1.0000
  C   C61       1.0  0.51239  0.83892  0.58469  1.0000
  C   C62       1.0  0.51135  0.8284900000000001  0.42868999999999996  1.0000
  C   C63       1.0  0.98821  0.32899000000000006  0.57112  1.0000
  C   C64       1.0  0.9872599999999999  0.33831  0.41504  1.0000
  C   C65       1.0  0.5192899999999999  0.7287100000000002  0.47161999999999993  1.0000
  C   C66       1.0  0.5322199999999998  0.73875  0.54909  1.0000
  C   C67       1.0  0.9680099999999999  0.23802000000000006  0.45117  1.0000
  C   C68       1.0  0.9811899999999999  0.22875000000000004  0.52867  1.0000
  H   H29       1.0  0.5086099999999999  0.9200900000000001  0.44953  1.0000
  H   H30       1.0  0.50474  0.92631  0.55908  1.0000
  H   H31       1.0  0.9944199999999999  0.4259300000000001  0.44025  1.0000
  H   H32       1.0  0.98988  0.4205600000000001  0.54985  1.0000
  C   C69       1.0  0.25487  0.61257  0.56937  1.0000
  C   C70       1.0  0.75408  0.56547  0.4168  1.0000
  C   C71       1.0  0.7460299999999999  0.06617000000000002  0.58323  1.0000
  C   C72       1.0  0.25349999999999995  0.06562000000000001  0.41697  1.0000
  C   C73       1.0  0.25651999999999997  0.60376  0.4141  1.0000
  C   C74       1.0  0.7623199999999998  0.56879  0.57183  1.0000
  C   C75       1.0  0.7378399999999998  0.06848  0.4281  1.0000
  C   C76       1.0  0.2620799999999999  0.06907000000000002  0.57203  1.0000
  C   C77       1.0  0.21695999999999996  0.68098  0.45085  1.0000
  C   C78       1.0  0.81812  0.56049  0.52819  1.0000
  C   C79       1.0  0.68201  0.06106  0.4718  1.0000
  C   C80       1.0  0.3176399999999999  0.05871  0.52819  1.0000
  C   C81       1.0  0.22898  0.70017  0.5261  1.0000
  C   C82       1.0  0.81339  0.58532  0.45265  1.0000
  C   C83       1.0  0.6867999999999997  0.08622  0.54723  1.0000
  C   C84       1.0  0.31301  0.08394000000000001  0.4526899999999999  1.0000
  H   H33       1.0  0.17053999999999997  0.7230300000000001  0.42757999999999996  1.0000
  H   H34       1.0  0.87055  0.5435400000000001  0.54907  1.0000
  H   H35       1.0  0.6295  0.04457000000000001  0.45101  1.0000
  H   H36       1.0  0.36992999999999987  0.03968000000000001  0.54892  1.0000
  H   H37       1.0  0.21051999999999998  0.78667  0.54726  1.0000
  H   H38       1.0  0.85775  0.63173  0.42832000000000003  1.0000
  H   H39       1.0  0.6424599999999999  0.13272000000000003  0.57139  1.0000
  H   H40       1.0  0.35773  0.12905  0.42821  1.0000
  H   H41       1.0  0.30509  0.56758  0.4362  1.0000
  H   H42       1.0  0.70937  0.58507  0.5525  1.0000
  H   H43       1.0  0.79084  0.08424  0.44733  1.0000
  H   H44       1.0  0.20919  0.08742000000000001  0.55308  1.0000
  H   H45       1.0  0.27394  0.52548  0.54998  1.0000
  H   H46       1.0  0.71169  0.5121  0.43976  1.0000
  H   H47       1.0  0.7884499999999998  0.012829999999999996  0.56046  1.0000
  H   H48       1.0  0.21052999999999997  0.013680000000000003  0.44011  1.0000
  N   N1        1.0  0.5152  0.6073600000000001  0.44276  1.0000
  O   O53       1.0  0.57037  0.5372500000000001  0.44232  1.0000
  O   O54       1.0  0.45694  0.56919  0.41405  1.0000
  N   N2        1.0  0.55607  0.63287  0.58829  1.0000
  O   O55       1.0  0.52455  0.52821  0.58103  1.0000
  O   O56       1.0  0.60112  0.64631  0.63991  1.0000
  N   N3        1.0  0.9448099999999999  0.13143000000000002  0.41256  1.0000
  O   O57       1.0  0.9769999999999998  0.02745  0.42035  1.0000
  O   O58       1.0  0.8996799999999999  0.14368  0.36086  1.0000
  N   N4        1.0  0.9866399999999997  0.10767000000000002  0.55807  1.0000
  O   O59       1.0  0.93211  0.03604  0.55934  1.0000
  O   O60       1.0  0.04544  0.0714  0.58659  1.0000
