data_image0
_chemical_formula_structural       O8C4O8C4O4V4C4H4C4O4N4C44H8C20O4C4H20OCH3OCH3OCH3OCH3
_chemical_formula_sum              "O32 C88 V4 H44 N4"
_cell_length_a       28.19295
_cell_length_b       7.197170000000001
_cell_length_c       17.19691
_cell_angle_alpha    90.07779
_cell_angle_beta     101.89331000000001
_cell_angle_gamma    89.9685

_symmetry_space_group_name_H-M    'P 1'
_symmetry_Int_Tables_number       1

loop_
  _symmetry_equiv_pos_as_xyz
  'x,y,z'

loop_
  _atom_site_type_symbol
  _atom_site_label
  _atom_site_symmetry_multiplicity
  _atom_site_fract_x
  _atom_site_fract_y
  _atom_site_fract_z
  _atom_site_occupancy
  O   O1        1.0  0.0007000000000000101  0.43651  0.85792  1.0000
  O   O2        1.0  0.9993  0.56349  0.14207999999999998  1.0000
  O   O3        1.0  0.9993  0.93651  0.64208  1.0000
  O   O4        1.0  0.0006999999999999993  0.06349  0.35792  1.0000
  O   O5        1.0  0.9300799999999999  0.76638  0.7218899999999998  1.0000
  O   O6        1.0  0.06992  0.23362  0.27811  1.0000
  O   O7        1.0  0.06992  0.26638  0.77811  1.0000
  O   O8        1.0  0.93008  0.73362  0.22189  1.0000
  C   C1        1.0  0.91057  0.59762  0.7089499999999997  1.0000
  C   C2        1.0  0.08943  0.40236  0.29121  1.0000
  C   C3        1.0  0.08943  0.09757  0.79107  1.0000
  C   C4        1.0  0.91057  0.90243  0.20902  1.0000
  O   O9        1.0  0.9961800000000002  0.76623  0.86231  1.0000
  O   O10       1.0  0.0038199999999999935  0.23377  0.13768999999999995  1.0000
  O   O11       1.0  0.003820000000000007  0.26623  0.63769  1.0000
  O   O12       1.0  0.9961800000000001  0.73377  0.36230999999999997  1.0000
  O   O13       1.0  0.06587000000000001  0.93646  0.7835  1.0000
  O   O14       1.0  0.9341300000000002  0.06354  0.21649999999999994  1.0000
  O   O15       1.0  0.9341300000000001  0.43646  0.7165  1.0000
  O   O16       1.0  0.06587000000000001  0.5635399999999999  0.2835  1.0000
  C   C5        1.0  0.99849  0.5965  0.8945  1.0000
  C   C6        1.0  0.0015099999999999962  0.40349999999999997  0.10550999999999998  1.0000
  C   C7        1.0  0.001519999999999976  0.09639  0.6055399999999997  1.0000
  C   C8        1.0  0.99849  0.90361  0.3944699999999999  1.0000
  O   O17       1.0  0.022790000000000015  0.60302  0.72398  1.0000
  O   O18       1.0  0.9772100000000002  0.39698  0.2760199999999999  1.0000
  O   O19       1.0  0.9772100000000002  0.10302  0.77602  1.0000
  O   O20       1.0  0.022790000000000008  0.89698  0.22398  1.0000
  V   V1        1.0  0.9957700000000003  0.8779  0.7548299999999998  1.0000
  V   V2        1.0  0.00423  0.12209999999999997  0.24516999999999997  1.0000
  V   V3        1.0  0.004230000000000001  0.3779  0.74517  1.0000
  V   V4        1.0  0.9957700000000003  0.6220999999999999  0.25483  1.0000
  C   C9        1.0  0.0017200000000000054  0.08258  0.51961  1.0000
  C   C10       1.0  0.9983000000000002  0.91741  0.4804  1.0000
  C   C11       1.0  0.9983000000000002  0.58265  0.9804699999999998  1.0000
  C   C12       1.0  0.001699999999999999  0.41734999999999994  0.019529999999999992  1.0000
  H   H1        1.0  0.004509999999999996  0.21134999999999998  0.4879899999999999  1.0000
  H   H2        1.0  0.99551  0.78864  0.51201  1.0000
  H   H3        1.0  0.9955300000000002  0.71145  0.01222  1.0000
  H   H4        1.0  0.004469999999999989  0.2885499999999999  0.9877699999999999  1.0000
  C   C13       1.0  0.6815900000000003  0.87389  0.03499  1.0000
  C   C14       1.0  0.3183  0.12532  0.9663299999999999  1.0000
  C   C15       1.0  0.31649  0.4679  0.47639  1.0000
  C   C16       1.0  0.68423  0.4961099999999999  0.52944  1.0000
  O   O21       1.0  0.70944  0.79643  0.9885799999999999  1.0000
  O   O22       1.0  0.29044  0.2029  0.01268  1.0000
  O   O23       1.0  0.28693  0.48232  0.52863  1.0000
  O   O24       1.0  0.71427  0.45769  0.47977  1.0000
  N   N1        1.0  0.7027500000000001  0.94305  0.10813  1.0000
  N   N2        1.0  0.2971700000000001  0.05646  0.89312  1.0000
  N   N3        1.0  0.29715  0.43792999999999993  0.39748999999999995  1.0000
  N   N4        1.0  0.70307  0.5509  0.60584  1.0000
  C   C17       1.0  0.6752900000000001  0.02421  0.15591  1.0000
  C   C18       1.0  0.32464  0.9751999999999997  0.84538  1.0000
  C   C19       1.0  0.32664  0.41575  0.34398  1.0000
  C   C20       1.0  0.6734000000000001  0.59113  0.6573999999999998  1.0000
  C   C21       1.0  0.77748  0.7628499999999999  0.156  1.0000
  C   C22       1.0  0.22251000000000007  0.23696999999999993  0.84498  1.0000
  C   C23       1.0  0.22249000000000005  0.2629  0.34297  1.0000
  C   C24       1.0  0.78243  0.40436  0.65458  1.0000
  C   C25       1.0  0.8279600000000001  0.75194  0.17996  1.0000
  C   C26       1.0  0.17206000000000005  0.24797  0.82065  1.0000
  C   C27       1.0  0.17212  0.25304  0.31758  1.0000
  C   C28       1.0  0.8327900000000003  0.41497999999999996  0.67919  1.0000
  C   C29       1.0  0.83369  0.08435  0.16223  1.0000
  C   C30       1.0  0.16623  0.91556  0.8383  1.0000
  C   C31       1.0  0.16604  0.58154  0.3441699999999999  1.0000
  C   C32       1.0  0.8289  0.7489699999999998  0.66182  1.0000
  C   C33       1.0  0.7831300000000001  0.09493  0.1362  1.0000
  C   C34       1.0  0.21676000000000004  0.90489  0.8646699999999998  1.0000
  C   C35       1.0  0.21672000000000005  0.59128  0.37241999999999986  1.0000
  C   C36       1.0  0.7782800000000001  0.73795  0.63499  1.0000
  C   C37       1.0  0.7547400000000002  0.93377  0.13430999999999996  1.0000
  C   C38       1.0  0.24519000000000002  0.06598999999999997  0.8668  1.0000
  C   C39       1.0  0.2451  0.4309  0.37043  1.0000
  C   C40       1.0  0.75491  0.56483  0.6324699999999998  1.0000
  C   C41       1.0  0.6020900000000002  0.96945  0.05523  1.0000
  C   C42       1.0  0.3978  0.02934  0.94622  1.0000
  C   C43       1.0  0.39798  0.46121  0.44949  1.0000
  C   C44       1.0  0.60246  0.52061  0.55431  1.0000
  C   C45       1.0  0.63101  0.88512  0.007429999999999999  1.0000
  C   C46       1.0  0.3688600000000001  0.11367  0.99401  1.0000
  C   C47       1.0  0.36703  0.48278  0.50353  1.0000
  C   C48       1.0  0.6336900000000002  0.48047  0.50225  1.0000
  C   C49       1.0  0.6090200000000002  0.81485  0.9330299999999999  1.0000
  C   C50       1.0  0.39084000000000013  0.18345  0.06852  1.0000
  C   C51       1.0  0.38709  0.51812  0.58346  1.0000
  C   C52       1.0  0.6139200000000002  0.42483  0.42445  1.0000
  C   C53       1.0  0.62462  0.03937  0.1303  1.0000
  C   C54       1.0  0.3752900000000001  0.95967  0.87109  1.0000
  C   C55       1.0  0.37746  0.42557  0.36903999999999987  1.0000
  C   C56       1.0  0.6226700000000002  0.57629  0.6327  1.0000
  C   C57       1.0  0.85679  0.91273  0.18360999999999997  1.0000
  C   C58       1.0  0.14318999999999996  0.08721999999999999  0.8167599999999998  1.0000
  C   C59       1.0  0.14317  0.41220999999999997  0.31777  1.0000
  C   C60       1.0  0.8568000000000001  0.58743  0.68327  1.0000
  H   H5        1.0  0.8546699999999999  0.21106  0.16486  1.0000
  H   H6        1.0  0.14523  0.78888  0.8355  1.0000
  H   H7        1.0  0.14457000000000006  0.70658  0.34262  1.0000
  H   H8        1.0  0.84619  0.8839  0.6650499999999998  1.0000
  H   H9        1.0  0.63038  0.74889  0.89512  1.0000
  H   H10       1.0  0.36947  0.24916  0.10647999999999998  1.0000
  H   H11       1.0  0.36419000000000007  0.53334  0.62653  1.0000
  H   H12       1.0  0.63709  0.39076  0.38340999999999986  1.0000
  C   C61       1.0  0.4776  0.92807  0.9244599999999998  1.0000
  C   C62       1.0  0.52227  0.07038999999999998  0.07706  1.0000
  C   C63       1.0  0.52031  0.54063  0.58219  1.0000
  C   C64       1.0  0.48005000000000003  0.44668  0.42095  1.0000
  C   C65       1.0  0.47106  0.08561  0.04968  1.0000
  C   C66       1.0  0.52881  0.91272  0.9518699999999999  1.0000
  C   C67       1.0  0.53138  0.45429  0.44799  1.0000
  C   C68       1.0  0.46919000000000005  0.51805  0.55675  1.0000
  C   C69       1.0  0.44905  0.01435  0.9735599999999999  1.0000
  C   C70       1.0  0.55083  0.98418  0.02795  1.0000
  C   C71       1.0  0.55118  0.5051  0.52805  1.0000
  C   C72       1.0  0.44929000000000013  0.47527  0.47584  1.0000
  C   C73       1.0  0.45362  0.8601  0.84918  1.0000
  C   C74       1.0  0.54627  0.13853  0.1523  1.0000
  C   C75       1.0  0.5419  0.59925  0.6601299999999999  1.0000
  C   C76       1.0  0.45811  0.41280999999999995  0.34038  1.0000
  C   C77       1.0  0.4036699999999999  0.87575  0.8232999999999998  1.0000
  C   C78       1.0  0.5962300000000001  0.12315  0.17813  1.0000
  C   C79       1.0  0.59191  0.61646  0.68465  1.0000
  C   C80       1.0  0.40798  0.40273  0.31519  1.0000
  O   O25       1.0  0.30304000000000003  0.90982  0.77318  1.0000
  O   O26       1.0  0.69691  0.08983999999999999  0.22805999999999996  1.0000
  O   O27       1.0  0.6929100000000002  0.64444  0.73243  1.0000
  O   O28       1.0  0.3069  0.3859  0.26658999999999994  1.0000
  C   C81       1.0  0.55914  0.82793  0.90578  1.0000
  C   C82       1.0  0.4407100000000001  0.1701  0.09584  1.0000
  C   C83       1.0  0.4369800000000001  0.53568  0.60962  1.0000
  C   C84       1.0  0.56396  0.41184  0.3977799999999999  1.0000
  H   H13       1.0  0.15577999999999997  0.38249  0.8045199999999998  1.0000
  H   H14       1.0  0.84427  0.61745  0.196  1.0000
  H   H15       1.0  0.8528099999999998  0.28763  0.69554  1.0000
  H   H16       1.0  0.15596000000000004  0.12058  0.29724999999999996  1.0000
  H   H17       1.0  0.24415  0.36164  0.84673  1.0000
  H   H18       1.0  0.75589  0.63812  0.15438999999999994  1.0000
  H   H19       1.0  0.76464  0.27088  0.65286  1.0000
  H   H20       1.0  0.24410000000000004  0.13899999999999998  0.3417199999999999  1.0000
  H   H21       1.0  0.38735  0.82093  0.76522  1.0000
  H   H22       1.0  0.61256  0.17808  0.23618  1.0000
  H   H23       1.0  0.6064000000000003  0.66176  0.74496  1.0000
  H   H24       1.0  0.3932200000000001  0.37707  0.25281  1.0000
  H   H25       1.0  0.4722  0.7934  0.80806  1.0000
  H   H26       1.0  0.52768  0.20525  0.1934  1.0000
  H   H27       1.0  0.5211200000000001  0.6365499999999998  0.70373  1.0000
  H   H28       1.0  0.47858  0.39698  0.29443  1.0000
  H   H29       1.0  0.5457300000000002  0.76954  0.84785  1.0000
  H   H30       1.0  0.45410000000000006  0.22798  0.15388  1.0000
  H   H31       1.0  0.44909  0.56001  0.67235  1.0000
  H   H32       1.0  0.5521500000000001  0.36472  0.33747  1.0000
  O   O29       1.0  0.7609600000000002  0.26431  0.11603999999999998  1.0000
  C   C85       1.0  0.7663600000000003  0.31117  0.03877999999999999  1.0000
  H   H33       1.0  0.7514  0.20109  0.99496  1.0000
  H   H34       1.0  0.8049600000000001  0.33933999999999986  0.0373  1.0000
  H   H35       1.0  0.7456200000000002  0.44022  0.02037  1.0000
  O   O30       1.0  0.23887  0.73543  0.8849199999999998  1.0000
  C   C86       1.0  0.23329999999999998  0.68856  0.9620899999999999  1.0000
  H   H36       1.0  0.19466  0.66065  0.9633699999999998  1.0000
  H   H37       1.0  0.24824000000000004  0.79853  0.00598  1.0000
  H   H38       1.0  0.25397  0.55938  0.9805699999999999  1.0000
  O   O31       1.0  0.23997000000000002  0.75821  0.3959299999999999  1.0000
  C   C87       1.0  0.21978  0.84419  0.4555099999999999  1.0000
  H   H39       1.0  0.21276000000000006  0.74365  0.50105  1.0000
  H   H40       1.0  0.18609  0.92028  0.42895  1.0000
  H   H41       1.0  0.24606  0.94812  0.48663  1.0000
  O   O32       1.0  0.7510100000000002  0.89699  0.61529  1.0000
  C   C88       1.0  0.7565600000000001  0.95733  0.53971  1.0000
  H   H42       1.0  0.7470800000000002  0.84581  0.49418  1.0000
  H   H43       1.0  0.7939600000000002  0.0089  0.5416099999999998  1.0000
  H   H44       1.0  0.73132  0.07475  0.52097  1.0000
