data_image0
_chemical_formula_structural       C70Cr6H41O26F
_chemical_formula_sum              "C70 Cr6 H41 O26 F1"
_cell_length_a       10.79827
_cell_length_b       11.07967
_cell_length_c       18.83222
_cell_angle_alpha    89.91451
_cell_angle_beta     89.65710999999999
_cell_angle_gamma    60.08276

_space_group_name_H-M_alt    "P 1"
_space_group_IT_number       1

loop_
  _space_group_symop_operation_xyz
  'x, y, z'

loop_
  _atom_site_type_symbol
  _atom_site_label
  _atom_site_symmetry_multiplicity
  _atom_site_fract_x
  _atom_site_fract_y
  _atom_site_fract_z
  _atom_site_occupancy
  C   C1        1.0  0.23496  0.64525  0.60953  1.0000
  C   C2        1.0  0.70439  0.51386  0.8085099999999998  1.0000
  C   C3        1.0  0.68763  0.66044  0.8169  1.0000
  C   C4        1.0  0.64827  0.6183799999999999  0.6841  1.0000
  C   C5        1.0  0.76932  0.6544599999999999  0.6890899999999999  1.0000
  C   C6        1.0  0.6876400000000003  0.48725  0.7296  1.0000
  C   C7        1.0  0.7197599999999998  0.09003999999999998  0.81268  1.0000
  C   C8        1.0  0.81985  0.11646  0.7760199999999999  1.0000
  C   C9        1.0  0.8114700000000001  0.12818  0.70066  1.0000
  C   C10       1.0  0.60062  0.10393  0.70177  1.0000
  C   C11       1.0  0.61433  0.08138  0.77354  1.0000
  C   C12       1.0  0.6283300000000004  0.5895099999999999  0.60916  1.0000
  C   C13       1.0  0.92549  0.13497  0.81039  1.0000
  C   C14       1.0  0.028980000000000006  0.14691  0.77132  1.0000
  C   C15       1.0  0.030490000000000007  0.13979999999999998  0.69766  1.0000
  C   C16       1.0  0.9234  0.12985  0.66251  1.0000
  C   C17       1.0  0.69021  0.13959  0.66572  1.0000
  C   C18       1.0  0.17877000000000004  0.67229  0.83357  1.0000
  C   C19       1.0  0.20956000000000005  0.54649  0.80003  1.0000
  C   C20       1.0  0.20078  0.54237  0.72482  1.0000
  C   C21       1.0  0.16100000000000012  0.7785899999999998  0.71947  1.0000
  C   C22       1.0  0.16273000000000015  0.7837899999999998  0.79236  1.0000
  C   C23       1.0  0.6336  0.22049999999999997  0.60018  1.0000
  C   C24       1.0  0.24914999999999995  0.42474999999999996  0.83991  1.0000
  C   C25       1.0  0.26652  0.30501  0.80737  1.0000
  C   C26       1.0  0.24443  0.3044899999999999  0.73491  1.0000
  C   C27       1.0  0.20885000000000004  0.4221599999999999  0.69407  1.0000
  C   C28       1.0  0.18506999999999998  0.65825  0.68401  1.0000
  C   C29       1.0  0.6490800000000001  0.67363  0.16764  1.0000
  C   C30       1.0  0.70646  0.53891  0.19520999999999997  1.0000
  C   C31       1.0  0.73841  0.51906  0.26815  1.0000
  C   C32       1.0  0.5959  0.77003  0.28687  1.0000
  C   C33       1.0  0.60006  0.787  0.21419000000000002  1.0000
  C   C34       1.0  0.21734000000000003  0.65363  0.40232999999999997  1.0000
  C   C35       1.0  0.7530400000000003  0.42273  0.14973  1.0000
  C   C36       1.0  0.8566800000000001  0.29189  0.17212  1.0000
  C   C37       1.0  0.90866  0.27496  0.24061  1.0000
  C   C38       1.0  0.84881  0.38486  0.28884  1.0000
  C   C39       1.0  0.66473  0.63655  0.31516  1.0000
  C   C40       1.0  0.66515  0.08641999999999997  0.18533  1.0000
  C   C41       1.0  0.52134  0.15497  0.21226  1.0000
  C   C42       1.0  0.49362000000000006  0.22903  0.27612  1.0000
  C   C43       1.0  0.7510200000000001  0.12840999999999997  0.29458  1.0000
  C   C44       1.0  0.7780700000000002  0.06529999999999998  0.22892  1.0000
  C   C45       1.0  0.6433600000000003  0.61747  0.39053  1.0000
  C   C46       1.0  0.40359000000000006  0.15301  0.17834999999999998  1.0000
  C   C47       1.0  0.26538000000000006  0.22725999999999996  0.20375  1.0000
  C   C48       1.0  0.23926000000000006  0.29964999999999997  0.26584  1.0000
  C   C49       1.0  0.3494700000000001  0.30605999999999994  0.29954  1.0000
  C   C50       1.0  0.61072  0.21822  0.31638999999999995  1.0000
  C   C51       1.0  0.14319000000000004  0.67086  0.18532  1.0000
  C   C52       1.0  0.20793  0.74011  0.21626  1.0000
  C   C53       1.0  0.17981000000000003  0.77638  0.28772  1.0000
  C   C54       1.0  0.08892999999999997  0.61749  0.30268  1.0000
  C   C55       1.0  0.07938000000000005  0.61331  0.22895  1.0000
  C   C56       1.0  0.58598  0.28085999999999994  0.3865199999999999  1.0000
  C   C57       1.0  0.27848  0.7939399999999999  0.17519  1.0000
  C   C58       1.0  0.2873300000000001  0.9068199999999997  0.19969  1.0000
  C   C59       1.0  0.24204  0.95703  0.26801  1.0000
  C   C60       1.0  0.18539999999999998  0.89492  0.31129  1.0000
  C   C61       1.0  0.14866000000000001  0.6913  0.33249  1.0000
  C   C62       1.0  0.72641  0.05039  0.88814  1.0000
  C   C63       1.0  0.71838  0.68458  0.8904799999999999  1.0000
  C   C64       1.0  0.11929  0.70644  0.9058599999999999  1.0000
  C   C65       1.0  0.69871  0.04296  0.11158  1.0000
  C   C66       1.0  0.693  0.69048  0.0967  1.0000
  C   C67       1.0  0.53393  0.76823  0.79357  1.0000
  C   C68       1.0  0.09200000000000003  0.70915  0.11306999999999999  1.0000
  C   C69       1.0  0.5101500000000002  0.74172  0.71595  1.0000
  C   C70       1.0  0.7996800000000002  0.6680799999999998  0.7672499999999999  1.0000
  Cr  Cr1       1.0  0.39294000000000007  0.39794999999999997  0.50223  1.0000
  Cr  Cr2       1.0  0.3984  0.7085  0.5012599999999999  1.0000
  Cr  Cr3       1.0  0.7086400000000003  0.3935299999999999  0.49645999999999996  1.0000
  Cr  Cr4       1.0  0.9378800000000003  0.93832  0.007619999999999999  1.0000
  Cr  Cr5       1.0  0.6255600000000002  0.9372199999999999  0.99451  1.0000
  Cr  Cr6       1.0  0.93808  0.62501  0.00119  1.0000
  H   H1        1.0  0.5151700000000002  0.8753199999999999  0.79855  1.0000
  H   H2        1.0  0.7898800000000001  0.39977999999999997  0.70986  1.0000
  H   H3        1.0  0.9083200000000005  0.58095  0.78024  1.0000
  H   H4        1.0  0.8695  0.57216  0.66385  1.0000
  H   H5        1.0  0.51278  0.10223999999999998  0.67528  1.0000
  H   H6        1.0  0.93103  0.14279  0.86694  1.0000
  H   H7        1.0  0.5386900000000001  0.05859999999999999  0.79886  1.0000
  H   H8        1.0  0.1109  0.15702  0.79872  1.0000
  H   H9        1.0  0.11477999999999997  0.14077  0.66707  1.0000
  H   H10       1.0  0.9318700000000001  0.11942  0.60538  1.0000
  H   H11       1.0  0.15210000000000004  0.86659  0.6906  1.0000
  H   H12       1.0  0.45444  0.76104  0.82858  1.0000
  H   H13       1.0  0.27027000000000007  0.42017999999999994  0.89623  1.0000
  H   H14       1.0  0.14723  0.8783199999999999  0.8167699999999999  1.0000
  H   H15       1.0  0.29635  0.21256999999999998  0.8386499999999999  1.0000
  H   H16       1.0  0.25833  0.21107999999999996  0.7099499999999999  1.0000
  H   H17       1.0  0.18387  0.41747  0.63917  1.0000
  H   H18       1.0  0.5458300000000001  0.8607599999999999  0.32111  1.0000
  H   H19       1.0  0.7184300000000001  0.43512  0.09499  1.0000
  H   H20       1.0  0.56751  0.88886  0.19421  1.0000
  H   H21       1.0  0.90116  0.20490999999999995  0.13561  1.0000
  H   H22       1.0  0.99302  0.17487  0.25729  1.0000
  H   H23       1.0  0.42388999999999993  0.71585  0.71377  1.0000
  H   H24       1.0  0.9010200000000002  0.36235  0.33951  1.0000
  H   H25       1.0  0.84061  0.10914  0.32777  1.0000
  H   H26       1.0  0.41214000000000006  0.08757  0.13463  1.0000
  H   H27       1.0  0.88791  0.00368  0.21097  1.0000
  H   H28       1.0  0.17951  0.22246  0.17695  1.0000
  H   H29       1.0  0.13273999999999997  0.35061  0.28805  1.0000
  H   H30       1.0  0.31758999999999993  0.3705  0.34476  1.0000
  H   H31       1.0  0.05088000000000002  0.56362  0.33648  1.0000
  H   H32       1.0  0.31485  0.75733  0.12160000000000001  1.0000
  H   H33       1.0  0.021200000000000056  0.5665899999999999  0.2062  1.0000
  H   H34       1.0  0.47577  0.8386  0.68471  1.0000
  H   H35       1.0  0.3275500000000001  0.9552199999999998  0.16447  1.0000
  H   H36       1.0  0.24934  0.04447  0.28787  1.0000
  H   H37       1.0  0.14174000000000006  0.9438999999999999  0.36201  1.0000
  H   H38       1.0  0.7376500000000002  0.7534799999999998  0.66036  1.0000
  H   H39       1.0  0.81112  0.43204  0.82727  1.0000
  H   H40       1.0  0.62267  0.50574  0.84122  1.0000
  H   H41       1.0  0.60443  0.45644  0.7244899999999999  1.0000
  O   O1        1.0  0.50734  0.25569  0.58143  1.0000
  O   O2        1.0  0.5245100000000001  0.6958199999999999  0.42405  1.0000
  O   O3        1.0  0.73637  0.50426  0.41481  1.0000
  O   O4        1.0  0.69122  0.27727  0.42218  1.0000
  O   O5        1.0  0.49999  0.49999  0.49998  1.0000
  O   O6        1.0  0.08957000000000002  0.82545  0.93059  1.0000
  O   O7        1.0  0.8187000000000001  0.05426  0.92986  1.0000
  O   O8        1.0  0.60631  0.07701  0.9155200000000001  1.0000
  O   O9        1.0  0.64673  0.80654  0.9175599999999999  1.0000
  O   O10       1.0  0.8372900000000001  0.5932399999999998  0.9152399999999999  1.0000
  O   O11       1.0  0.06532000000000002  0.63531  0.93158  1.0000
  O   O12       1.0  0.2803600000000001  0.52738  0.57891  1.0000
  O   O13       1.0  0.06847000000000017  0.82862  0.09185  1.0000
  O   O14       1.0  0.7991500000000002  0.057199999999999994  0.07935  1.0000
  O   O15       1.0  0.58522  0.08018  0.07677  1.0000
  O   O16       1.0  0.6271699999999999  0.80948  0.06705  1.0000
  O   O17       1.0  0.8162000000000004  0.5964099999999999  0.0765  1.0000
  O   O18       1.0  0.045770000000000005  0.63824  0.08107  1.0000
  O   O19       1.0  0.8338400000000001  0.8335199999999999  0.00111  1.0000
  O   O20       1.0  0.26060000000000005  0.73961  0.58458  1.0000
  O   O21       1.0  0.53237  0.69505  0.57383  1.0000
  O   O22       1.0  0.74485  0.50343  0.57638  1.0000
  O   O23       1.0  0.6990800000000003  0.2765  0.57195  1.0000
  O   O24       1.0  0.49886  0.25652  0.41986  1.0000
  O   O25       1.0  0.27249  0.52815  0.4291400000000001  1.0000
  O   O26       1.0  0.25211000000000006  0.74044  0.42301  1.0000
  F   F1        1.0  0.8021100000000002  0.7904099999999998  0.77733  1.0000
