data_image0
_chemical_formula_structural       O4C2O4C2Cu2C2O2N2C22H4C10O2C2H10C2H2N2H2NO2NO2
_chemical_formula_sum              "O16 C42 Cu2 N6 H18"
_cell_length_a       27.8053
_cell_length_b       8.67468
_cell_length_c       7.43147
_cell_angle_alpha    103.04305
_cell_angle_beta     94.08432
_cell_angle_gamma    92.45695

_space_group_name_H-M_alt    "P 1"
_space_group_IT_number       1

loop_
  _space_group_symop_operation_xyz
  'x, y, z'

loop_
  _atom_site_type_symbol
  _atom_site_label
  _atom_site_symmetry_multiplicity
  _atom_site_fract_x
  _atom_site_fract_y
  _atom_site_fract_z
  _atom_site_occupancy
  O   O1        1.0  0.5035  0.28612  0.61978  1.0000
  O   O2        1.0  0.4965  0.7138800000000001  0.38022000000000006  1.0000
  O   O3        1.0  0.49441000000000007  0.25678  0.30836  1.0000
  O   O4        1.0  0.50559  0.74322  0.69164  1.0000
  C   C1        1.0  0.49853  0.19961  0.45313  1.0000
  C   C2        1.0  0.50147  0.80039  0.54687  1.0000
  O   O5        1.0  0.43481  0.5147  0.65569  1.0000
  O   O6        1.0  0.56519  0.48530000000000006  0.34431  1.0000
  O   O7        1.0  0.42572  0.48535  0.34428  1.0000
  O   O8        1.0  0.57428  0.51465  0.65572  1.0000
  C   C3        1.0  0.40746999999999994  0.49479  0.5018  1.0000
  C   C4        1.0  0.59253  0.50531  0.49821  1.0000
  Cu  Cu1       1.0  0.50538  0.51738  0.68438  1.0000
  Cu  Cu2       1.0  0.49462  0.48262  0.31562000000000007  1.0000
  C   C5        1.0  0.17535  0.35320999999999997  0.49816  1.0000
  C   C6        1.0  0.82466  0.64748  0.50204  1.0000
  O   O9        1.0  0.19724  0.21486  0.47189  1.0000
  O   O10       1.0  0.80277  0.78583  0.52797  1.0000
  N   N1        1.0  0.20254  0.49356000000000005  0.53184  1.0000
  N   N2        1.0  0.7974700000000001  0.50715  0.46853  1.0000
  C   C7        1.0  0.18141999999999997  0.6357  0.56475  1.0000
  C   C8        1.0  0.8185900000000002  0.36501  0.43588  1.0000
  C   C9        1.0  0.28491  0.55736  0.68223  1.0000
  C   C10       1.0  0.71511  0.44256  0.31818  1.0000
  C   C11       1.0  0.33474999999999994  0.55591  0.67351  1.0000
  C   C12       1.0  0.66526  0.44383  0.32684  1.0000
  C   C13       1.0  0.3231  0.4149  0.34873  1.0000
  C   C14       1.0  0.67686  0.58645  0.65109  1.0000
  C   C15       1.0  0.27315  0.42134  0.35856  1.0000
  C   C16       1.0  0.72682  0.5801  0.64136  1.0000
  C   C17       1.0  0.25395  0.49119000000000007  0.52449  1.0000
  C   C18       1.0  0.74605  0.50951  0.47574  1.0000
  C   C19       1.0  0.10217  0.49702  0.52157  1.0000
  C   C20       1.0  0.8978499999999999  0.50367  0.47895  1.0000
  C   C21       1.0  0.12478  0.35233999999999993  0.49064  1.0000
  C   C22       1.0  0.87524  0.64836  0.5097  1.0000
  C   C23       1.0  0.09661  0.20999  0.45126  1.0000
  C   C24       1.0  0.90341  0.7907  0.54902  1.0000
  C   C25       1.0  0.13097  0.64002  0.56164  1.0000
  C   C26       1.0  0.86905  0.36069  0.43901  1.0000
  C   C27       1.0  0.35451  0.48679999999999995  0.50724  1.0000
  C   C28       1.0  0.64548  0.51358  0.49282  1.0000
  H   H1        1.0  0.24888  0.36815  0.23778  1.0000
  H   H2        1.0  0.7510699999999999  0.63394  0.76194  1.0000
  H   H3        1.0  0.11313  0.09708000000000003  0.4268900000000001  1.0000
  H   H4        1.0  0.88688  0.90361  0.57328  1.0000
  C   C29       1.0  0.97123  0.35453  0.45685  1.0000
  C   C30       1.0  0.02879  0.6461700000000001  0.54378  1.0000
  C   C31       1.0  0.97754  0.64781  0.53161  1.0000
  C   C32       1.0  0.02247  0.35288  0.46893  1.0000
  C   C33       1.0  0.94911  0.50199  0.489  1.0000
  C   C34       1.0  0.05091  0.4987  0.51157  1.0000
  C   C35       1.0  0.94099  0.21323  0.41293  1.0000
  C   C36       1.0  0.05903  0.78747  0.58784  1.0000
  C   C37       1.0  0.89105  0.21666  0.40514000000000006  1.0000
  C   C38       1.0  0.10896  0.78404  0.59565  1.0000
  O   O11       1.0  0.79092  0.22836  0.40378  1.0000
  O   O12       1.0  0.2091  0.77235  0.59709  1.0000
  C   C39       1.0  0.04659  0.20984  0.44037  1.0000
  C   C40       1.0  0.95342  0.79085  0.56002  1.0000
  H   H5        1.0  0.6421399999999999  0.38827  0.20372  1.0000
  H   H6        1.0  0.3579  0.6108  0.79682  1.0000
  H   H7        1.0  0.72974  0.38873  0.18912  1.0000
  H   H8        1.0  0.2703  0.61066  0.8115  1.0000
  H   H9        1.0  0.86968  0.10501  0.37207  1.0000
  H   H10       1.0  0.13034  0.8957  0.6288  1.0000
  H   H11       1.0  0.95444  0.09664  0.3831  1.0000
  H   H12       1.0  0.04558  0.90406  0.61778  1.0000
  H   H13       1.0  0.028120000000000003  0.09434  0.40885  1.0000
  H   H14       1.0  0.9719  0.90634  0.59147  1.0000
  C   C41       1.0  0.4978  0.03166  0.42673  1.0000
  C   C42       1.0  0.5022  0.9683399999999999  0.57327  1.0000
  H   H15       1.0  0.49365  0.95981  0.28559  1.0000
  H   H16       1.0  0.50635  0.040190000000000003  0.71441  1.0000
  N   N3        1.0  0.48651  0.45643  0.03851  1.0000
  N   N4        1.0  0.51349  0.54357  0.96149  1.0000
  H   H17       1.0  0.46213  0.37819  0.94842  1.0000
  H   H18       1.0  0.53787  0.62181  0.05158  1.0000
  N   N5        1.0  0.34084  0.32871  0.18049  1.0000
  O   O13       1.0  0.32033999999999996  0.33861  0.02086  1.0000
  O   O14       1.0  0.37091  0.21865  0.18618  1.0000
  N   N6        1.0  0.65908  0.6736999999999999  0.81874  1.0000
  O   O15       1.0  0.67993  0.66648  0.9788700000000001  1.0000
  O   O16       1.0  0.62861  0.78239  0.81164  1.0000
