data_image0
_chemical_formula_structural       O4C2O4C2Cu2C4O4N2C22H4C12N2SO3HSO3HSO3HSO3HF8
_chemical_formula_sum              "O24 C42 Cu2 N4 H8 S4 F8"
_cell_length_a       27.89365
_cell_length_b       9.25337
_cell_length_c       7.768830000000001
_cell_angle_alpha    89.89091
_cell_angle_beta     90.19801
_cell_angle_gamma    90.58547

_space_group_name_H-M_alt    "P 1"
_space_group_IT_number       1

loop_
  _space_group_symop_operation_xyz
  'x, y, z'

loop_
  _atom_site_type_symbol
  _atom_site_label
  _atom_site_symmetry_multiplicity
  _atom_site_fract_x
  _atom_site_fract_y
  _atom_site_fract_z
  _atom_site_occupancy
  O   O1        1.0  0.5  0.28839  0.6427600000000002  1.0000
  O   O2        1.0  0.5  0.7116100000000002  0.35724  1.0000
  O   O3        1.0  0.5  0.7116100000000002  0.6427600000000002  1.0000
  O   O4        1.0  0.5  0.28839  0.35724  1.0000
  C   C1        1.0  0.50006  0.21971  0.5001  1.0000
  C   C2        1.0  0.5  0.7802900000000002  0.49991000000000013  1.0000
  O   O5        1.0  0.43026  0.5  0.64277  1.0000
  O   O6        1.0  0.56974  0.5  0.35723  1.0000
  O   O7        1.0  0.56974  0.5  0.64277  1.0000
  O   O8        1.0  0.43026  0.5  0.35723  1.0000
  C   C3        1.0  0.40723  0.49871  0.4995900000000001  1.0000
  C   C4        1.0  0.59258  0.49752  0.50033  1.0000
  Cu  Cu1       1.0  0.5  0.5  0.6690800000000002  1.0000
  Cu  Cu2       1.0  0.5  0.5  0.3309200000000001  1.0000
  C   C5        1.0  0.17752  0.36307  0.5191400000000003  1.0000
  C   C6        1.0  0.82429  0.59361  0.41345  1.0000
  C   C7        1.0  0.17792  0.61099  0.4335  1.0000
  C   C8        1.0  0.8247399999999999  0.34091  0.46373  1.0000
  O   O9        1.0  0.20222  0.24556000000000003  0.5693300000000001  1.0000
  O   O10       1.0  0.8022899999999997  0.7115500000000001  0.35023  1.0000
  O   O11       1.0  0.20309  0.73153  0.3929  1.0000
  O   O12       1.0  0.8037999999999998  0.21695000000000006  0.51628  1.0000
  N   N1        1.0  0.20173999999999997  0.48847  0.48079  1.0000
  N   N2        1.0  0.7989799999999999  0.46738  0.44696  1.0000
  C   C9        1.0  0.27754  0.58495  0.59833  1.0000
  C   C10       1.0  0.71657  0.3488100000000001  0.45023000000000013  1.0000
  C   C11       1.0  0.2793  0.39827  0.3819  1.0000
  C   C12       1.0  0.72365  0.60134  0.51432  1.0000
  C   C13       1.0  0.32767  0.59067  0.60269  1.0000
  C   C14       1.0  0.66779  0.35509000000000013  0.49184  1.0000
  C   C15       1.0  0.32931  0.3962900000000001  0.38832  1.0000
  C   C16       1.0  0.67387  0.61445  0.50291  1.0000
  C   C17       1.0  0.25331  0.49066000000000004  0.4872300000000001  1.0000
  C   C18       1.0  0.7466  0.47175  0.46884  1.0000
  C   C19       1.0  0.10203  0.48236000000000007  0.46172  1.0000
  C   C20       1.0  0.89982  0.47158  0.43739  1.0000
  C   C21       1.0  0.1272  0.3564700000000001  0.5074  1.0000
  C   C22       1.0  0.87413  0.60002  0.4364900000000001  1.0000
  C   C23       1.0  0.12751  0.61134  0.4255600000000001  1.0000
  C   C24       1.0  0.8746199999999997  0.34037  0.4357700000000001  1.0000
  C   C25       1.0  0.10141  0.22872  0.54389  1.0000
  C   C26       1.0  0.8985099999999999  0.73069  0.46424  1.0000
  C   C27       1.0  0.10205  0.7355900000000001  0.3777500000000001  1.0000
  C   C28       1.0  0.8998699999999997  0.21297  0.4061300000000001  1.0000
  C   C29       1.0  0.35429  0.49491  0.49762  1.0000
  C   C30       1.0  0.6451499999999998  0.48936  0.50005  1.0000
  H   H1        1.0  0.25999  0.32615  0.29609000000000013  1.0000
  H   H2        1.0  0.74414  0.6945800000000002  0.5543500000000002  1.0000
  H   H3        1.0  0.25685  0.65545  0.67992  1.0000
  H   H4        1.0  0.72987  0.24554  0.41015  1.0000
  C   C31       1.0  0.9758699999999998  0.34292  0.44027  1.0000
  C   C32       1.0  0.025960000000000004  0.6096100000000001  0.4257200000000001  1.0000
  C   C33       1.0  0.97533  0.6083400000000001  0.4432  1.0000
  C   C34       1.0  0.026079999999999992  0.34634  0.47061  1.0000
  C   C35       1.0  0.95051  0.47432  0.43987  1.0000
  C   C36       1.0  0.05127  0.47938  0.45251000000000013  1.0000
  C   C37       1.0  0.94993  0.21453000000000003  0.40359  1.0000
  C   C38       1.0  0.052139999999999985  0.73444  0.3763300000000001  1.0000
  C   C39       1.0  0.9484699999999998  0.73456  0.47305  1.0000
  C   C40       1.0  0.05171  0.22387  0.52686  1.0000
  C   C41       1.0  0.5001  0.06502  0.50018  1.0000
  C   C42       1.0  0.50009  0.9349700000000001  0.49991000000000013  1.0000
  N   N3        1.0  0.5  0.5  0.07682  1.0000
  N   N4        1.0  0.5  0.5  0.9231800000000002  1.0000
  S   S1        1.0  0.3585499999999999  0.26243  0.2649  1.0000
  O   O13       1.0  0.3827599999999999  0.33209  0.11303  1.0000
  O   O14       1.0  0.39556  0.18793000000000004  0.3732700000000001  1.0000
  O   O15       1.0  0.31896999999999986  0.13835  0.19186000000000006  1.0000
  H   H5        1.0  0.30921999999999994  0.08241  0.29505  1.0000
  S   S2        1.0  0.64978  0.78863  0.4871200000000001  1.0000
  O   O16       1.0  0.6059099999999998  0.78831  0.37462  1.0000
  O   O17       1.0  0.6364099999999999  0.83899  0.66412  1.0000
  O   O18       1.0  0.69075  0.9002100000000001  0.3970800000000001  1.0000
  H   H6        1.0  0.71679  0.91142  0.4828800000000001  1.0000
  S   S3        1.0  0.3552599999999999  0.7236900000000003  0.73548  1.0000
  O   O19       1.0  0.39317  0.80331  0.6352  1.0000
  O   O20       1.0  0.31905  0.8308300000000002  0.79755  1.0000
  O   O21       1.0  0.38082  0.64392  0.9069000000000003  1.0000
  H   H7        1.0  0.35376  0.60047  0.97181  1.0000
  S   S4        1.0  0.6392599999999998  0.19524  0.56105  1.0000
  O   O22       1.0  0.61803  0.11829000000000002  0.40834  1.0000
  O   O23       1.0  0.67649  0.10316  0.6460300000000002  1.0000
  O   O24       1.0  0.5961599999999999  0.22619  0.7062300000000002  1.0000
  H   H8        1.0  0.6134  0.25949  0.8109200000000002  1.0000
  F   F1        1.0  0.12388999999999997  0.10743000000000001  0.59877  1.0000
  F   F2        1.0  0.8737  0.85077  0.50492  1.0000
  F   F3        1.0  0.12511  0.8591300000000002  0.32962  1.0000
  F   F4        1.0  0.8760099999999997  0.09073  0.36079  1.0000
  F   F5        1.0  0.97235  0.09546  0.3443000000000001  1.0000
  F   F6        1.0  0.03006  0.85157  0.3086700000000001  1.0000
  F   F7        1.0  0.96964  0.8567900000000002  0.53353  1.0000
  F   F8        1.0  0.02882  0.10308  0.58409  1.0000
