data_image0
_chemical_formula_structural       C36Cr6H9O26CHOCHOCO2H
_chemical_formula_sum              "C39 Cr6 H12 O30"
_cell_length_a       10.60575
_cell_length_b       10.69105
_cell_length_c       17.149220000000003
_cell_angle_alpha    80.66673
_cell_angle_beta     89.55203000000002
_cell_angle_gamma    119.37321999999999

_space_group_name_H-M_alt    "P 1"
_space_group_IT_number       1

loop_
  _space_group_symop_operation_xyz
  'x, y, z'

loop_
  _atom_site_type_symbol
  _atom_site_label
  _atom_site_symmetry_multiplicity
  _atom_site_fract_x
  _atom_site_fract_y
  _atom_site_fract_z
  _atom_site_occupancy
  C   C1        1.0  0.22335000000000016  0.8548700000000001  0.1288  1.0000
  C   C2        1.0  0.7994100000000002  0.4291599999999999  0.2626700000000001  1.0000
  C   C3        1.0  0.79202  0.42042  0.18304000000000004  1.0000
  C   C4        1.0  0.65375  0.34635999999999995  0.15589000000000006  1.0000
  C   C5        1.0  0.66881  0.8487899999999999  0.20544  1.0000
  C   C6        1.0  0.6806100000000002  0.8390200000000001  0.27477000000000007  1.0000
  C   C7        1.0  0.18090000000000006  0.8262500000000002  0.21122000000000005  1.0000
  C   C8        1.0  0.15126  0.81971  0.27979  1.0000
  C   C9        1.0  0.6443500000000002  0.32338000000000006  0.77815  1.0000
  C   C10       1.0  0.6515300000000002  0.3457299999999998  0.7076300000000002  1.0000
  C   C11       1.0  0.63664  0.72056  0.80289  1.0000
  C   C12       1.0  0.6368300000000001  0.28105  0.08594  1.0000
  C   C13       1.0  0.6292700000000001  0.7026099999999998  0.72522  1.0000
  C   C14       1.0  0.6678600000000001  0.8228899999999999  0.66392  1.0000
  C   C15       1.0  0.7206100000000003  0.96283  0.67983  1.0000
  C   C16       1.0  0.7248400000000002  0.9804800000000002  0.7581  1.0000
  C   C17       1.0  0.6804500000000001  0.8585300000000001  0.81956  1.0000
  C   C18       1.0  0.07807999999999991  0.87618  0.7901  1.0000
  C   C19       1.0  0.06589  0.87372  0.71023  1.0000
  C   C20       1.0  0.12495000000000003  0.8067299999999998  0.6698  1.0000
  C   C21       1.0  0.18921000000000016  0.7313900000000002  0.71115  1.0000
  C   C22       1.0  0.20023999999999992  0.7328599999999998  0.7919400000000002  1.0000
  C   C23       1.0  0.6401300000000002  0.85861  0.12545000000000003  1.0000
  C   C24       1.0  0.1530900000000001  0.81197  0.83021  1.0000
  C   C25       1.0  0.68696  0.80954  0.35711  1.0000
  C   C26       1.0  0.6896000000000001  0.3963999999999999  0.39461  1.0000
  C   C27       1.0  0.10360000000000008  0.81016  0.3591700000000001  1.0000
  C   C28       1.0  0.67713  0.8009499999999999  0.5846600000000001  1.0000
  C   C29       1.0  0.6790800000000001  0.38319  0.62454  1.0000
  C   C30       1.0  0.09409000000000008  0.80052  0.58804  1.0000
  C   C31       1.0  0.21746000000000001  0.85832  0.90202  1.0000
  C   C32       1.0  0.63733  0.28397  0.86091  1.0000
  C   C33       1.0  0.6444799999999999  0.8683799999999998  0.8981400000000003  1.0000
  C   C34       1.0  0.52731  0.30141  0.20616  1.0000
  C   C35       1.0  0.5368200000000002  0.31455000000000005  0.28522  1.0000
  C   C36       1.0  0.6723900000000002  0.37157999999999997  0.31427000000000005  1.0000
  Cr  Cr1       1.0  0.40224000000000015  0.7838900000000001  0.019450000000000005  1.0000
  Cr  Cr2       1.0  0.38236  0.0979  0.9918000000000001  1.0000
  Cr  Cr3       1.0  0.71538  0.11816999999999993  0.9887000000000001  1.0000
  Cr  Cr4       1.0  0.9366500000000001  0.8824199999999999  0.4655100000000001  1.0000
  Cr  Cr5       1.0  0.6057700000000001  0.5656200000000002  0.49336  1.0000
  Cr  Cr6       1.0  0.92134  0.55049  0.49638000000000004  1.0000
  H   H1        1.0  0.42002  0.24597000000000005  0.1862  1.0000
  H   H2        1.0  0.0072200000000000614  0.92304  0.67968  1.0000
  H   H3        1.0  0.25814999999999994  0.6834399999999999  0.8231600000000002  1.0000
  H   H4        1.0  0.4388400000000001  0.2763399999999999  0.32402  1.0000
  H   H5        1.0  0.9055100000000001  0.48478999999999994  0.28412  1.0000
  H   H6        1.0  0.60135  0.62594  0.85001  1.0000
  H   H7        1.0  0.59484  0.59478  0.71293  1.0000
  H   H8        1.0  0.75561  0.05653000000000004  0.63218  1.0000
  H   H9        1.0  0.7563400000000002  0.08755000000000004  0.77063  1.0000
  O   O1        1.0  0.5217800000000001  0.7571099999999998  0.10890000000000002  1.0000
  O   O2        1.0  0.51333  0.22833  0.89866  1.0000
  O   O3        1.0  0.73923  0.26613000000000003  0.8880500000000002  1.0000
  O   O4        1.0  0.7125800000000001  0.9918500000000001  0.9187700000000002  1.0000
  O   O5        1.0  0.4999900000000001  0.99998  0.9999800000000001  1.0000
  O   O6        1.0  0.08376999999999998  0.91117  0.37603  1.0000
  O   O7        1.0  0.80877  0.88034  0.3838900000000001  1.0000
  O   O8        1.0  0.58434  0.6894599999999999  0.39416  1.0000
  O   O9        1.0  0.6143200000000001  0.44393999999999995  0.42359  1.0000
  O   O10       1.0  0.80502  0.41003999999999996  0.4213400000000001  1.0000
  O   O11       1.0  0.04924000000000001  0.68545  0.40329  1.0000
  O   O12       1.0  0.27516  0.78381  0.10112000000000002  1.0000
  O   O13       1.0  0.07752000000000002  0.90301  0.5518  1.0000
  O   O14       1.0  0.80298  0.87278  0.54683  1.0000
  O   O15       1.0  0.57809  0.6813  0.56992  1.0000
  O   O16       1.0  0.6085299999999999  0.4363699999999999  0.5865300000000002  1.0000
  O   O17       1.0  0.79877  0.40188  0.5971  1.0000
  O   O18       1.0  0.04344999999999995  0.6778899999999999  0.5662300000000002  1.0000
  O   O19       1.0  0.82125  0.66618  0.48509  1.0000
  O   O20       1.0  0.23789999999999994  0.9726  0.09098  1.0000
  O   O21       1.0  0.5111900000000003  0.22054  0.06162  1.0000
  O   O22       1.0  0.73692  0.25772000000000006  0.06384  1.0000
  O   O23       1.0  0.71045  0.9840500000000001  0.08172  1.0000
  O   O24       1.0  0.52409  0.76552  0.93311  1.0000
  O   O25       1.0  0.27729999999999994  0.7915999999999999  0.9381600000000002  1.0000
  O   O26       1.0  0.24020999999999998  0.98101  0.91519  1.0000
  C   C37       1.0  0.25321  0.65972  0.67054  1.0000
  H   H10       1.0  0.27236  0.68199  0.60631  1.0000
  O   O27       1.0  0.28633999999999993  0.5750899999999998  0.7085800000000002  1.0000
  C   C38       1.0  0.9289800000000001  0.4856499999999998  0.13008000000000006  1.0000
  H   H11       1.0  0.9306  0.5194  0.06670000000000002  1.0000
  O   O28       1.0  0.04077000000000001  0.49988  0.15665  1.0000
  C   C39       1.0  0.01917000000000005  0.9531  0.8293900000000002  1.0000
  O   O29       1.0  0.02775999999999996  0.06608999999999991  0.7935600000000003  1.0000
  O   O30       1.0  0.9590400000000001  0.89904  0.90861  1.0000
  H   H12       1.0  0.93977  0.9697999999999999  0.9320500000000003  1.0000
