data_image0
_chemical_formula_structural       O3CO2CO2VOCOCVOHC14HC12HC14H3O3CO2CO2VOCOCVO2CH2CH2CH3FOCH2CH2CH3FOCH2CH2CH3OCH2CH2CH3OCH2CH2CH3FOCH2CH2CH3F
_chemical_formula_sum              "O26 C66 V4 H48 F4"
_cell_length_a       6.99578
_cell_length_b       17.36443
_cell_length_c       18.69942
_cell_angle_alpha    105.97344
_cell_angle_beta     89.50764999999998
_cell_angle_gamma    90.21777000000002

_symmetry_space_group_name_H-M    'P 1'
_symmetry_Int_Tables_number       1

loop_
  _symmetry_equiv_pos_as_xyz
  'x,y,z'

loop_
  _atom_site_type_symbol
  _atom_site_label
  _atom_site_symmetry_multiplicity
  _atom_site_fract_x
  _atom_site_fract_y
  _atom_site_fract_z
  _atom_site_occupancy
  O   O1        1.0  0.49436  0.41568000000000016  0.41376  1.0000
  O   O2        1.0  0.81881  0.43291  0.55723  1.0000
  O   O3        1.0  0.9942900000000002  0.5843200000000002  0.58624  1.0000
  C   C1        1.0  0.64997  0.41685  0.58124  1.0000
  O   O4        1.0  0.8237400000000002  0.40644000000000013  0.41251999999999994  1.0000
  O   O5        1.0  0.99925  0.55766  0.4405  1.0000
  C   C2        1.0  0.65579  0.38532  0.38356  1.0000
  O   O6        1.0  0.4894  0.44234000000000007  0.5594999999999999  1.0000
  O   O7        1.0  0.6625  0.54965  0.50935  1.0000
  V   V1        1.0  0.9353400000000002  0.49079000000000006  0.49827  1.0000
  O   O8        1.0  0.32927  0.56709  0.44277  1.0000
  C   C3        1.0  0.16145  0.5847900000000003  0.42026  1.0000
  O   O9        1.0  0.32434  0.5935600000000002  0.58748  1.0000
  C   C4        1.0  0.15617  0.61158  0.61824  1.0000
  V   V2        1.0  0.43597  0.5092100000000003  0.50173  1.0000
  O   O10       1.0  0.15894  0.4503499999999999  0.4906499999999999  1.0000
  H   H1        1.0  0.1791  0.85125  0.54028  1.0000
  C   C5        1.0  0.17855  0.5900100000000001  0.77173  1.0000
  C   C6        1.0  0.16828000000000004  0.5799300000000001  0.84401  1.0000
  C   C7        1.0  0.12793  0.6460199999999999  0.9047099999999999  1.0000
  C   C8        1.0  0.11613000000000001  0.7221900000000002  0.8948900000000001  1.0000
  C   C9        1.0  0.12981  0.7357600000000002  0.82348  1.0000
  C   C10       1.0  0.15298  0.66786  0.75992  1.0000
  C   C11       1.0  0.12445000000000003  0.81543  0.8152  1.0000
  C   C12       1.0  0.14126  0.8273500000000003  0.74242  1.0000
  C   C13       1.0  0.14375000000000002  0.75878  0.67904  1.0000
  C   C14       1.0  0.14877  0.67993  0.68721  1.0000
  C   C15       1.0  0.15693  0.9054800000000001  0.73011  1.0000
  C   C16       1.0  0.17956  0.9117500000000002  0.6564699999999999  1.0000
  C   C17       1.0  0.1671  0.8450300000000002  0.59622  1.0000
  C   C18       1.0  0.14779000000000003  0.76995  0.60688  1.0000
  H   H2        1.0  0.14318  0.7205000000000001  0.55701  1.0000
  C   C19       1.0  0.11216000000000002  0.86618  0.13448  1.0000
  C   C20       1.0  0.12055  0.8243200000000003  0.17874  1.0000
  C   C21       1.0  0.1308  0.77485  0.2313  1.0000
  C   C22       1.0  0.13926  0.73289  0.27545  1.0000
  C   C23       1.0  0.14914999999999995  0.68242  0.3272  1.0000
  C   C24       1.0  0.15574000000000002  0.63865  0.36983999999999995  1.0000
  C   C25       1.0  0.64131  0.36482  0.6332  1.0000
  C   C26       1.0  0.6373800000000002  0.3218100000000001  0.6765  1.0000
  C   C27       1.0  0.6340100000000001  0.27129  0.72813  1.0000
  C   C28       1.0  0.63196  0.22889000000000004  0.77195  1.0000
  C   C29       1.0  0.63058  0.17868  0.82392  1.0000
  C   C30       1.0  0.62679  0.13577000000000009  0.86733  1.0000
  H   H3        1.0  0.57281  0.12821  0.44549999999999995  1.0000
  C   C31       1.0  0.7102300000000001  0.40938000000000013  0.2328  1.0000
  C   C32       1.0  0.7514400000000002  0.4165400000000001  0.16110999999999995  1.0000
  C   C33       1.0  0.6984  0.35693  0.09933  1.0000
  C   C34       1.0  0.61703  0.28614000000000006  0.107  1.0000
  C   C35       1.0  0.63082  0.26772  0.17651  1.0000
  C   C36       1.0  0.66293  0.33226  0.2422  1.0000
  C   C37       1.0  0.61363  0.18766000000000005  0.18174  1.0000
  C   C38       1.0  0.60601  0.17315000000000003  0.25260999999999995  1.0000
  C   C39       1.0  0.6184100000000002  0.23782000000000003  0.31887  1.0000
  C   C40       1.0  0.64662  0.31772  0.31396  1.0000
  C   C41       1.0  0.5832600000000002  0.09401  0.25856  1.0000
  C   C42       1.0  0.57141  0.07846  0.32745  1.0000
  C   C43       1.0  0.5821  0.14086  0.39202  1.0000
  C   C44       1.0  0.60555  0.21949000000000005  0.38857  1.0000
  H   H4        1.0  0.7154000000000003  0.3666200000000001  0.04482  1.0000
  H   H5        1.0  0.57305  0.04300999999999999  0.21006  1.0000
  H   H6        1.0  0.55349  0.01756999999999999  0.33072999999999997  1.0000
  O   O11       1.0  0.77569  0.05775  0.9405700000000001  1.0000
  O   O12       1.0  0.4412  0.09357  0.08749  1.0000
  O   O13       1.0  0.26584  0.94232  0.05948  1.0000
  C   C45       1.0  0.6091000000000001  0.11808000000000002  0.11366  1.0000
  O   O14       1.0  0.44627  0.06711  0.94279  1.0000
  O   O15       1.0  0.27095  0.9156600000000003  0.91375  1.0000
  C   C46       1.0  0.61568  0.08354999999999997  0.9191199999999999  1.0000
  O   O16       1.0  0.77058  0.08440000000000002  0.08629999999999999  1.0000
  O   O17       1.0  0.60264  0.9504  0.9906899999999998  1.0000
  V   V3        1.0  0.3297400000000001  0.009200000000000003  0.0017299999999999998  1.0000
  O   O18       1.0  0.9409  0.90636  0.91245  1.0000
  C   C47       1.0  0.11047  0.8855300000000003  0.88316  1.0000
  O   O19       1.0  0.93583  0.9328200000000002  0.05716  1.0000
  C   C48       1.0  0.10382  0.9173900000000003  0.08169  1.0000
  V   V4        1.0  0.82913  0.9906800000000001  0.99818  1.0000
  O   O20       1.0  0.1061  0.04959  0.00931  1.0000
  O   O21       1.0  0.72979  0.47622000000000003  0.29311  1.0000
  C   C49       1.0  0.6080900000000001  0.53914  0.28615  1.0000
  H   H7        1.0  0.499  0.5489  0.33019  1.0000
  H   H8        1.0  0.52745  0.527  0.23290999999999998  1.0000
  C   C50       1.0  0.72545  0.61554  0.29704  1.0000
  H   H9        1.0  0.78102  0.63286  0.35461  1.0000
  H   H10       1.0  0.84634  0.60348  0.25686  1.0000
  C   C51       1.0  0.61101  0.6854999999999999  0.28554999999999997  1.0000
  H   H11       1.0  0.52152  0.66627  0.23502  1.0000
  H   H12       1.0  0.71004  0.73317  0.27885  1.0000
  H   H13       1.0  0.52066  0.71129  0.33524  1.0000
  F   F1        1.0  0.8300900000000001  0.48434000000000005  0.15106  1.0000
  O   O22       1.0  0.54053  0.23214000000000004  0.04506  1.0000
  C   C52       1.0  0.38417  0.26614  0.01649  1.0000
  H   H14       1.0  0.38094  0.23790000000000003  0.95573  1.0000
  H   H15       1.0  0.39714  0.33145  0.02211  1.0000
  C   C53       1.0  0.1952  0.24982000000000001  0.052  1.0000
  H   H16       1.0  0.20992  0.19791  0.07508  1.0000
  H   H17       1.0  0.15673  0.30250999999999995  0.09893999999999999  1.0000
  C   C54       1.0  0.03383000000000001  0.23216  0.99545  1.0000
  H   H18       1.0  0.0030100000000000036  0.28558  0.9757599999999998  1.0000
  H   H19       1.0  0.9046  0.21453  0.02135  1.0000
  H   H20       1.0  0.07162  0.1809800000000001  0.94737  1.0000
  F   F2        1.0  0.61684  0.27628  0.45449999999999996  1.0000
  O   O23       1.0  0.24573  0.5257300000000003  0.71532  1.0000
  C   C55       1.0  0.09929  0.4686  0.68866  1.0000
  H   H21       1.0  0.09806  0.45933999999999997  0.6281099999999998  1.0000
  H   H22       1.0  0.95288  0.48926000000000003  0.70954  1.0000
  C   C56       1.0  0.14255999999999996  0.38749  0.70381  1.0000
  H   H23       1.0  0.2824300000000001  0.3892000000000001  0.731  1.0000
  H   H24       1.0  0.032680000000000015  0.3749500000000001  0.74243  1.0000
  C   C57       1.0  0.14613  0.3177300000000001  0.63285  1.0000
  H   H25       1.0  0.005580000000000001  0.3103800000000001  0.60507  1.0000
  H   H26       1.0  0.18139000000000005  0.26132000000000005  0.64675  1.0000
  H   H27       1.0  0.25569  0.3281  0.5932999999999999  1.0000
  O   O24       1.0  0.16963  0.5026  0.8515199999999999  1.0000
  C   C58       1.0  0.32221  0.48886  0.8957099999999999  1.0000
  H   H28       1.0  0.2977400000000001  0.4284400000000001  0.90363  1.0000
  H   H29       1.0  0.3225800000000001  0.53057  0.9524099999999999  1.0000
  C   C59       1.0  0.51839  0.4895900000000001  0.85844  1.0000
  H   H30       1.0  0.51141  0.46054000000000006  0.7979699999999998  1.0000
  H   H31       1.0  0.56415  0.5525399999999999  0.8658599999999999  1.0000
  C   C60       1.0  0.66622  0.4455600000000001  0.89204  1.0000
  H   H32       1.0  0.66994  0.47068  0.95334  1.0000
  H   H33       1.0  0.80957  0.45117  0.86812  1.0000
  H   H34       1.0  0.62923  0.3810800000000001  0.87958  1.0000
  O   O25       1.0  0.10666000000000002  0.6382500000000001  0.97603  1.0000
  C   C61       1.0  0.9186900000000002  0.61314  0.9867999999999999  1.0000
  H   H35       1.0  0.92838  0.55375  0.998  1.0000
  H   H36       1.0  0.8231400000000001  0.6071599999999999  0.9381199999999998  1.0000
  C   C62       1.0  0.82804  0.67242  0.05445  1.0000
  H   H37       1.0  0.91137  0.67312  0.10491999999999999  1.0000
  H   H38       1.0  0.83111  0.7334800000000002  0.04642  1.0000
  C   C63       1.0  0.6210800000000001  0.65007  0.06599  1.0000
  H   H39       1.0  0.53493  0.64896  0.01609  1.0000
  H   H40       1.0  0.55848  0.6954  0.1143  1.0000
  H   H41       1.0  0.6142100000000001  0.5904  0.07696  1.0000
  F   F3        1.0  0.08506  0.7820500000000002  0.95747  1.0000
  O   O26       1.0  0.17804  0.97301  0.79018  1.0000
  C   C64       1.0  0.06723000000000003  0.03915999999999991  0.7840899999999997  1.0000
  H   H42       1.0  0.9726300000000002  0.05647999999999996  0.8332199999999997  1.0000
  H   H43       1.0  0.9706300000000002  0.026729999999999997  0.73513  1.0000
  C   C65       1.0  0.2002  0.10987999999999998  0.7866499999999998  1.0000
  H   H44       1.0  0.26294  0.12912000000000007  0.84276  1.0000
  H   H45       1.0  0.31783  0.09119000000000003  0.74545  1.0000
  C   C66       1.0  0.09837  0.18151  0.77253  1.0000
  H   H46       1.0  0.014900000000000005  0.16324  0.72031  1.0000
  H   H47       1.0  0.20553  0.22705000000000006  0.76748  1.0000
  H   H48       1.0  0.004020000000000001  0.20961999999999997  0.82035  1.0000
  F   F4        1.0  0.21901  0.9825200000000001  0.64206  1.0000
