data_image0
_chemical_formula_structural       C42Cr6H17O27CH3
_chemical_formula_sum              "C43 Cr6 H20 O27"
_cell_length_a       10.62216
_cell_length_b       10.69482
_cell_length_c       16.981919999999995
_cell_angle_alpha    80.88301
_cell_angle_beta     99.05545999999998
_cell_angle_gamma    118.45077

_space_group_name_H-M_alt    "P 1"
_space_group_IT_number       1

loop_
  _space_group_symop_operation_xyz
  'x, y, z'

loop_
  _atom_site_type_symbol
  _atom_site_label
  _atom_site_symmetry_multiplicity
  _atom_site_fract_x
  _atom_site_fract_y
  _atom_site_fract_z
  _atom_site_occupancy
  C   C1        1.0  0.38449  0.2851000000000001  0.6320199999999998  1.0000
  C   C2        1.0  0.5152300000000002  0.7108300000000002  0.7349  1.0000
  C   C3        1.0  0.49315000000000014  0.7266200000000003  0.811  1.0000
  C   C4        1.0  0.09428000000000002  0.49582000000000004  0.77101  1.0000
  C   C5        1.0  0.11888  0.47667  0.6891  1.0000
  C   C6        1.0  0.39947999999999995  0.6179000000000002  0.6857699999999998  1.0000
  C   C7        1.0  0.82291  0.65689  0.70598  1.0000
  C   C8        1.0  0.85004  0.6843500000000001  0.77392  1.0000
  C   C9        1.0  0.36502000000000007  0.23507000000000003  0.71453  1.0000
  C   C10       1.0  0.33422  0.18801000000000004  0.78185  1.0000
  C   C11       1.0  0.33567  0.66372  0.27778  1.0000
  C   C12       1.0  0.4139100000000001  0.6202500000000001  0.60157  1.0000
  C   C13       1.0  0.32329  0.67302  0.20692  1.0000
  C   C14       1.0  0.8011199999999999  0.6551200000000001  0.14951999999999993  1.0000
  C   C15       1.0  0.76353  0.5242  0.19681  1.0000
  C   C16       1.0  0.76063  0.51939  0.2774299999999999  1.0000
  C   C17       1.0  0.7907000000000001  0.7588000000000003  0.26364  1.0000
  C   C18       1.0  0.79574  0.76595  0.18125  1.0000
  C   C19       1.0  0.8219499999999998  0.41707  0.21025  1.0000
  C   C20       1.0  0.82066  0.41684999999999994  0.29939  1.0000
  C   C21       1.0  0.78765  0.63909  0.31342999999999993  1.0000
  C   C22       1.0  0.26082  0.0533  0.17981  1.0000
  C   C23       1.0  0.77751  0.6192900000000001  0.62669  1.0000
  C   C24       1.0  0.15579  0.06787000000000001  0.21164999999999995  1.0000
  C   C25       1.0  0.17875999999999997  0.10682000000000001  0.28781999999999996  1.0000
  C   C26       1.0  0.40338000000000007  0.09556000000000002  0.30917  1.0000
  C   C27       1.0  0.37824  0.0527  0.23178  1.0000
  C   C28       1.0  0.08171000000000002  0.15747  0.18005  1.0000
  C   C29       1.0  0.10432999999999999  0.19821999999999998  0.26404  1.0000
  C   C30       1.0  0.3090999999999999  0.13548000000000002  0.3346099999999999  1.0000
  C   C31       1.0  0.8907600000000001  0.7015500000000001  0.85611  1.0000
  C   C32       1.0  0.31654000000000004  0.7058600000000004  0.8986799999999998  1.0000
  C   C33       1.0  0.2869900000000001  0.11914000000000002  0.85857  1.0000
  C   C34       1.0  0.34963  0.22298000000000007  0.4006399999999999  1.0000
  C   C35       1.0  0.88127  0.68865  0.08134  1.0000
  C   C36       1.0  0.31313  0.70067  0.12372999999999999  1.0000
  C   C37       1.0  0.2456  0.03771999999999999  0.09488  1.0000
  C   C38       1.0  0.36512  0.65412  0.36089  1.0000
  C   C39       1.0  0.76557  0.6187700000000003  0.39704  1.0000
  C   C40       1.0  0.35437000000000013  0.6509800000000002  0.83768  1.0000
  C   C41       1.0  0.24979  0.53844  0.79516  1.0000
  C   C42       1.0  0.27239  0.52164  0.72047  1.0000
  Cr  Cr1       1.0  0.6084400000000001  0.38908000000000004  0.51968  1.0000
  Cr  Cr2       1.0  0.28864  0.40009000000000017  0.49076  1.0000
  Cr  Cr3       1.0  0.60294  0.7108  0.48951000000000006  1.0000
  Cr  Cr4       1.0  0.05253000000000001  0.9475600000000001  0.96421  1.0000
  Cr  Cr5       1.0  0.05997000000000015  0.6268000000000002  0.99292  1.0000
  Cr  Cr6       1.0  0.3733199999999999  0.93844  0.9953699999999999  1.0000
  H   H1        1.0  0.61875  0.7796799999999999  0.71214  1.0000
  H   H2        1.0  0.74315  0.31356  0.32875  1.0000
  H   H3        1.0  0.9301900000000001  0.46596  0.33165  1.0000
  H   H4        1.0  0.50153  0.10927000000000002  0.34561  1.0000
  H   H5        1.0  0.45658  0.03146  0.21067999999999998  1.0000
  H   H6        1.0  0.9666499999999999  0.09413  0.15944  1.0000
  H   H7        1.0  0.14386  0.24997000000000003  0.13752  1.0000
  H   H8        1.0  0.17706  0.31413  0.26845  1.0000
  H   H9        1.0  0.0023799999999999876  0.15467  0.29252  1.0000
  H   H10       1.0  0.5801900000000002  0.8091400000000001  0.8444999999999998  1.0000
  H   H11       1.0  0.06781  0.5848900000000001  0.7698699999999998  1.0000
  H   H12       1.0  0.022630000000000018  0.39381  0.80416  1.0000
  H   H13       1.0  0.06199  0.36346  0.67516  1.0000
  H   H14       1.0  0.1057  0.5542100000000001  0.6408699999999998  1.0000
  H   H15       1.0  0.7951700000000003  0.8483500000000004  0.28836  1.0000
  H   H16       1.0  0.81101  0.8632500000000001  0.14436  1.0000
  H   H17       1.0  0.93346  0.45652  0.19428  1.0000
  O   O1        1.0  0.75402  0.49758999999999987  0.60993  1.0000
  O   O2        1.0  0.29508  0.53362  0.39789  1.0000
  O   O3        1.0  0.48528  0.7466200000000001  0.38844  1.0000
  O   O4        1.0  0.72055  0.69622  0.42001  1.0000
  O   O5        1.0  0.50001  0.49999  0.4999799999999999  1.0000
  O   O6        1.0  0.16332000000000005  0.09290000000000001  0.87445  1.0000
  O   O7        1.0  0.9346500000000001  0.8220800000000001  0.88284  1.0000
  O   O8        1.0  0.91552  0.60414  0.89367  1.0000
  O   O9        1.0  0.19175999999999993  0.63811  0.9232299999999998  1.0000
  O   O10       1.0  0.40618000000000015  0.8269300000000003  0.92066  1.0000
  O   O11       1.0  0.35861999999999994  0.06287000000000004  0.9019499999999998  1.0000
  O   O12       1.0  0.48142  0.27139  0.60063  1.0000
  O   O13       1.0  0.16391000000000003  0.08546000000000002  0.05021  1.0000
  O   O14       1.0  0.9352  0.8151700000000001  0.04577  1.0000
  O   O15       1.0  0.9161200000000002  0.59669  0.06943  1.0000
  O   O16       1.0  0.19230999999999995  0.6312  0.08616999999999998  1.0000
  O   O17       1.0  0.4067700000000001  0.8194800000000002  0.09641999999999998  1.0000
  O   O18       1.0  0.35917  0.05596  0.06488  1.0000
  O   O19       1.0  0.1619399999999999  0.8376  0.98416  1.0000
  O   O20       1.0  0.26381  0.25455  0.58959  1.0000
  O   O21       1.0  0.30082  0.5312  0.56089  1.0000
  O   O22       1.0  0.49148000000000014  0.7440200000000002  0.56427  1.0000
  O   O23       1.0  0.7262899999999999  0.6938000000000001  0.5830099999999998  1.0000
  O   O24       1.0  0.7478300000000001  0.5001900000000002  0.43409  1.0000
  O   O25       1.0  0.47568000000000005  0.27380000000000004  0.43763  1.0000
  O   O26       1.0  0.25762  0.25716  0.41375  1.0000
  O   O27       1.0  0.7195900000000001  0.28215  0.18508  1.0000
  C   C43       1.0  0.73229  0.27575000000000005  0.10471  1.0000
  H   H18       1.0  0.84374  0.30156000000000005  0.0951  1.0000
  H   H19       1.0  0.6957700000000001  0.34677000000000013  0.06403  1.0000
  H   H20       1.0  0.66094  0.16491  0.08911  1.0000
