data_image0
_chemical_formula_structural       C44Cr6H18O30
_chemical_formula_sum              "C44 Cr6 H18 O30"
_cell_length_a       10.7303
_cell_length_b       10.69913
_cell_length_c       17.043479999999995
_cell_angle_alpha    80.51178
_cell_angle_beta     99.56757000000002
_cell_angle_gamma    118.90606999999999

_space_group_name_H-M_alt    "P 1"
_space_group_IT_number       1

loop_
  _space_group_symop_operation_xyz
  'x, y, z'

loop_
  _atom_site_type_symbol
  _atom_site_label
  _atom_site_symmetry_multiplicity
  _atom_site_fract_x
  _atom_site_fract_y
  _atom_site_fract_z
  _atom_site_occupancy
  C   C1        1.0  0.36121  0.22911999999999993  0.62739  1.0000
  C   C2        1.0  0.32013  0.15923  0.77804  1.0000
  C   C3        1.0  0.36947  0.63715  0.27489  1.0000
  C   C4        1.0  0.37013000000000007  0.65473  0.58619  1.0000
  C   C5        1.0  0.34314000000000006  0.6558500000000002  0.20436000000000007  1.0000
  C   C6        1.0  0.83327  0.6657600000000001  0.15906  1.0000
  C   C7        1.0  0.86409  0.5709200000000001  0.21465  1.0000
  C   C8        1.0  0.86035  0.56775  0.29484  1.0000
  C   C9        1.0  0.7965200000000002  0.7603800000000001  0.26703  1.0000
  C   C10       1.0  0.80069  0.7624800000000002  0.18549  1.0000
  C   C11       1.0  0.79387  0.41158000000000006  0.21549  1.0000
  C   C12       1.0  0.39283999999999997  0.82934  0.67458  1.0000
  C   C13       1.0  0.7877300000000003  0.40603000000000006  0.30444  1.0000
  C   C14       1.0  0.82263  0.65962  0.32211  1.0000
  C   C15       1.0  0.32191999999999993  0.15923  0.16266  1.0000
  C   C16       1.0  0.7812100000000002  0.6211800000000001  0.62619  1.0000
  C   C17       1.0  0.22689000000000006  0.19225000000000003  0.19018  1.0000
  C   C18       1.0  0.22969000000000006  0.19702  0.27003  1.0000
  C   C19       1.0  0.4265300000000001  0.142  0.29906  1.0000
  C   C20       1.0  0.42501  0.13749  0.21762  1.0000
  C   C21       1.0  0.06644  0.11238999999999998  0.1818  1.0000
  C   C22       1.0  0.07136  0.11878999999999999  0.26980000000000004  1.0000
  C   C23       1.0  0.3762000000000001  0.85088  0.7502  1.0000
  C   C24       1.0  0.3270100000000001  0.17083000000000004  0.32532  1.0000
  C   C25       1.0  0.94738  0.72503  0.85165  1.0000
  C   C26       1.0  0.2826600000000001  0.7500900000000001  0.8827  1.0000
  C   C27       1.0  0.28398  0.11392  0.85765  1.0000
  C   C28       1.0  0.35009000000000007  0.22356  0.4012  1.0000
  C   C29       1.0  0.8838400000000002  0.6894300000000001  0.08233000000000003  1.0000
  C   C30       1.0  0.31609  0.69773  0.12282  1.0000
  C   C31       1.0  0.2850500000000001  0.1064  0.08545  1.0000
  C   C32       1.0  0.40268000000000004  0.62527  0.35888000000000003  1.0000
  C   C33       1.0  0.7702  0.62194  0.39926  1.0000
  C   C34       1.0  0.1414400000000001  0.4554400000000001  0.7959  1.0000
  C   C35       1.0  0.28215000000000007  0.7352400000000001  0.79899  1.0000
  C   C36       1.0  0.18632000000000007  0.60837  0.76429  1.0000
  C   C37       1.0  0.20374999999999993  0.5864  0.69001  1.0000
  C   C38       1.0  0.87082  0.34216000000000013  0.36102  1.0000
  C   C39       1.0  0.88985  0.36168999999999996  0.19149000000000005  1.0000
  C   C40       1.0  0.16121000000000002  0.43154999999999993  0.7144800000000002  1.0000
  C   C41       1.0  0.3165200000000001  0.69133  0.64768  1.0000
  C   C42       1.0  0.85066  0.66954  0.70263  1.0000
  C   C43       1.0  0.8977100000000006  0.7039  0.7693100000000003  1.0000
  C   C44       1.0  0.34503  0.18706  0.70971  1.0000
  Cr  Cr1       1.0  0.6084400000000001  0.38908000000000004  0.51968  1.0000
  Cr  Cr2       1.0  0.28864  0.40009  0.49076000000000003  1.0000
  Cr  Cr3       1.0  0.60294  0.7108  0.48950999999999995  1.0000
  Cr  Cr4       1.0  0.052529999999999945  0.94756  0.9642100000000001  1.0000
  Cr  Cr5       1.0  0.05997000000000007  0.6268000000000001  0.99292  1.0000
  Cr  Cr6       1.0  0.3733200000000001  0.93844  0.9953700000000001  1.0000
  H   H1        1.0  0.4758299999999999  0.9165199999999998  0.6414200000000002  1.0000
  H   H2        1.0  0.44479  0.9542700000000001  0.7728  1.0000
  H   H3        1.0  0.027950000000000023  0.3978  0.80933  1.0000
  H   H4        1.0  0.21893  0.44299  0.8445100000000002  1.0000
  H   H5        1.0  0.2505800000000002  0.40613000000000016  0.7162  1.0000
  H   H6        1.0  0.05930000000000002  0.35962999999999995  0.6811200000000002  1.0000
  H   H7        1.0  0.7641200000000001  0.83117  0.2861  1.0000
  H   H8        1.0  0.78037  0.83999  0.14356  1.0000
  H   H9        1.0  0.031390000000000036  0.37089000000000005  0.44816  1.0000
  H   H10       1.0  0.09094000000000002  0.39327  0.19238  1.0000
  H   H11       1.0  0.68662  0.36866  0.18083000000000002  1.0000
  H   H12       1.0  0.67669  0.36118  0.31918  1.0000
  H   H13       1.0  0.50519  0.12414  0.34115  1.0000
  H   H14       1.0  0.49785  0.10792  0.19859000000000004  1.0000
  H   H15       1.0  0.026370000000000008  0.0020499999999999997  0.16663  1.0000
  H   H16       1.0  0.018200000000000008  0.17439  0.14249  1.0000
  H   H17       1.0  0.027100000000000034  0.18599000000000002  0.28405  1.0000
  H   H18       1.0  0.03413  0.01262  0.30546  1.0000
  O   O1        1.0  0.7540200000000002  0.49759  0.60993  1.0000
  O   O2        1.0  0.40618  0.8269299999999999  0.92066  1.0000
  O   O3        1.0  0.35862  0.06286999999999997  0.90195  1.0000
  O   O4        1.0  0.4814200000000001  0.2713900000000001  0.60063  1.0000
  O   O5        1.0  0.16391  0.08546  0.05021  1.0000
  O   O6        1.0  0.9352000000000001  0.81517  0.04577  1.0000
  O   O7        1.0  0.9161200000000002  0.59669  0.06943  1.0000
  O   O8        1.0  0.19230999999999998  0.6312  0.08617  1.0000
  O   O9        1.0  0.4067700000000001  0.81948  0.09642  1.0000
  O   O10       1.0  0.35917  0.05596  0.06488000000000002  1.0000
  O   O11       1.0  0.16194  0.8376  0.98416  1.0000
  O   O12       1.0  0.29508  0.53362  0.39789  1.0000
  O   O13       1.0  0.26381000000000004  0.25455  0.58959  1.0000
  O   O14       1.0  0.3008199999999999  0.5311999999999999  0.5608900000000002  1.0000
  O   O15       1.0  0.4914800000000001  0.74402  0.56427  1.0000
  O   O16       1.0  0.72629  0.6938  0.5830100000000003  1.0000
  O   O17       1.0  0.74783  0.50019  0.43409  1.0000
  O   O18       1.0  0.47568  0.2738  0.43763  1.0000
  O   O19       1.0  0.25762  0.25716  0.41375  1.0000
  O   O20       1.0  0.83074  0.21337999999999996  0.36482  1.0000
  O   O21       1.0  0.9892100000000001  0.42818000000000006  0.41094  1.0000
  O   O22       1.0  0.84008  0.2663  0.14712  1.0000
  O   O23       1.0  0.4852800000000001  0.74662  0.38844  1.0000
  O   O24       1.0  0.03565  0.42769  0.21769000000000005  1.0000
  O   O25       1.0  0.72055  0.69622  0.42001  1.0000
  O   O26       1.0  0.5000100000000001  0.49999000000000005  0.49998  1.0000
  O   O27       1.0  0.16331999999999997  0.0929  0.87445  1.0000
  O   O28       1.0  0.9346500000000005  0.8220800000000001  0.8828400000000002  1.0000
  O   O29       1.0  0.91552  0.60414  0.89367  1.0000
  O   O30       1.0  0.19176000000000015  0.63811  0.92323  1.0000
