data_image0
_chemical_formula_structural       C40Cr6H22O27HOHClOHCl4OHCl
_chemical_formula_sum              "C40 Cr6 H26 O30 Cl6"
_cell_length_a       10.90965
_cell_length_b       10.98614
_cell_length_c       18.67582
_cell_angle_alpha    90.20898999999999
_cell_angle_beta     89.50332
_cell_angle_gamma    60.05653000000001

_space_group_name_H-M_alt    "P 1"
_space_group_IT_number       1

loop_
  _space_group_symop_operation_xyz
  'x, y, z'

loop_
  _atom_site_type_symbol
  _atom_site_label
  _atom_site_symmetry_multiplicity
  _atom_site_fract_x
  _atom_site_fract_y
  _atom_site_fract_z
  _atom_site_occupancy
  C   C1        1.0  0.23483000000000004  0.646  0.60825  1.0000
  C   C2        1.0  0.6723700000000002  0.5549699999999997  0.79981  1.0000
  C   C3        1.0  0.70441  0.67607  0.81115  1.0000
  C   C4        1.0  0.67202  0.6502099999999998  0.67538  1.0000
  C   C5        1.0  0.8235399999999998  0.62334  0.6879799999999999  1.0000
  C   C6        1.0  0.64626  0.54506  0.72003  1.0000
  C   C7        1.0  0.67914  0.1486  0.66832  1.0000
  C   C8        1.0  0.68998  0.16794  0.82857  1.0000
  C   C9        1.0  0.8007799999999999  0.10594  0.78185  1.0000
  C   C10       1.0  0.7890499999999998  0.1399  0.70481  1.0000
  C   C11       1.0  0.17646000000000006  0.6622099999999999  0.68019  1.0000
  C   C12       1.0  0.6549299999999999  0.62387  0.60043  1.0000
  C   C13       1.0  0.20119999999999988  0.66122  0.84085  1.0000
  C   C14       1.0  0.19702999999999984  0.56264  0.79987  1.0000
  C   C15       1.0  0.2283799999999999  0.54923  0.72304  1.0000
  C   C16       1.0  0.59321  0.5855499999999999  0.31211  1.0000
  C   C17       1.0  0.6313399999999999  0.66681  0.16078  1.0000
  C   C18       1.0  0.68805  0.53594  0.18804  1.0000
  C   C19       1.0  0.69763  0.50361  0.26585  1.0000
  C   C20       1.0  0.67022  0.14327  0.33104  1.0000
  C   C21       1.0  0.64303  0.16963  0.17551999999999998  1.0000
  C   C22       1.0  0.5519799999999999  0.15261  0.21807  1.0000
  C   C23       1.0  0.62937  0.22559  0.60118  1.0000
  C   C24       1.0  0.57995  0.11765  0.29441  1.0000
  C   C25       1.0  0.11742  0.68296  0.34741  1.0000
  C   C26       1.0  0.12660999999999997  0.68497  0.1882  1.0000
  C   C27       1.0  0.04267000000000001  0.79078  0.23377  1.0000
  C   C28       1.0  0.08019000000000001  0.7947  0.30729  1.0000
  C   C29       1.0  0.70352  0.10185  0.8976000000000001  1.0000
  C   C30       1.0  0.7263  0.6898699999999999  0.88743  1.0000
  C   C31       1.0  0.12031999999999997  0.70596  0.90779  1.0000
  C   C32       1.0  0.67315  0.10988999999999999  0.10396  1.0000
  C   C33       1.0  0.6912699999999997  0.68861  0.09489  1.0000
  C   C34       1.0  0.21453999999999995  0.65192  0.4053  1.0000
  C   C35       1.0  0.09095000000000002  0.71098  0.11393999999999999  1.0000
  C   C36       1.0  0.6096899999999998  0.58008  0.39  1.0000
  C   C37       1.0  0.6220899999999999  0.22135  0.39767  1.0000
  C   C38       1.0  0.57834  0.81488  0.78147  1.0000
  C   C39       1.0  0.5637599999999998  0.8015499999999999  0.70051  1.0000
  C   C40       1.0  0.84132  0.64447  0.7681  1.0000
  Cr  Cr1       1.0  0.39301  0.39805  0.50148  1.0000
  Cr  Cr2       1.0  0.39882  0.70798  0.50163  1.0000
  Cr  Cr3       1.0  0.70814  0.39394  0.49684999999999996  1.0000
  Cr  Cr4       1.0  0.9379499999999997  0.9384499999999999  0.00894  1.0000
  Cr  Cr5       1.0  0.6261800000000001  0.9370299999999998  0.9947499999999999  1.0000
  Cr  Cr6       1.0  0.9377899999999999  0.6257599999999999  0.00141  1.0000
  H   H1        1.0  0.5928399999999999  0.9065899999999999  0.79199  1.0000
  H   H2        1.0  0.71545  0.43582999999999994  0.70029  1.0000
  H   H3        1.0  0.9317099999999999  0.54472  0.78736  1.0000
  H   H4        1.0  0.9031899999999999  0.5138  0.6721  1.0000
  H   H5        1.0  0.90281  0.022429999999999995  0.79982  1.0000
  H   H6        1.0  0.60929  0.11781999999999998  0.6944  1.0000
  H   H7        1.0  0.16050999999999996  0.49488  0.82191  1.0000
  H   H8        1.0  0.2957600000000001  0.44382999999999995  0.7017799999999998  1.0000
  H   H9        1.0  0.47868999999999995  0.8385  0.8094  1.0000
  H   H10       1.0  0.10703999999999991  0.76737  0.70121  1.0000
  H   H11       1.0  0.7587200000000001  0.44829  0.15357  1.0000
  H   H12       1.0  0.48897999999999975  0.65953  0.29289  1.0000
  H   H13       1.0  0.7275399999999999  0.18238999999999997  0.19701  1.0000
  H   H14       1.0  0.7554999999999997  0.15042999999999998  0.30538  1.0000
  H   H15       1.0  0.9510999999999997  0.88551  0.21427  1.0000
  H   H16       1.0  0.45348999999999995  0.82673  0.68947  1.0000
  H   H17       1.0  0.09477999999999998  0.88119  0.32446  1.0000
  H   H18       1.0  0.09662999999999998  0.60056  0.32957  1.0000
  H   H19       1.0  0.5828  0.8788399999999998  0.6713099999999999  1.0000
  H   H20       1.0  0.8442800000000001  0.69423  0.65393  1.0000
  H   H21       1.0  0.57597  0.5775199999999999  0.83104  1.0000
  H   H22       1.0  0.5353999999999999  0.56824  0.71291  1.0000
  O   O1        1.0  0.5071099999999997  0.25628  0.5803  1.0000
  O   O2        1.0  0.52464  0.69537  0.4251  1.0000
  O   O3        1.0  0.7358899999999998  0.50439  0.41598  1.0000
  O   O4        1.0  0.69056  0.27782  0.42235  1.0000
  O   O5        1.0  0.4999899999999999  0.49998999999999993  0.49998  1.0000
  O   O6        1.0  0.08918999999999995  0.8258699999999999  0.93232  1.0000
  O   O7        1.0  0.8190699999999997  0.053959999999999994  0.9314400000000002  1.0000
  O   O8        1.0  0.60707  0.07644  0.91646  1.0000
  O   O9        1.0  0.64711  0.80655  0.9176899999999999  1.0000
  O   O10       1.0  0.8370800000000002  0.59386  0.9153  1.0000
  O   O11       1.0  0.06477000000000001  0.63608  0.9325500000000001  1.0000
  O   O12       1.0  0.28083  0.52719  0.57794  1.0000
  O   O13       1.0  0.06825000000000005  0.8291999999999999  0.09293999999999998  1.0000
  O   O14       1.0  0.79965  0.05704  0.08033  1.0000
  O   O15       1.0  0.58613  0.07975999999999998  0.07708  1.0000
  O   O16       1.0  0.6277000000000001  0.8096299999999998  0.06658  1.0000
  O   O17       1.0  0.81614  0.59718  0.07592  1.0000
  O   O18       1.0  0.04536000000000002  0.63917  0.08144  1.0000
  O   O19       1.0  0.8339799999999998  0.8337499999999999  0.0016999999999999997  1.0000
  O   O20       1.0  0.26136  0.73899  0.58427  1.0000
  O   O21       1.0  0.53259  0.69478  0.57437  1.0000
  O   O22       1.0  0.7444699999999997  0.50375  0.577  1.0000
  O   O23       1.0  0.69852  0.27723  0.57162  1.0000
  O   O24       1.0  0.49853  0.25692  0.41927999999999993  1.0000
  O   O25       1.0  0.2728799999999999  0.52778  0.42867999999999995  1.0000
  O   O26       1.0  0.25277999999999995  0.73963  0.42325  1.0000
  O   O27       1.0  0.88912  0.16240999999999997  0.67105  1.0000
  H   H23       1.0  0.95971  0.15234999999999999  0.70711  1.0000
  O   O28       1.0  0.55858  0.27918  0.81113  1.0000
  H   H24       1.0  0.57025  0.33372  0.7722599999999998  1.0000
  Cl  Cl1       1.0  0.27835  0.76005  0.81029  1.0000
  O   O29       1.0  0.81966  0.39013  0.29162  1.0000
  H   H25       1.0  0.8870599999999998  0.3437  0.25125  1.0000
  Cl  Cl2       1.0  0.51199  0.82273  0.20711  1.0000
  Cl  Cl3       1.0  0.38914  0.17652  0.18492  1.0000
  Cl  Cl4       1.0  0.47842999999999997  0.05492  0.33952  1.0000
  Cl  Cl5       1.0  0.28857  0.53573  0.21104999999999996  1.0000
  O   O30       1.0  0.8773999999999998  0.7497299999999999  0.77922  1.0000
  H   H26       1.0  0.814  0.83293  0.75039  1.0000
  Cl  Cl6       1.0  0.8118200000000001  0.3883  0.83052  1.0000
