data_image0
_chemical_formula_structural       O8C4O8C4O8C4O8C4O8C4O8C4Cr12O4C20H4C4H4C12H4C12H4C16H4C8H4C4H4C4NO2NO2NO2NO3HOHOHOHOHOHOHOHOHOHOHOHOHOHOHOHOHOHOHOH
_chemical_formula_sum              "O80 C104 Cr12 H48 N4"
_cell_length_a       19.09914
_cell_length_b       11.01327
_cell_length_c       18.86581
_cell_angle_alpha    90.27060000000002
_cell_angle_beta     89.37978000000001
_cell_angle_gamma    89.74006

_space_group_name_H-M_alt    "P 1"
_space_group_IT_number       1

loop_
  _space_group_symop_operation_xyz
  'x, y, z'

loop_
  _atom_site_type_symbol
  _atom_site_label
  _atom_site_symmetry_multiplicity
  _atom_site_fract_x
  _atom_site_fract_y
  _atom_site_fract_z
  _atom_site_occupancy
  O   O1        1.0  0.78754  0.04269  0.17047  1.0000
  O   O2        1.0  0.21246  0.04269  0.8295299999999998  1.0000
  O   O3        1.0  0.28754  0.54269  0.17047  1.0000
  O   O4        1.0  0.7124599999999998  0.54269  0.8295299999999998  1.0000
  O   O5        1.0  0.7656599999999999  0.29216  0.17505  1.0000
  O   O6        1.0  0.23433999999999996  0.29216  0.82495  1.0000
  O   O7        1.0  0.26566  0.7921599999999999  0.17505  1.0000
  O   O8        1.0  0.73434  0.7921599999999999  0.82495  1.0000
  C   C1        1.0  0.7312099999999999  0.3768  0.14602  1.0000
  C   C2        1.0  0.26874  0.37692999999999993  0.85393  1.0000
  C   C3        1.0  0.23120999999999997  0.8768  0.14602  1.0000
  C   C4        1.0  0.7687399999999999  0.87692  0.85393  1.0000
  O   O9        1.0  0.67019  0.40898  0.16855  1.0000
  O   O10       1.0  0.32980999999999994  0.40898  0.83145  1.0000
  O   O11       1.0  0.17018999999999998  0.90898  0.16855  1.0000
  O   O12       1.0  0.8298099999999999  0.90898  0.83145  1.0000
  O   O13       1.0  0.55658  0.25145  0.17516  1.0000
  O   O14       1.0  0.44342  0.25145  0.82484  1.0000
  O   O15       1.0  0.05658  0.75145  0.17516  1.0000
  O   O16       1.0  0.94342  0.75145  0.82484  1.0000
  C   C5        1.0  0.53166  0.15534  0.14643999999999996  1.0000
  C   C6        1.0  0.46851  0.15548  0.8534299999999999  1.0000
  C   C7        1.0  0.03166  0.65534  0.14643999999999996  1.0000
  C   C8        1.0  0.96851  0.65548  0.8534299999999999  1.0000
  O   O17       1.0  0.54592  0.04950999999999999  0.17031999999999997  1.0000
  O   O18       1.0  0.45407999999999993  0.04950999999999999  0.82968  1.0000
  O   O19       1.0  0.045919999999999996  0.54951  0.17031999999999997  1.0000
  O   O20       1.0  0.95408  0.54951  0.82968  1.0000
  O   O21       1.0  0.68139  0.95784  0.17671  1.0000
  O   O22       1.0  0.31861  0.95784  0.8232899999999999  1.0000
  O   O23       1.0  0.18139  0.45783999999999997  0.17671  1.0000
  O   O24       1.0  0.8186099999999997  0.45784  0.8232899999999999  1.0000
  C   C9        1.0  0.74145  0.97209  0.14642999999999998  1.0000
  C   C10       1.0  0.25862  0.97207  0.85353  1.0000
  C   C11       1.0  0.24144999999999997  0.47209  0.14642999999999998  1.0000
  C   C12       1.0  0.75862  0.47207  0.85353  1.0000
  O   O25       1.0  0.7875  0.04428  0.33099  1.0000
  O   O26       1.0  0.21249999999999997  0.04428  0.66901  1.0000
  O   O27       1.0  0.2875  0.54428  0.33099  1.0000
  O   O28       1.0  0.7124999999999999  0.54428  0.66901  1.0000
  O   O29       1.0  0.76561  0.29363  0.32385999999999987  1.0000
  O   O30       1.0  0.23439  0.29363  0.67614  1.0000
  O   O31       1.0  0.26561  0.79363  0.32385999999999987  1.0000
  O   O32       1.0  0.73439  0.79363  0.67614  1.0000
  C   C13       1.0  0.7300199999999998  0.38011999999999996  0.3517599999999999  1.0000
  C   C14       1.0  0.27206  0.37517999999999996  0.64644  1.0000
  C   C15       1.0  0.23003  0.88012  0.35173999999999994  1.0000
  C   C16       1.0  0.77205  0.8752  0.64645  1.0000
  O   O33       1.0  0.6701399999999997  0.41057  0.32908  1.0000
  O   O34       1.0  0.32986  0.41057  0.67092  1.0000
  O   O35       1.0  0.17014  0.91057  0.32908  1.0000
  O   O36       1.0  0.82986  0.91057  0.67092  1.0000
  O   O37       1.0  0.55654  0.25292  0.32397  1.0000
  O   O38       1.0  0.44346  0.25292  0.67603  1.0000
  O   O39       1.0  0.05653999999999999  0.75292  0.32397  1.0000
  O   O40       1.0  0.94346  0.75292  0.67603  1.0000
  C   C17       1.0  0.5338099999999999  0.15859  0.3544  1.0000
  C   C18       1.0  0.46724  0.15614  0.64632  1.0000
  C   C19       1.0  0.03383  0.65859  0.35441  1.0000
  C   C20       1.0  0.96726  0.65614  0.64633  1.0000
  O   O41       1.0  0.54587  0.0511  0.33083999999999997  1.0000
  O   O42       1.0  0.45413  0.0511  0.66916  1.0000
  O   O43       1.0  0.045869999999999994  0.5511  0.33083999999999997  1.0000
  O   O44       1.0  0.95413  0.5511  0.66916  1.0000
  O   O45       1.0  0.68134  0.9593  0.32551  1.0000
  O   O46       1.0  0.31866  0.9593  0.6744899999999999  1.0000
  O   O47       1.0  0.18134  0.4593  0.32551  1.0000
  O   O48       1.0  0.81866  0.4593  0.6744899999999999  1.0000
  C   C21       1.0  0.74046  0.9729999999999999  0.35482  1.0000
  C   C22       1.0  0.27198  0.01949  0.63824  1.0000
  C   C23       1.0  0.24046999999999996  0.47296  0.35481  1.0000
  C   C24       1.0  0.77203  0.51967  0.63829  1.0000
  Cr  Cr1       1.0  0.772  0.16964  0.25010999999999994  1.0000
  Cr  Cr2       1.0  0.228  0.16964  0.74989  1.0000
  Cr  Cr3       1.0  0.272  0.66964  0.25010999999999994  1.0000
  Cr  Cr4       1.0  0.728  0.66964  0.74989  1.0000
  Cr  Cr5       1.0  0.6149599999999998  0.32335  0.24925999999999998  1.0000
  Cr  Cr6       1.0  0.38504  0.32335  0.75074  1.0000
  Cr  Cr7       1.0  0.11496  0.82335  0.24925999999999998  1.0000
  Cr  Cr8       1.0  0.88504  0.82335  0.75074  1.0000
  Cr  Cr9       1.0  0.6166699999999999  0.01062  0.25084  1.0000
  Cr  Cr10      1.0  0.3833299999999999  0.01062  0.74916  1.0000
  Cr  Cr11      1.0  0.11666999999999998  0.51062  0.25084  1.0000
  Cr  Cr12      1.0  0.8833299999999998  0.51062  0.74916  1.0000
  O   O49       1.0  0.6678799999999999  0.16787  0.25006999999999996  1.0000
  O   O50       1.0  0.3321199999999999  0.16787  0.7499299999999999  1.0000
  O   O51       1.0  0.16788  0.66787  0.25006999999999996  1.0000
  O   O52       1.0  0.83212  0.66787  0.7499299999999999  1.0000
  C   C25       1.0  0.50019  0.16431  0.92505  1.0000
  C   C26       1.0  0.50062  0.16371  0.07452  1.0000
  C   C27       1.0  0.00019000000000000023  0.66431  0.92505  1.0000
  C   C28       1.0  0.00062  0.66371  0.07452  1.0000
  C   C29       1.0  0.50267  0.27676  0.9624499999999999  1.0000
  C   C30       1.0  0.49710999999999994  0.27643  0.03795  1.0000
  C   C31       1.0  0.002670000000000001  0.77676  0.9624499999999999  1.0000
  C   C32       1.0  0.99711  0.77643  0.03795  1.0000
  C   C33       1.0  0.49670999999999993  0.05395  0.03597  1.0000
  C   C34       1.0  0.50592  0.05445  0.9626099999999999  1.0000
  C   C35       1.0  0.9967099999999999  0.55395  0.03597  1.0000
  C   C36       1.0  0.005920000000000003  0.55445  0.9626099999999999  1.0000
  C   C37       1.0  0.51  0.39034  0.92698  1.0000
  C   C38       1.0  0.48887999999999987  0.38968  0.0743  1.0000
  C   C39       1.0  0.009999999999999997  0.89034  0.92698  1.0000
  C   C40       1.0  0.98888  0.8896800000000001  0.0743  1.0000
  C   C41       1.0  0.0021900000000000014  0.99849  0.9646599999999999  1.0000
  C   C42       1.0  0.9968399999999997  0.99813  0.03768  1.0000
  C   C43       1.0  0.50219  0.49849  0.9646599999999999  1.0000
  C   C44       1.0  0.49684  0.49813  0.03768  1.0000
  H   H1        1.0  0.00573  0.08457  0.93733  1.0000
  H   H2        1.0  0.99305  0.08397  0.06577  1.0000
  H   H3        1.0  0.50573  0.58457  0.93733  1.0000
  H   H4        1.0  0.49304999999999993  0.58397  0.06577  1.0000
  C   C45       1.0  0.6989699999999999  0.86578  0.04064999999999999  1.0000
  C   C46       1.0  0.30213  0.86717  0.95921  1.0000
  C   C47       1.0  0.19896999999999998  0.36577999999999994  0.04064999999999999  1.0000
  C   C48       1.0  0.80214  0.36717000000000005  0.95921  1.0000
  H   H5        1.0  0.6602099999999999  0.8196399999999999  0.07291  1.0000
  H   H6        1.0  0.34207  0.82268  0.92704  1.0000
  H   H7        1.0  0.16021  0.31964  0.07291  1.0000
  H   H8        1.0  0.8420699999999999  0.32268  0.92704  1.0000
  C   C49       1.0  0.6961299999999999  0.8546399999999998  0.96746  1.0000
  C   C50       1.0  0.30451999999999996  0.8557300000000001  0.03239  1.0000
  C   C51       1.0  0.19613  0.35464  0.96746  1.0000
  C   C52       1.0  0.80452  0.35573  0.03239  1.0000
  C   C53       1.0  0.74629  0.9174799999999999  0.92456  1.0000
  C   C54       1.0  0.25314  0.91692  0.0753  1.0000
  C   C55       1.0  0.24629  0.4174800000000001  0.92456  1.0000
  C   C56       1.0  0.75314  0.41692  0.0753  1.0000
  C   C57       1.0  0.79162  0.9985299999999999  0.95675  1.0000
  C   C58       1.0  0.20665999999999998  0.9964  0.04311  1.0000
  C   C59       1.0  0.29161999999999993  0.49853  0.95675  1.0000
  C   C60       1.0  0.70666  0.4964  0.04311  1.0000
  H   H9        1.0  0.8293  0.05036999999999999  0.92602  1.0000
  H   H10       1.0  0.16798  0.04722  0.07376999999999999  1.0000
  H   H11       1.0  0.3293  0.55036  0.92602  1.0000
  H   H12       1.0  0.66798  0.54722  0.07376999999999999  1.0000
  C   C61       1.0  0.79869  0.99885  0.02876  1.0000
  C   C62       1.0  0.20017  0.9968099999999999  0.97101  1.0000
  C   C63       1.0  0.29869  0.49885  0.02876  1.0000
  C   C64       1.0  0.70017  0.49681  0.97101  1.0000
  C   C65       1.0  0.75017  0.9365099999999998  0.07227  1.0000
  C   C66       1.0  0.24999  0.9362299999999999  0.92752  1.0000
  C   C67       1.0  0.25017  0.43650999999999995  0.07227  1.0000
  C   C68       1.0  0.74999  0.43623  0.92752  1.0000
  C   C69       1.0  0.47483  0.0738  0.45677999999999996  1.0000
  C   C70       1.0  0.46711  0.06702  0.52889  1.0000
  C   C71       1.0  0.9750099999999999  0.57367  0.45683999999999997  1.0000
  C   C72       1.0  0.96733  0.56688  0.5289399999999999  1.0000
  H   H13       1.0  0.45721999999999996  0.99828  0.4246  1.0000
  H   H14       1.0  0.44111  0.9878500000000001  0.54991  1.0000
  H   H15       1.0  0.95746  0.49807  0.42467999999999995  1.0000
  H   H16       1.0  0.94144  0.48761  0.54997  1.0000
  C   C73       1.0  0.49066999999999994  0.1609  0.57314  1.0000
  C   C74       1.0  0.5082  0.17316  0.42675  1.0000
  C   C75       1.0  0.9907599999999999  0.66088  0.57317  1.0000
  C   C76       1.0  0.008260000000000002  0.67312  0.42678  1.0000
  C   C77       1.0  0.52426  0.26286  0.54404  1.0000
  C   C78       1.0  0.53106  0.27101  0.47062999999999994  1.0000
  C   C79       1.0  0.024270000000000003  0.7629000000000001  0.54405  1.0000
  C   C80       1.0  0.031059999999999997  0.77102  0.47062999999999994  1.0000
  C   C81       1.0  0.8137  0.9061699999999999  0.45405999999999996  1.0000
  C   C82       1.0  0.22032000000000004  0.058600000000000006  0.5200999999999999  1.0000
  C   C83       1.0  0.31381  0.4066000000000001  0.4541  1.0000
  C   C84       1.0  0.72041  0.55889  0.52009  1.0000
  C   C85       1.0  0.82041  0.89127  0.52692  1.0000
  C   C86       1.0  0.2142  0.02891  0.44842999999999994  1.0000
  C   C87       1.0  0.32049  0.39177  0.52696  1.0000
  C   C88       1.0  0.71422  0.52905  0.44842999999999994  1.0000
  H   H17       1.0  0.87161  0.87124  0.5483  1.0000
  H   H18       1.0  0.17666  0.07755  0.41641999999999996  1.0000
  H   H19       1.0  0.37173999999999996  0.37216  0.54838  1.0000
  H   H20       1.0  0.67663  0.5776  0.41643  1.0000
  C   C89       1.0  0.76162  0.90007  0.57211  1.0000
  C   C90       1.0  0.252  0.9312500000000001  0.41937999999999986  1.0000
  C   C91       1.0  0.26164  0.40007  0.5721  1.0000
  C   C92       1.0  0.75201  0.43137  0.41939  1.0000
  C   C93       1.0  0.69518  0.91902  0.54453  1.0000
  C   C94       1.0  0.30119  0.86971  0.46058999999999994  1.0000
  C   C95       1.0  0.19515999999999997  0.41846  0.54445  1.0000
  C   C96       1.0  0.80127  0.36998  0.46058999999999994  1.0000
  H   H21       1.0  0.64945  0.9233  0.57896  1.0000
  H   H22       1.0  0.33071999999999996  0.7934299999999999  0.43927  1.0000
  H   H23       1.0  0.14939  0.42232  0.57884  1.0000
  H   H24       1.0  0.8308099999999999  0.29369  0.43927999999999995  1.0000
  C   C97       1.0  0.6879599999999998  0.9333200000000001  0.47187  1.0000
  C   C98       1.0  0.30861  0.8997500000000002  0.53167  1.0000
  C   C99       1.0  0.18796  0.43267  0.47178999999999993  1.0000
  C   C100      1.0  0.80875  0.40014000000000005  0.5316499999999998  1.0000
  H   H25       1.0  0.63643  0.95346  0.45139  1.0000
  H   H26       1.0  0.34474  0.84717  0.56314  1.0000
  H   H27       1.0  0.13638999999999996  0.45236  0.45127  1.0000
  H   H28       1.0  0.8449099999999999  0.34762  0.5631  1.0000
  C   C101      1.0  0.74727  0.9292899999999998  0.42678  1.0000
  C   C102      1.0  0.26716  0.99198  0.5623799999999999  1.0000
  C   C103      1.0  0.24733  0.42916999999999994  0.42675  1.0000
  C   C104      1.0  0.76728  0.49234  0.56237  1.0000
  N   N1        1.0  0.4821099999999999  0.94238  0.07231  1.0000
  O   O53       1.0  0.52336  0.84882  0.06457999999999998  1.0000
  O   O54       1.0  0.4378699999999999  0.9445900000000002  0.12526999999999996  1.0000
  N   N2        1.0  0.52191  0.94376  0.92511  1.0000
  O   O55       1.0  0.48134999999999994  0.8497300000000001  0.93141  1.0000
  O   O56       1.0  0.5659399999999999  0.9479300000000002  0.87202  1.0000
  N   N3        1.0  0.9821099999999999  0.44238000000000005  0.07231  1.0000
  O   O57       1.0  0.02336  0.34882  0.06457999999999998  1.0000
  O   O58       1.0  0.9378699999999999  0.44458999999999993  0.12526999999999996  1.0000
  N   N4        1.0  0.021909999999999992  0.44376  0.92511  1.0000
  O   O59       1.0  0.98135  0.34973  0.93141  1.0000
  O   O60       1.0  0.06594  0.44792999999999994  0.87202  1.0000
  O   O61       1.0  0.87092  0.9003599999999999  0.40884  1.0000
  H   H29       1.0  0.91369  0.8922  0.43746999999999997  1.0000
  O   O62       1.0  0.17909999999999998  0.14869  0.5503  1.0000
  H   H30       1.0  0.14606999999999998  0.18001  0.51447  1.0000
  O   O63       1.0  0.3711  0.4012899999999999  0.40894  1.0000
  H   H31       1.0  0.4138800000000001  0.39366000000000007  0.43763  1.0000
  O   O64       1.0  0.67921  0.64902  0.55027  1.0000
  H   H32       1.0  0.64619  0.68036  0.51443  1.0000
  O   O65       1.0  0.53298  0.40059  0.8576699999999999  1.0000
  H   H33       1.0  0.5640600000000001  0.33035  0.8468999999999998  1.0000
  O   O66       1.0  0.4649499999999999  0.3993300000000001  0.14341  1.0000
  H   H34       1.0  0.43444  0.32865  0.15333  1.0000
  O   O67       1.0  0.03298000000000001  0.9005899999999999  0.8576699999999999  1.0000
  H   H35       1.0  0.06406  0.8303500000000001  0.8468999999999998  1.0000
  O   O68       1.0  0.96495  0.89933  0.14341  1.0000
  H   H36       1.0  0.93444  0.8286499999999999  0.15333  1.0000
  O   O69       1.0  0.64318  0.78248  0.94266  1.0000
  H   H37       1.0  0.63983  0.78589  0.89097  1.0000
  O   O70       1.0  0.35842  0.78541  0.05723  1.0000
  H   H38       1.0  0.36039  0.78738  0.10907  1.0000
  O   O71       1.0  0.14318  0.28248  0.94266  1.0000
  H   H39       1.0  0.13983  0.28589  0.89097  1.0000
  O   O72       1.0  0.85842  0.28541  0.05723  1.0000
  H   H40       1.0  0.8603899999999999  0.28738  0.10907  1.0000
  O   O73       1.0  0.8549499999999999  0.06028  0.05414  1.0000
  H   H41       1.0  0.8733999999999998  0.013369999999999998  0.09389  1.0000
  O   O74       1.0  0.14331  0.05695999999999999  0.9455  1.0000
  H   H42       1.0  0.12611  0.010119999999999999  0.9049899999999999  1.0000
  O   O75       1.0  0.35494999999999993  0.56028  0.05414  1.0000
  H   H43       1.0  0.3733999999999999  0.51337  0.09389  1.0000
  O   O76       1.0  0.64331  0.55696  0.9455  1.0000
  H   H44       1.0  0.62611  0.51012  0.9049899999999999  1.0000
  O   O77       1.0  0.55088  0.35595  0.58491  1.0000
  H   H45       1.0  0.55844  0.32612  0.6336599999999999  1.0000
  O   O78       1.0  0.56369  0.37267  0.44415999999999994  1.0000
  H   H46       1.0  0.53359  0.40541000000000005  0.40629999999999994  1.0000
  O   O79       1.0  0.050799999999999984  0.8560999999999999  0.5849  1.0000
  H   H47       1.0  0.05838999999999999  0.82632  0.6336599999999999  1.0000
  O   O80       1.0  0.06357999999999998  0.87277  0.44414  1.0000
  H   H48       1.0  0.03344  0.9054  0.4062799999999999  1.0000
