data_image0
_chemical_formula_structural       C36Cr6H10I2O26
_chemical_formula_sum              "C36 Cr6 H10 I2 O26"
_cell_length_a       10.52748
_cell_length_b       10.69457
_cell_length_c       17.08621
_cell_angle_alpha    80.28184
_cell_angle_beta     89.93748
_cell_angle_gamma    119.39796

_symmetry_space_group_name_H-M    'P 1'
_symmetry_Int_Tables_number       1

loop_
  _symmetry_equiv_pos_as_xyz
  'x,y,z'

loop_
  _atom_site_type_symbol
  _atom_site_label
  _atom_site_symmetry_multiplicity
  _atom_site_fract_x
  _atom_site_fract_y
  _atom_site_fract_z
  _atom_site_occupancy
  C   C1        1.0  0.27804999999999996  0.8882299999999999  0.13279  1.0000
  C   C2        1.0  0.6841000000000002  0.4007800000000001  0.70976  1.0000
  C   C3        1.0  0.60682  0.707  0.80325  1.0000
  C   C4        1.0  0.6339100000000001  0.27254  0.0898  1.0000
  C   C5        1.0  0.59602  0.69792  0.72437  1.0000
  C   C6        1.0  0.66883  0.8233799999999999  0.66495  1.0000
  C   C7        1.0  0.75911  0.9597999999999999  0.68477  1.0000
  C   C8        1.0  0.7686200000000002  0.9712500000000002  0.76439  1.0000
  C   C9        1.0  0.68722  0.8461099999999999  0.82396  1.0000
  C   C10       1.0  0.08512  0.88526  0.78966  1.0000
  C   C11       1.0  0.06953000000000005  0.8823800000000002  0.71015  1.0000
  C   C12       1.0  0.71734  0.26471  0.29974  1.0000
  C   C13       1.0  0.11526000000000006  0.8026499999999999  0.67191  1.0000
  C   C14       1.0  0.16482000000000002  0.71527  0.71544  1.0000
  C   C15       1.0  0.18270000000000008  0.7198400000000001  0.79541  1.0000
  C   C16       1.0  0.6435500000000001  0.85592  0.12430999999999999  1.0000
  C   C17       1.0  0.15027999999999994  0.81162  0.83122  1.0000
  C   C18       1.0  0.7112400000000002  0.7725700000000001  0.35352  1.0000
  C   C19       1.0  0.68164  0.38504  0.39932  1.0000
  C   C20       1.0  0.10793000000000001  0.8124699999999999  0.35985999999999996  1.0000
  C   C21       1.0  0.6773400000000002  0.8008500000000001  0.5851399999999999  1.0000
  C   C22       1.0  0.71723  0.44575000000000004  0.6260299999999998  1.0000
  C   C23       1.0  0.7194300000000001  0.25619  0.2206  1.0000
  C   C24       1.0  0.0900100000000001  0.79871  0.58941  1.0000
  C   C25       1.0  0.21644  0.8581500000000001  0.90239  1.0000
  C   C26       1.0  0.6398200000000003  0.2890900000000001  0.8614899999999998  1.0000
  C   C27       1.0  0.6475700000000001  0.8654400000000002  0.9000399999999997  1.0000
  C   C28       1.0  0.54558  0.34458  0.20081999999999994  1.0000
  C   C29       1.0  0.54681  0.35589999999999994  0.28048  1.0000
  C   C30       1.0  0.63842  0.32315  0.3287  1.0000
  C   C31       1.0  0.63831  0.30087  0.1697  1.0000
  C   C32       1.0  0.68512  0.83202  0.20179  1.0000
  C   C33       1.0  0.7033100000000002  0.8075000000000001  0.27049  1.0000
  C   C34       1.0  0.2267399999999999  0.85359  0.21546999999999994  1.0000
  C   C35       1.0  0.17827  0.83443  0.28301  1.0000
  C   C36       1.0  0.6614000000000001  0.35615  0.78015  1.0000
  Cr  Cr1       1.0  0.40224  0.78389  0.01945  1.0000
  Cr  Cr2       1.0  0.3823600000000001  0.09790000000000007  0.9917999999999999  1.0000
  Cr  Cr3       1.0  0.71538  0.11817  0.9887  1.0000
  Cr  Cr4       1.0  0.9366500000000001  0.8824199999999999  0.46551  1.0000
  Cr  Cr5       1.0  0.6057700000000001  0.56562  0.49336  1.0000
  Cr  Cr6       1.0  0.92134  0.55049  0.49638000000000004  1.0000
  H   H1        1.0  0.022980000000000105  0.9443600000000001  0.6784  1.0000
  H   H2        1.0  0.05650000000000002  0.95378  0.81685  1.0000
  H   H3        1.0  0.19425999999999993  0.6484599999999999  0.68715  1.0000
  H   H4        1.0  0.23206999999999997  0.6606  0.82716  1.0000
  H   H5        1.0  0.48397  0.3999900000000001  0.30291  1.0000
  H   H6        1.0  0.7861300000000001  0.23575  0.33674  1.0000
  H   H7        1.0  0.78445  0.21307000000000004  0.19962  1.0000
  H   H8        1.0  0.53259  0.59037  0.70978  1.0000
  H   H9        1.0  0.82155  0.056490000000000005  0.63887  1.0000
  H   H10       1.0  0.8308699999999999  0.07894999999999998  0.77891  1.0000
  I   I1        1.0  0.4064400000000001  0.40219999999999995  0.13301  1.0000
  I   I2        1.0  0.47884  0.50348  0.8839399999999997  1.0000
  O   O1        1.0  0.52178  0.75711  0.1089  1.0000
  O   O2        1.0  0.8050200000000001  0.41003999999999996  0.42134  1.0000
  O   O3        1.0  0.04924000000000001  0.68545  0.40329  1.0000
  O   O4        1.0  0.27516  0.78381  0.10111999999999997  1.0000
  O   O5        1.0  0.07752000000000002  0.90301  0.5518  1.0000
  O   O6        1.0  0.80298  0.87278  0.54683  1.0000
  O   O7        1.0  0.57809  0.6813000000000001  0.56992  1.0000
  O   O8        1.0  0.60853  0.43637  0.58653  1.0000
  O   O9        1.0  0.79877  0.40188  0.5971  1.0000
  O   O10       1.0  0.04344999999999994  0.6778899999999999  0.56623  1.0000
  O   O11       1.0  0.82125  0.6661800000000001  0.48508999999999997  1.0000
  O   O12       1.0  0.51333  0.2283300000000001  0.89866  1.0000
  O   O13       1.0  0.2379  0.9726  0.09098  1.0000
  O   O14       1.0  0.5111900000000001  0.22054  0.06162  1.0000
  O   O15       1.0  0.7369200000000001  0.25772  0.06384  1.0000
  O   O16       1.0  0.7104499999999999  0.98405  0.08172  1.0000
  O   O17       1.0  0.5240900000000001  0.7655200000000001  0.93311  1.0000
  O   O18       1.0  0.2773  0.7916  0.93816  1.0000
  O   O19       1.0  0.24021  0.98101  0.9151899999999997  1.0000
  O   O20       1.0  0.7392299999999999  0.2661299999999999  0.88805  1.0000
  O   O21       1.0  0.71258  0.99185  0.91877  1.0000
  O   O22       1.0  0.49999  0.99998  0.9999799999999999  1.0000
  O   O23       1.0  0.08376999999999998  0.9111700000000001  0.37603  1.0000
  O   O24       1.0  0.80877  0.88034  0.38389  1.0000
  O   O25       1.0  0.58434  0.68946  0.39416  1.0000
  O   O26       1.0  0.61432  0.44394  0.42359  1.0000
