data_image0
_chemical_formula_structural       C124Cr12H68O53HOHOHOH
_chemical_formula_sum              "C124 Cr12 H72 O56"
_cell_length_a       19.04919
_cell_length_b       10.9232
_cell_length_c       18.87471
_cell_angle_alpha    89.99116
_cell_angle_beta     90.24774
_cell_angle_gamma    90.02406

_space_group_name_H-M_alt    "P 1"
_space_group_IT_number       1

loop_
  _space_group_symop_operation_xyz
  'x, y, z'

loop_
  _atom_site_type_symbol
  _atom_site_label
  _atom_site_symmetry_multiplicity
  _atom_site_fract_x
  _atom_site_fract_y
  _atom_site_fract_z
  _atom_site_occupancy
  C   C1        1.0  0.72893  0.37529  0.14497000000000002  1.0000
  C   C2        1.0  0.27107  0.3753  0.85503  1.0000
  C   C3        1.0  0.22892000000000004  0.87529  0.14497000000000002  1.0000
  C   C4        1.0  0.77107  0.8753  0.85503  1.0000
  C   C5        1.0  0.50871  0.3917300000000001  0.9268100000000001  1.0000
  C   C6        1.0  0.49128  0.3916700000000001  0.07316  1.0000
  C   C7        1.0  0.008710000000000002  0.8917300000000002  0.9268100000000001  1.0000
  C   C8        1.0  0.99128  0.8916700000000002  0.07316  1.0000
  C   C9        1.0  0.00519  0.0022  0.96362  1.0000
  C   C10       1.0  0.99479  0.00216  0.03635  1.0000
  C   C11       1.0  0.5051900000000001  0.5022  0.96362  1.0000
  C   C12       1.0  0.49479000000000006  0.5021600000000002  0.03635  1.0000
  C   C13       1.0  0.75603  0.9141400000000001  0.9270000000000002  1.0000
  C   C14       1.0  0.24395999999999998  0.91412  0.07298  1.0000
  C   C15       1.0  0.25603  0.4141400000000001  0.9270000000000002  1.0000
  C   C16       1.0  0.74396  0.4141200000000001  0.07298  1.0000
  C   C17       1.0  0.6928  0.88977  0.9616900000000002  1.0000
  C   C18       1.0  0.30719  0.8898500000000003  0.0383  1.0000
  C   C19       1.0  0.1928  0.3897700000000001  0.9616900000000002  1.0000
  C   C20       1.0  0.80719  0.38985  0.0383  1.0000
  C   C21       1.0  0.68878  0.8978300000000001  0.03507  1.0000
  C   C22       1.0  0.31121000000000004  0.8979000000000001  0.96492  1.0000
  C   C23       1.0  0.18878  0.39783  0.03507  1.0000
  C   C24       1.0  0.81121  0.39790000000000003  0.96492  1.0000
  C   C25       1.0  0.81075  0.9549200000000001  0.0406  1.0000
  C   C26       1.0  0.18923  0.9547900000000001  0.95938  1.0000
  C   C27       1.0  0.31075  0.45492  0.0406  1.0000
  C   C28       1.0  0.68923  0.45479  0.95938  1.0000
  C   C29       1.0  0.81349  0.9550300000000002  0.96769  1.0000
  C   C30       1.0  0.18649000000000002  0.9549000000000001  0.032290000000000006  1.0000
  C   C31       1.0  0.31349  0.45503000000000005  0.96769  1.0000
  C   C32       1.0  0.68649  0.4549  0.032290000000000006  1.0000
  C   C33       1.0  0.64682  0.7796600000000002  0.9587800000000001  1.0000
  C   C34       1.0  0.35317  0.7798000000000003  0.04123  1.0000
  C   C35       1.0  0.14682  0.2796600000000001  0.9587800000000001  1.0000
  C   C36       1.0  0.8531700000000001  0.2798  0.04123  1.0000
  C   C37       1.0  0.64311  0.7867  0.03888  1.0000
  C   C38       1.0  0.35687  0.78685  0.96113  1.0000
  C   C39       1.0  0.14311  0.2867  0.03888  1.0000
  C   C40       1.0  0.85687  0.28685000000000005  0.96113  1.0000
  C   C41       1.0  0.74872  0.92493  0.07563  1.0000
  C   C42       1.0  0.25127  0.9249  0.92436  1.0000
  C   C43       1.0  0.24871  0.42493  0.07563  1.0000
  C   C44       1.0  0.75127  0.4249  0.92436  1.0000
  C   C45       1.0  0.53122  0.15573  0.14673000000000003  1.0000
  C   C46       1.0  0.46879000000000004  0.15575  0.85326  1.0000
  C   C47       1.0  0.031220000000000005  0.6557300000000001  0.14673000000000003  1.0000
  C   C48       1.0  0.96879  0.6557500000000002  0.85326  1.0000
  C   C49       1.0  0.50505  0.16208  0.57938  1.0000
  C   C50       1.0  0.52316  0.1638  0.43185000000000007  1.0000
  C   C51       1.0  0.00505  0.66208  0.57938  1.0000
  C   C52       1.0  0.02316  0.6638  0.43185000000000007  1.0000
  C   C53       1.0  0.51442  0.053  0.54154  1.0000
  C   C54       1.0  0.52263  0.05453000000000001  0.4696  1.0000
  C   C55       1.0  0.01442  0.5530000000000002  0.54154  1.0000
  C   C56       1.0  0.02263  0.5545300000000001  0.4696  1.0000
  C   C57       1.0  0.52839  0.27397  0.47058000000000005  1.0000
  C   C58       1.0  0.51903  0.27318  0.54451  1.0000
  C   C59       1.0  0.02839  0.77397  0.47058000000000005  1.0000
  C   C60       1.0  0.019030000000000002  0.77318  0.54451  1.0000
  C   C61       1.0  0.47023  0.93949  0.5374200000000001  1.0000
  C   C62       1.0  0.47992000000000007  0.9419600000000001  0.45802  1.0000
  C   C63       1.0  0.97023  0.4394900000000001  0.5374200000000001  1.0000
  C   C64       1.0  0.97992  0.44196  0.45802  1.0000
  C   C65       1.0  0.74993  0.9335900000000001  0.58046  1.0000
  C   C66       1.0  0.2383  0.8934300000000002  0.42987000000000003  1.0000
  C   C67       1.0  0.24993  0.43359  0.58046  1.0000
  C   C68       1.0  0.7383  0.39343  0.42987000000000003  1.0000
  C   C69       1.0  0.79991  0.0019800000000000004  0.54307  1.0000
  C   C70       1.0  0.18333  0.94712  0.46678000000000003  1.0000
  C   C71       1.0  0.29991  0.5019900000000002  0.54307  1.0000
  C   C72       1.0  0.6833300000000001  0.44712000000000013  0.46678000000000003  1.0000
  C   C73       1.0  0.7956900000000001  0.01285  0.47089000000000003  1.0000
  C   C74       1.0  0.18441  0.9564400000000001  0.53913  1.0000
  C   C75       1.0  0.29569  0.51285  0.47089000000000003  1.0000
  C   C76       1.0  0.68441  0.45644000000000007  0.53913  1.0000
  C   C77       1.0  0.68493  0.90778  0.47057  1.0000
  C   C78       1.0  0.292  0.8403900000000001  0.5431500000000001  1.0000
  C   C79       1.0  0.18493  0.40778  0.47057  1.0000
  C   C80       1.0  0.792  0.34039  0.5431500000000001  1.0000
  C   C81       1.0  0.68836  0.8979700000000002  0.54471  1.0000
  C   C82       1.0  0.29025  0.83084  0.46897  1.0000
  C   C83       1.0  0.18836  0.39797000000000005  0.54471  1.0000
  C   C84       1.0  0.7902600000000001  0.33084  0.46897  1.0000
  C   C85       1.0  0.8786900000000001  0.99384  0.54104  1.0000
  C   C86       1.0  0.14985  0.06882  0.45572  1.0000
  C   C87       1.0  0.37869  0.49384  0.54104  1.0000
  C   C88       1.0  0.64985  0.56882  0.45572  1.0000
  C   C89       1.0  0.7410500000000001  0.96897  0.14758000000000002  1.0000
  C   C90       1.0  0.25894  0.96897  0.85242  1.0000
  C   C91       1.0  0.24105  0.46897000000000005  0.14758000000000002  1.0000
  C   C92       1.0  0.7589400000000001  0.46897000000000005  0.85242  1.0000
  C   C93       1.0  0.8734300000000002  0.00661  0.46117  1.0000
  C   C94       1.0  0.15089  0.08085  0.53548  1.0000
  C   C95       1.0  0.37343  0.50661  0.46117  1.0000
  C   C96       1.0  0.65089  0.58085  0.53548  1.0000
  C   C97       1.0  0.7423  0.95626  0.43272  1.0000
  C   C98       1.0  0.2425  0.9143800000000001  0.57789  1.0000
  C   C99       1.0  0.2423  0.45626000000000005  0.43272  1.0000
  C   C100      1.0  0.7425  0.41438  0.57789  1.0000
  C   C101      1.0  0.7278500000000001  0.37326  0.35462  1.0000
  C   C102      1.0  0.26998  0.38046  0.64824  1.0000
  C   C103      1.0  0.22785  0.87326  0.35462  1.0000
  C   C104      1.0  0.76998  0.8804600000000001  0.64824  1.0000
  C   C105      1.0  0.53719  0.15685000000000002  0.35634  1.0000
  C   C106      1.0  0.46869  0.15679000000000004  0.64707  1.0000
  C   C107      1.0  0.03719  0.6568500000000002  0.35633  1.0000
  C   C108      1.0  0.9686899999999999  0.65679  0.64707  1.0000
  C   C109      1.0  0.73927  0.9788000000000002  0.35711  1.0000
  C   C110      1.0  0.25772  0.9699900000000001  0.64621  1.0000
  C   C111      1.0  0.23927000000000004  0.4788000000000001  0.35711  1.0000
  C   C112      1.0  0.75772  0.4699900000000001  0.64621  1.0000
  C   C113      1.0  0.4969100000000001  0.16494000000000003  0.92564  1.0000
  C   C114      1.0  0.50315  0.16490000000000002  0.07433  1.0000
  C   C115      1.0  0.9969100000000001  0.6649400000000001  0.92564  1.0000
  C   C116      1.0  0.00315  0.6649  0.07433  1.0000
  C   C117      1.0  0.50144  0.2784  0.96242  1.0000
  C   C118      1.0  0.49859  0.27837  0.03755000000000001  1.0000
  C   C119      1.0  0.0014399999999999999  0.7784  0.96242  1.0000
  C   C120      1.0  0.99859  0.7783800000000001  0.03755000000000001  1.0000
  C   C121      1.0  0.50065  0.055170000000000004  0.03626  1.0000
  C   C122      1.0  0.49948000000000004  0.05519000000000001  0.9637000000000001  1.0000
  C   C123      1.0  0.0006500000000000001  0.5551700000000002  0.03626  1.0000
  C   C124      1.0  0.9994800000000001  0.55519  0.9637000000000001  1.0000
  Cr  Cr1       1.0  0.77201  0.16967  0.25009  1.0000
  Cr  Cr2       1.0  0.22799  0.16967  0.74991  1.0000
  Cr  Cr3       1.0  0.27201  0.66967  0.25009  1.0000
  Cr  Cr4       1.0  0.72799  0.66967  0.74991  1.0000
  Cr  Cr5       1.0  0.615  0.32326  0.24926000000000004  1.0000
  Cr  Cr6       1.0  0.385  0.32326  0.75074  1.0000
  Cr  Cr7       1.0  0.115  0.8232600000000001  0.24926000000000004  1.0000
  Cr  Cr8       1.0  0.885  0.8232600000000001  0.75074  1.0000
  Cr  Cr9       1.0  0.61671  0.010760000000000002  0.25084000000000006  1.0000
  Cr  Cr10      1.0  0.38329  0.010760000000000002  0.74916  1.0000
  Cr  Cr11      1.0  0.11671000000000001  0.51076  0.25084000000000006  1.0000
  Cr  Cr12      1.0  0.88329  0.51076  0.74916  1.0000
  H   H1        1.0  0.50271  0.96711  0.06248000000000001  1.0000
  H   H2        1.0  0.4974700000000001  0.9671500000000001  0.9374700000000001  1.0000
  H   H3        1.0  0.00271  0.4671100000000001  0.06248000000000001  1.0000
  H   H4        1.0  0.9974699999999999  0.4671500000000001  0.9374700000000001  1.0000
  H   H5        1.0  0.53636  0.3603200000000001  0.4437400000000001  1.0000
  H   H6        1.0  0.5172900000000001  0.35902000000000006  0.57301  1.0000
  H   H7        1.0  0.03636  0.86032  0.4437400000000001  1.0000
  H   H8        1.0  0.01729  0.85902  0.57301  1.0000
  H   H9        1.0  0.9152200000000001  0.45727000000000007  0.55312  1.0000
  H   H10       1.0  0.01162  0.36403  0.43802  1.0000
  H   H11       1.0  0.41522  0.9572700000000002  0.55312  1.0000
  H   H12       1.0  0.51162  0.8640300000000002  0.43802  1.0000
  H   H13       1.0  0.49572  0.8595700000000002  0.56339  1.0000
  H   H14       1.0  0.43050999999999995  0.96022  0.42824000000000007  1.0000
  H   H15       1.0  0.99572  0.35957000000000006  0.56339  1.0000
  H   H16       1.0  0.93051  0.46022  0.42824000000000007  1.0000
  H   H17       1.0  0.63909  0.87346  0.44300999999999996  1.0000
  H   H18       1.0  0.33498  0.7990000000000003  0.57221  1.0000
  H   H19       1.0  0.1391  0.37346  0.44300999999999996  1.0000
  H   H20       1.0  0.83498  0.29900000000000004  0.57221  1.0000
  H   H21       1.0  0.64607  0.8532000000000002  0.57277  1.0000
  H   H22       1.0  0.33041  0.7784300000000001  0.44238  1.0000
  H   H23       1.0  0.14607  0.35320000000000007  0.57277  1.0000
  H   H24       1.0  0.83041  0.27843000000000007  0.44238  1.0000
  H   H25       1.0  0.8982200000000001  0.90322  0.55861  1.0000
  H   H26       1.0  0.0963  0.061270000000000005  0.43245000000000006  1.0000
  H   H27       1.0  0.39822  0.4032200000000001  0.55861  1.0000
  H   H28       1.0  0.5963  0.5612700000000002  0.43245000000000006  1.0000
  H   H29       1.0  0.90427  0.07379000000000001  0.5669  1.0000
  H   H30       1.0  0.1852  0.13488  0.42868  1.0000
  H   H31       1.0  0.40427  0.5737900000000001  0.5669  1.0000
  H   H32       1.0  0.6852  0.63488  0.42868  1.0000
  H   H33       1.0  0.89666  0.09252  0.44028000000000006  1.0000
  H   H34       1.0  0.1853  0.15556  0.55502  1.0000
  H   H35       1.0  0.39666  0.59252  0.44028000000000006  1.0000
  H   H36       1.0  0.6853100000000001  0.6555600000000001  0.55502  1.0000
  H   H37       1.0  0.51969  0.39669000000000004  0.8707900000000001  1.0000
  H   H38       1.0  0.48030000000000006  0.39657  0.12918  1.0000
  H   H39       1.0  0.01969  0.89669  0.8707900000000001  1.0000
  H   H40       1.0  0.9803000000000001  0.89657  0.12918  1.0000
  H   H41       1.0  0.01009  0.08813000000000003  0.93549  1.0000
  H   H42       1.0  0.9898799999999999  0.08807  0.06449  1.0000
  H   H43       1.0  0.51009  0.58813  0.93549  1.0000
  H   H44       1.0  0.48988  0.58807  0.06449  1.0000
  H   H45       1.0  0.85673  0.98389  0.06974  1.0000
  H   H46       1.0  0.14325  0.9837  0.93023  1.0000
  H   H47       1.0  0.35673  0.4838900000000001  0.06974  1.0000
  H   H48       1.0  0.6432500000000002  0.4837000000000001  0.93023  1.0000
  H   H49       1.0  0.8631300000000001  0.9786000000000002  0.94384  1.0000
  H   H50       1.0  0.13685  0.9783900000000002  0.05613  1.0000
  H   H51       1.0  0.36313  0.4786000000000001  0.94384  1.0000
  H   H52       1.0  0.63685  0.47839000000000004  0.05613  1.0000
  H   H53       1.0  0.17504  0.19784000000000002  0.93935  1.0000
  H   H54       1.0  0.8249500000000001  0.19795000000000004  0.060680000000000005  1.0000
  H   H55       1.0  0.67504  0.6978400000000001  0.93935  1.0000
  H   H56       1.0  0.32495  0.69795  0.060680000000000005  1.0000
  H   H57       1.0  0.59579  0.7986900000000002  0.93224  1.0000
  H   H58       1.0  0.4042  0.79892  0.06777  1.0000
  H   H59       1.0  0.09579  0.29869000000000007  0.93224  1.0000
  H   H60       1.0  0.9042000000000001  0.29892  0.06777  1.0000
  H   H61       1.0  0.58969  0.8079  0.05867000000000001  1.0000
  H   H62       1.0  0.4103  0.80813  0.94134  1.0000
  H   H63       1.0  0.08969  0.3079  0.05867000000000001  1.0000
  H   H64       1.0  0.9103000000000001  0.30813000000000007  0.94134  1.0000
  H   H65       1.0  0.66944  0.70902  0.06617000000000002  1.0000
  H   H66       1.0  0.33054  0.70913  0.93386  1.0000
  H   H67       1.0  0.16945  0.20902000000000004  0.06617000000000002  1.0000
  H   H68       1.0  0.83054  0.20913000000000004  0.93386  1.0000
  O   O1        1.0  0.78752  0.042810000000000015  0.17044  1.0000
  O   O2        1.0  0.21248  0.042810000000000015  0.82956  1.0000
  O   O3        1.0  0.28752  0.54281  0.17044  1.0000
  O   O4        1.0  0.71248  0.54281  0.82956  1.0000
  O   O5        1.0  0.55661  0.25288000000000005  0.32398000000000005  1.0000
  O   O6        1.0  0.44339  0.25288000000000005  0.67602  1.0000
  O   O7        1.0  0.056609999999999994  0.75288  0.32398000000000005  1.0000
  O   O8        1.0  0.94339  0.75288  0.67602  1.0000
  O   O9        1.0  0.54595  0.051210000000000006  0.33086000000000004  1.0000
  O   O10       1.0  0.45405000000000006  0.051210000000000006  0.66914  1.0000
  O   O11       1.0  0.04595  0.55121  0.33086000000000004  1.0000
  O   O12       1.0  0.9540499999999998  0.55121  0.66914  1.0000
  O   O13       1.0  0.6813900000000002  0.9594800000000002  0.32551  1.0000
  O   O14       1.0  0.31861  0.9594800000000002  0.6744900000000001  1.0000
  O   O15       1.0  0.18139  0.45948000000000006  0.32551  1.0000
  O   O16       1.0  0.81861  0.45948000000000006  0.6744900000000001  1.0000
  O   O17       1.0  0.6679  0.1679  0.25006  1.0000
  O   O18       1.0  0.3321  0.1679  0.74994  1.0000
  O   O19       1.0  0.1679  0.6679  0.25006  1.0000
  O   O20       1.0  0.8321000000000001  0.6679  0.74994  1.0000
  O   O21       1.0  0.76564  0.2921  0.17502  1.0000
  O   O22       1.0  0.23436  0.2921  0.82498  1.0000
  O   O23       1.0  0.26564  0.7921000000000001  0.17502  1.0000
  O   O24       1.0  0.73436  0.7921000000000001  0.82498  1.0000
  O   O25       1.0  0.67019  0.40884  0.16854  1.0000
  O   O26       1.0  0.32981000000000005  0.40884  0.83146  1.0000
  O   O27       1.0  0.17019  0.9088400000000002  0.16854  1.0000
  O   O28       1.0  0.82981  0.9088400000000002  0.83146  1.0000
  O   O29       1.0  0.55662  0.25141  0.17516  1.0000
  O   O30       1.0  0.44338  0.25141  0.82484  1.0000
  O   O31       1.0  0.05662  0.7514100000000001  0.17516  1.0000
  O   O32       1.0  0.9433800000000001  0.7514100000000001  0.82484  1.0000
  O   O33       1.0  0.54596  0.04962000000000001  0.17032000000000003  1.0000
  O   O34       1.0  0.45404  0.04962000000000001  0.82968  1.0000
  O   O35       1.0  0.04596  0.54962  0.17032000000000003  1.0000
  O   O36       1.0  0.9540400000000001  0.54962  0.82968  1.0000
  O   O37       1.0  0.6813900000000002  0.95801  0.17669000000000004  1.0000
  O   O38       1.0  0.31861  0.9580100000000003  0.82331  1.0000
  O   O39       1.0  0.18139  0.45801000000000003  0.17669000000000004  1.0000
  O   O40       1.0  0.81861  0.45801000000000003  0.82331  1.0000
  O   O41       1.0  0.78751  0.04439000000000001  0.33097  1.0000
  O   O42       1.0  0.21249  0.04439000000000001  0.66903  1.0000
  O   O43       1.0  0.28751  0.5443900000000002  0.33097  1.0000
  O   O44       1.0  0.71249  0.5443900000000002  0.66903  1.0000
  O   O45       1.0  0.76563  0.29357  0.32384  1.0000
  O   O46       1.0  0.23437  0.29357  0.67616  1.0000
  O   O47       1.0  0.26563  0.7935700000000001  0.32384  1.0000
  O   O48       1.0  0.73437  0.7935700000000001  0.67616  1.0000
  O   O49       1.0  0.67019  0.41042  0.32908000000000004  1.0000
  O   O50       1.0  0.32981  0.41042  0.6709200000000001  1.0000
  O   O51       1.0  0.17019  0.9104200000000001  0.32908000000000004  1.0000
  O   O52       1.0  0.82981  0.9104200000000001  0.6709200000000001  1.0000
  O   O53       1.0  0.8953200000000001  0.9020500000000001  0.42357000000000006  1.0000
  H   H69       1.0  0.87234  0.82865  0.44425000000000003  1.0000
  O   O54       1.0  0.08291  0.08079  0.56361  1.0000
  H   H70       1.0  0.08815  0.0999  0.61471  1.0000
  O   O55       1.0  0.39532  0.40205  0.42357000000000006  1.0000
  H   H71       1.0  0.37234000000000006  0.3286500000000001  0.44425000000000003  1.0000
  O   O56       1.0  0.58291  0.58079  0.56361  1.0000
  H   H72       1.0  0.58815  0.59992  0.61471  1.0000
