data_image0
_chemical_formula_structural       O2CO2CCu2O4C3HCH3C3H2C3H4CHCHCHCHC4HC2HCHCHC2HC2NCHCNCH3NO2NO2CH3
_chemical_formula_sum              "O12 C32 Cu2 H26 N4"
_cell_length_a       10.7907
_cell_length_b       10.8888
_cell_length_c       9.57722
_cell_angle_alpha    90.69431
_cell_angle_beta     90.44718
_cell_angle_gamma    92.83019

_symmetry_space_group_name_H-M    'P 1'
_symmetry_Int_Tables_number       1

loop_
  _symmetry_equiv_pos_as_xyz
  'x,y,z'

loop_
  _atom_site_type_symbol
  _atom_site_label
  _atom_site_symmetry_multiplicity
  _atom_site_fract_x
  _atom_site_fract_y
  _atom_site_fract_z
  _atom_site_occupancy
  O   O1        1.0  0.49999  0.31964  0.61881  1.0000
  O   O2        1.0  0.5  0.31966  0.38124  1.0000
  C   C1        1.0  0.51071  0.26303  0.49905999999999995  1.0000
  O   O3        1.0  0.31768  0.49997  0.61879  1.0000
  O   O4        1.0  0.3177  0.49999000000000005  0.38121  1.0000
  C   C2        1.0  0.25992  0.50135  0.50035  1.0000
  Cu  Cu1       1.0  0.49999000000000005  0.49999000000000005  0.64066  1.0000
  Cu  Cu2       1.0  0.50001  0.50001  0.35934  1.0000
  O   O5        1.0  0.5  0.68034  0.6187600000000001  1.0000
  O   O6        1.0  0.50001  0.68036  0.38119  1.0000
  O   O7        1.0  0.6823  0.50001  0.61879  1.0000
  O   O8        1.0  0.68232  0.50003  0.38121  1.0000
  C   C3        1.0  0.49306  0.73748  0.50174  1.0000
  C   C4        1.0  0.73931  0.49117  0.50149  1.0000
  C   C5        1.0  0.07301  0.46061  0.65342  1.0000
  H   H1        1.0  0.12052999999999998  0.37669  0.68552  1.0000
  C   C6        1.0  0.93189  0.42432  0.64126  1.0000
  H   H2        1.0  0.92487  0.32334  0.61931  1.0000
  H   H3        1.0  0.11937  0.70074  0.5364300000000001  1.0000
  H   H4        1.0  0.9089  0.67747  0.58803  1.0000
  C   C7        1.0  0.07308  0.62712  0.47032999999999997  1.0000
  C   C8        1.0  0.06706  0.40629  0.3917  1.0000
  C   C9        1.0  0.12173  0.49941  0.50427  1.0000
  H   H5        1.0  0.10845  0.42458  0.28748  1.0000
  H   H6        1.0  0.08925  0.31116  0.42081  1.0000
  C   C10       1.0  0.87731  0.48897000000000007  0.50683  1.0000
  C   C11       1.0  0.93105  0.62386  0.49309000000000003  1.0000
  C   C12       1.0  0.9248  0.4155400000000001  0.37939  1.0000
  H   H7        1.0  0.87924  0.3216  0.3742  1.0000
  H   H8        1.0  0.90203  0.46227000000000007  0.28028000000000003  1.0000
  H   H9        1.0  0.09406  0.65037  0.35985  1.0000
  H   H10       1.0  0.8869999999999999  0.6697  0.40344  1.0000
  C   C13       1.0  0.60102  0.12427000000000002  0.7416200000000001  1.0000
  H   H11       1.0  0.65118  0.21191000000000002  0.73393  1.0000
  C   C14       1.0  0.59943  0.0672  0.87057  1.0000
  H   H12       1.0  0.64592  0.11190999999999998  0.95876  1.0000
  C   C15       1.0  0.53524  0.95456  0.88561  1.0000
  H   H13       1.0  0.52657  0.9134  0.98761  1.0000
  C   C16       1.0  0.48693  0.89206  0.76796  1.0000
  H   H14       1.0  0.43433  0.80709  0.78619  1.0000
  C   C17       1.0  0.50446  0.9413900000000001  0.63277  1.0000
  C   C18       1.0  0.54303  0.06644  0.62384  1.0000
  C   C19       1.0  0.52449  0.12889  0.49723000000000006  1.0000
  C   C20       1.0  0.50206  0.05978  0.37286  1.0000
  H   H15       1.0  0.47589  0.88156  0.2814  1.0000
  C   C21       1.0  0.48673  0.9328499999999998  0.37882000000000005  1.0000
  C   C22       1.0  0.48818999999999996  0.872  0.50654  1.0000
  H   H16       1.0  0.36031  0.35952  0.1262  1.0000
  C   C23       1.0  0.66492  0.66421  0.14765  1.0000
  H   H17       1.0  0.6736  0.67131  0.25779  1.0000
  C   C24       1.0  0.7446399999999999  0.74552  0.07756  1.0000
  H   H18       1.0  0.80636  0.80774  0.13759000000000002  1.0000
  C   C25       1.0  0.7439799999999999  0.7481900000000001  0.93288  1.0000
  C   C26       1.0  0.66268  0.66638  0.8594700000000001  1.0000
  H   H19       1.0  0.66953  0.67073  0.74954  1.0000
  C   C27       1.0  0.58026  0.58166  0.92707  1.0000
  C   C28       1.0  0.58076  0.5811  0.07656  1.0000
  N   N1        1.0  0.5012  0.50121  0.14791  1.0000
  C   C29       1.0  0.42323  0.42274  0.07221  1.0000
  H   H20       1.0  0.36069  0.35922  0.86727  1.0000
  C   C30       1.0  0.42344  0.42260000000000003  0.92414  1.0000
  N   N2        1.0  0.50125  0.50129  0.8520399999999999  1.0000
  C   C31       1.0  0.10223  0.5608  0.76973  1.0000
  H   H21       1.0  0.0345  0.63401  0.76893  1.0000
  H   H22       1.0  0.10028  0.51783  0.87436  1.0000
  H   H23       1.0  0.19414  0.60946  0.76099  1.0000
  N   N3        1.0  0.50297  0.11568  0.23826  1.0000
  O   O9        1.0  0.41393  0.0887  0.14904  1.0000
  O   O10       1.0  0.60166  0.17839  0.19762  1.0000
  N   N4        1.0  0.8247000000000001  0.8348  0.86018  1.0000
  O   O11       1.0  0.91195  0.8985  0.92714  1.0000
  O   O12       1.0  0.80807  0.85508  0.72787  1.0000
  C   C32       1.0  0.8659599999999998  0.43345  0.7836200000000001  1.0000
  H   H24       1.0  0.85134  0.53005  0.81251  1.0000
  H   H25       1.0  0.7767299999999999  0.37907  0.78405  1.0000
  H   H26       1.0  0.92221  0.392  0.86668  1.0000
