data_image0
_chemical_formula_structural       C50Cr6H33NO26
_chemical_formula_sum              "C50 Cr6 H33 N1 O26"
_cell_length_a       10.88636
_cell_length_b       10.91088
_cell_length_c       18.82619
_cell_angle_alpha    90.36688
_cell_angle_beta     89.80436
_cell_angle_gamma    60.27855000000001

_space_group_name_H-M_alt    "P 1"
_space_group_IT_number       1

loop_
  _space_group_symop_operation_xyz
  'x, y, z'

loop_
  _atom_site_type_symbol
  _atom_site_label
  _atom_site_symmetry_multiplicity
  _atom_site_fract_x
  _atom_site_fract_y
  _atom_site_fract_z
  _atom_site_occupancy
  C   C1        1.0  0.23604999999999998  0.64673  0.60959  1.0000
  C   C2        1.0  0.5517  0.22529  0.7961  1.0000
  C   C3        1.0  0.53609  0.23834000000000002  0.7237400000000003  1.0000
  C   C4        1.0  0.6533600000000002  0.62184  0.6012700000000002  1.0000
  C   C5        1.0  0.65376  0.1965  0.67917  1.0000
  C   C6        1.0  0.18896000000000004  0.55497  0.7209200000000001  1.0000
  C   C7        1.0  0.17860000000000004  0.56105  0.79476  1.0000
  C   C8        1.0  0.16732000000000005  0.67848  0.83159  1.0000
  C   C9        1.0  0.17127999999999988  0.78686  0.79397  1.0000
  C   C10       1.0  0.17982000000000006  0.78162  0.72102  1.0000
  C   C11       1.0  0.19118  0.66475  0.68373  1.0000
  C   C12       1.0  0.67309  0.54888  0.8003200000000003  1.0000
  C   C13       1.0  0.72986  0.52604  0.27164  1.0000
  C   C14       1.0  0.7282100000000001  0.53866  0.19887000000000002  1.0000
  C   C15       1.0  0.6505800000000002  0.6714  0.16777  1.0000
  C   C16       1.0  0.6257699999999998  0.23272  0.60437  1.0000
  C   C17       1.0  0.5618500000000001  0.78932  0.21032000000000006  1.0000
  C   C18       1.0  0.5592299999999998  0.77532  0.28392  1.0000
  C   C19       1.0  0.64763  0.64414  0.31504  1.0000
  C   C20       1.0  0.54247  0.15989  0.28742  1.0000
  C   C21       1.0  0.54225  0.15535  0.21464000000000005  1.0000
  C   C22       1.0  0.651  0.1582  0.1763  1.0000
  C   C23       1.0  0.69975  0.67429  0.81207  1.0000
  C   C24       1.0  0.7567599999999999  0.17208  0.21158  1.0000
  C   C25       1.0  0.7559399999999998  0.17848  0.28488  1.0000
  C   C26       1.0  0.64665  0.17606  0.32294  1.0000
  C   C27       1.0  0.08835999999999988  0.80328  0.30506  1.0000
  C   C28       1.0  0.21909999999999993  0.64953  0.40241000000000005  1.0000
  C   C29       1.0  0.06945000000000005  0.81549  0.23297000000000004  1.0000
  C   C30       1.0  0.10738999999999997  0.69517  0.19059000000000004  1.0000
  C   C31       1.0  0.15229999999999996  0.56418  0.22166000000000002  1.0000
  C   C32       1.0  0.17351000000000008  0.5513499999999999  0.29434  1.0000
  C   C33       1.0  0.14927999999999997  0.67  0.33522  1.0000
  C   C34       1.0  0.6692  0.64714  0.6766400000000001  1.0000
  C   C35       1.0  0.70182  0.10343  0.8965800000000002  1.0000
  C   C36       1.0  0.7246399999999997  0.68878  0.88778  1.0000
  C   C37       1.0  0.11607000000000003  0.70774  0.9047200000000001  1.0000
  C   C38       1.0  0.67434  0.10803  0.10393  1.0000
  C   C39       1.0  0.6939  0.68993  0.09711000000000002  1.0000
  C   C40       1.0  0.6402599999999998  0.61992  0.3906400000000001  1.0000
  C   C41       1.0  0.08267  0.71533  0.11546000000000001  1.0000
  C   C42       1.0  0.61794  0.22776000000000002  0.3951300000000001  1.0000
  C   C43       1.0  0.57458  0.81333  0.78202  1.0000
  C   C44       1.0  0.5534099999999998  0.7951  0.70283  1.0000
  C   C45       1.0  0.8159599999999999  0.63222  0.68992  1.0000
  C   C46       1.0  0.8352400000000001  0.64478  0.76986  1.0000
  C   C47       1.0  0.65453  0.53342  0.7200600000000003  1.0000
  C   C48       1.0  0.7886299999999999  0.14371999999999996  0.70878  1.0000
  C   C49       1.0  0.8053399999999998  0.12502  0.7822600000000001  1.0000
  C   C50       1.0  0.6866500000000001  0.16227  0.82587  1.0000
  Cr  Cr1       1.0  0.39292999999999995  0.3979  0.50223  1.0000
  Cr  Cr2       1.0  0.39824  0.7086  0.50126  1.0000
  Cr  Cr3       1.0  0.7088  0.39347  0.49646  1.0000
  Cr  Cr4       1.0  0.9376199999999999  0.9385400000000002  0.00764  1.0000
  Cr  Cr5       1.0  0.6251500000000002  0.9374499999999999  0.9945200000000001  1.0000
  Cr  Cr6       1.0  0.9379899999999999  0.62508  0.00119  1.0000
  H   H1        1.0  0.5977799999999998  0.90145  0.78817  1.0000
  H   H2        1.0  0.17363999999999993  0.4771  0.82267  1.0000
  H   H3        1.0  0.16221  0.87939  0.82052  1.0000
  H   H4        1.0  0.47485  0.8448199999999999  0.81188  1.0000
  H   H5        1.0  0.18219000000000005  0.8679599999999998  0.6941900000000001  1.0000
  H   H6        1.0  0.7957200000000002  0.42256  0.29378  1.0000
  H   H7        1.0  0.7964299999999999  0.4457300000000001  0.16734000000000004  1.0000
  H   H8        1.0  0.5013  0.8930899999999999  0.18736  1.0000
  H   H9        1.0  0.49140000000000017  0.8667399999999998  0.31641  1.0000
  H   H10       1.0  0.45648  0.15786  0.31554  1.0000
  H   H11       1.0  0.46033999999999997  0.14282  0.18879000000000004  1.0000
  H   H12       1.0  0.7368899999999999  0.42591000000000007  0.70269  1.0000
  H   H13       1.0  0.8428499999999999  0.17245  0.18272  1.0000
  H   H14       1.0  0.83758  0.19014  0.31153  1.0000
  H   H15       1.0  0.06619999999999994  0.89607  0.33615  1.0000
  H   H16       1.0  0.44643000000000005  0.80753  0.6955200000000002  1.0000
  H   H17       1.0  0.027549999999999946  0.91949  0.21038000000000007  1.0000
  H   H18       1.0  0.17624999999999996  0.47191  0.18972000000000006  1.0000
  H   H19       1.0  0.21951000000000004  0.44711  0.31726  1.0000
  H   H20       1.0  0.55821  0.8789400000000002  0.6715900000000001  1.0000
  H   H21       1.0  0.86017  0.73092  0.77953  1.0000
  H   H22       1.0  0.82553  0.71575  0.66094  1.0000
  H   H23       1.0  0.92732  0.54451  0.7879200000000001  1.0000
  H   H24       1.0  0.7679899999999998  0.45048999999999995  0.81849  1.0000
  H   H25       1.0  0.5503199999999999  0.54127  0.70918  1.0000
  H   H26       1.0  0.5478  0.47259  0.8391000000000002  1.0000
  H   H27       1.0  0.4576100000000001  0.64458  0.81954  1.0000
  H   H28       1.0  0.90181  0.52831  0.6701300000000001  1.0000
  H   H29       1.0  0.88015  0.11509000000000001  0.67527  1.0000
  H   H30       1.0  0.91063  0.07513  0.80434  1.0000
  H   H31       1.0  0.45820999999999995  0.25623  0.8285400000000003  1.0000
  H   H32       1.0  0.43039999999999995  0.28299  0.7028000000000002  1.0000
  H   H33       1.0  0.19678999999999996  0.46423  0.69309  1.0000
  N   N1        1.0  0.5511299999999999  0.56651  0.8420100000000003  1.0000
  O   O1        1.0  0.50743  0.25557  0.5814200000000002  1.0000
  O   O2        1.0  0.8372  0.59329  0.91525  1.0000
  O   O3        1.0  0.06532999999999999  0.63537  0.93159  1.0000
  O   O4        1.0  0.28019  0.52739  0.5789100000000001  1.0000
  O   O5        1.0  0.06829999999999993  0.82879  0.09186  1.0000
  O   O6        1.0  0.7987299999999999  0.05748  0.07937000000000001  1.0000
  O   O7        1.0  0.58468  0.08048  0.07679  1.0000
  O   O8        1.0  0.6267899999999998  0.80964  0.06705  1.0000
  O   O9        1.0  0.8160100000000002  0.59646  0.0765  1.0000
  O   O10       1.0  0.045679999999999985  0.63831  0.08107  1.0000
  O   O11       1.0  0.8335899999999999  0.83369  0.00112  1.0000
  O   O12       1.0  0.5244599999999999  0.69592  0.4240600000000001  1.0000
  O   O13       1.0  0.26031  0.73974  0.58458  1.0000
  O   O14       1.0  0.53225  0.69515  0.57383  1.0000
  O   O15       1.0  0.7449299999999999  0.50343  0.57638  1.0000
  O   O16       1.0  0.6992499999999998  0.27639  0.57195  1.0000
  O   O17       1.0  0.49902  0.2564  0.41985  1.0000
  O   O18       1.0  0.2724  0.52816  0.42914  1.0000
  O   O19       1.0  0.25191  0.74057  0.42302  1.0000
  O   O20       1.0  0.7365299999999999  0.50426  0.41481  1.0000
  O   O21       1.0  0.69146  0.27716  0.4221800000000001  1.0000
  O   O22       1.0  0.49998999999999993  0.49999  0.49998  1.0000
  O   O23       1.0  0.08949  0.82561  0.9306100000000003  1.0000
  O   O24       1.0  0.81837  0.05453999999999999  0.9298800000000003  1.0000
  O   O25       1.0  0.6058699999999999  0.07731000000000002  0.9155300000000001  1.0000
  O   O26       1.0  0.6464399999999998  0.8067  0.91757  1.0000
