data_image0
_chemical_formula_structural       C104Cr12H32O52CNCNCNCN2H2NH2NH2NH2NH2NH2NH2NH2NH2NH2NH2NH2CNCNCNCN
_chemical_formula_sum              "C112 Cr12 H56 O52 N20"
_cell_length_a       18.9102
_cell_length_b       11.04517
_cell_length_c       18.84966
_cell_angle_alpha    90.03686
_cell_angle_beta     90.10142
_cell_angle_gamma    89.83181999999998

_space_group_name_H-M_alt    "P 1"
_space_group_IT_number       1

loop_
  _space_group_symop_operation_xyz
  'x, y, z'

loop_
  _atom_site_type_symbol
  _atom_site_label
  _atom_site_symmetry_multiplicity
  _atom_site_fract_x
  _atom_site_fract_y
  _atom_site_fract_z
  _atom_site_occupancy
  C   C1        1.0  0.73005  0.37932  0.14648  1.0000
  C   C2        1.0  0.26991000000000004  0.37934  0.8534900000000001  1.0000
  C   C3        1.0  0.23005  0.87932  0.14648  1.0000
  C   C4        1.0  0.76991  0.8793400000000001  0.8534900000000001  1.0000
  C   C5        1.0  0.51824  0.38056  0.92845  1.0000
  C   C6        1.0  0.48100000000000004  0.38047  0.07162  1.0000
  C   C7        1.0  0.01824  0.88056  0.92845  1.0000
  C   C8        1.0  0.9810000000000001  0.8804699999999999  0.07162  1.0000
  C   C9        1.0  0.012230000000000001  0.98916  0.96554  1.0000
  C   C10       1.0  0.98642  0.9890999999999999  0.03461  1.0000
  C   C11       1.0  0.51223  0.48916  0.96554  1.0000
  C   C12       1.0  0.48642  0.4891  0.03461  1.0000
  C   C13       1.0  0.68231  0.9172899999999999  0.028860000000000004  1.0000
  C   C14       1.0  0.31811  0.91794  0.9713900000000001  1.0000
  C   C15       1.0  0.18231  0.41729  0.028860000000000004  1.0000
  C   C16       1.0  0.81811  0.41794  0.9713900000000001  1.0000
  C   C17       1.0  0.69327  0.8872999999999999  0.9580199999999999  1.0000
  C   C18       1.0  0.30706000000000006  0.8878  0.04218  1.0000
  C   C19       1.0  0.19327  0.3873  0.9580199999999999  1.0000
  C   C20       1.0  0.80706  0.3878  0.04218  1.0000
  C   C21       1.0  0.74954  0.93575  0.92087  1.0000
  C   C22       1.0  0.25022000000000005  0.93551  0.07909000000000001  1.0000
  C   C23       1.0  0.24954000000000004  0.43575  0.92087  1.0000
  C   C24       1.0  0.75022  0.43551  0.07909000000000001  1.0000
  C   C25       1.0  0.79319  0.02389  0.95401  1.0000
  C   C26       1.0  0.20597000000000001  0.02296  0.04577  1.0000
  C   C27       1.0  0.29319  0.52389  0.95401  1.0000
  C   C28       1.0  0.70597  0.52296  0.04577  1.0000
  C   C29       1.0  0.7828700000000002  0.052939999999999994  0.02463  1.0000
  C   C30       1.0  0.21632  0.05197000000000001  0.97522  1.0000
  C   C31       1.0  0.28287  0.55294  0.02463  1.0000
  C   C32       1.0  0.7163200000000002  0.55197  0.97522  1.0000
  C   C33       1.0  0.72987  0.9961400000000001  0.0637  1.0000
  C   C34       1.0  0.26999  0.9959999999999999  0.93636  1.0000
  C   C35       1.0  0.22987  0.49614  0.0637  1.0000
  C   C36       1.0  0.76999  0.496  0.93636  1.0000
  C   C37       1.0  0.48461  0.06001000000000001  0.4586  1.0000
  C   C38       1.0  0.47846  0.05612000000000001  0.53095  1.0000
  C   C39       1.0  0.98471  0.55993  0.45861999999999997  1.0000
  C   C40       1.0  0.9786000000000001  0.55606  0.53098  1.0000
  C   C41       1.0  0.48815000000000003  0.16108  0.5718800000000002  1.0000
  C   C42       1.0  0.50622  0.16658  0.42555000000000004  1.0000
  C   C43       1.0  0.9881500000000001  0.66109  0.5718800000000002  1.0000
  C   C44       1.0  0.00619  0.66656  0.42554  1.0000
  C   C45       1.0  0.53028  0.15468  0.14703  1.0000
  C   C46       1.0  0.46977  0.15459  0.8529300000000001  1.0000
  C   C47       1.0  0.03028  0.65468  0.14703  1.0000
  C   C48       1.0  0.96977  0.65459  0.8529300000000001  1.0000
  C   C49       1.0  0.50683  0.26992  0.53904  1.0000
  C   C50       1.0  0.51732  0.27208  0.46594  1.0000
  C   C51       1.0  0.006670000000000001  0.76999  0.53901  1.0000
  C   C52       1.0  0.01715  0.77214  0.4659  1.0000
  C   C53       1.0  0.81088  0.97618  0.4664  1.0000
  C   C54       1.0  0.21246  0.04900000000000001  0.52079  1.0000
  C   C55       1.0  0.31096  0.47579  0.46631  1.0000
  C   C56       1.0  0.71246  0.54904  0.52079  1.0000
  C   C57       1.0  0.8104300000000001  0.9855199999999998  0.53982  1.0000
  C   C58       1.0  0.2107  0.029590000000000005  0.44754000000000005  1.0000
  C   C59       1.0  0.31057000000000007  0.48514  0.5397300000000002  1.0000
  C   C60       1.0  0.71069  0.5296  0.44754000000000005  1.0000
  C   C61       1.0  0.75415  0.93246  0.57857  1.0000
  C   C62       1.0  0.25347  0.93802  0.41763  1.0000
  C   C63       1.0  0.25422  0.4323199999999999  0.57851  1.0000
  C   C64       1.0  0.7534700000000002  0.43806  0.41762  1.0000
  C   C65       1.0  0.69122  0.9049400000000001  0.54397  1.0000
  C   C66       1.0  0.30684  0.8839  0.45827  1.0000
  C   C67       1.0  0.19125  0.40497  0.54395  1.0000
  C   C68       1.0  0.80688  0.38402  0.45825000000000005  1.0000
  C   C69       1.0  0.68756  0.91353  0.47040000000000004  1.0000
  C   C70       1.0  0.31406  0.9135999999999999  0.52953  1.0000
  C   C71       1.0  0.18757  0.41356  0.47038  1.0000
  C   C72       1.0  0.8141100000000002  0.41374999999999995  0.5295  1.0000
  C   C73       1.0  0.74815  0.94373  0.43086  1.0000
  C   C74       1.0  0.26572  0.9928  0.56201  1.0000
  C   C75       1.0  0.24818  0.4435799999999999  0.43082  1.0000
  C   C76       1.0  0.76575  0.49288000000000004  0.562  1.0000
  C   C77       1.0  0.72693  0.02036  0.14029  1.0000
  C   C78       1.0  0.27301  0.0204  0.8598  1.0000
  C   C79       1.0  0.22693000000000002  0.52036  0.14029  1.0000
  C   C80       1.0  0.77301  0.5204  0.8598  1.0000
  C   C81       1.0  0.7311  0.38224  0.35086  1.0000
  C   C82       1.0  0.26965  0.38250999999999996  0.64881  1.0000
  C   C83       1.0  0.2311  0.88223  0.35086  1.0000
  C   C84       1.0  0.7696400000000001  0.8825500000000001  0.64883  1.0000
  C   C85       1.0  0.53308  0.15736  0.35379  1.0000
  C   C86       1.0  0.46599000000000007  0.15631  0.64551  1.0000
  C   C87       1.0  0.03307  0.65735  0.35379  1.0000
  C   C88       1.0  0.96599  0.65631  0.64551  1.0000
  C   C89       1.0  0.74078  0.97504  0.35605  1.0000
  C   C90       1.0  0.2716100000000001  0.01959  0.63807  1.0000
  C   C91       1.0  0.24079000000000003  0.47499  0.35602  1.0000
  C   C92       1.0  0.77162  0.51962  0.63807  1.0000
  C   C93       1.0  0.50205  0.15932  0.9249400000000001  1.0000
  C   C94       1.0  0.4981900000000001  0.15934  0.07493  1.0000
  C   C95       1.0  0.0020500000000000006  0.65933  0.9249400000000001  1.0000
  C   C96       1.0  0.99819  0.65934  0.07493  1.0000
  C   C97       1.0  0.5045500000000002  0.26976  0.96269  1.0000
  C   C98       1.0  0.49522000000000005  0.26974  0.03728  1.0000
  C   C99       1.0  0.004550000000000001  0.76975  0.96269  1.0000
  C   C100      1.0  0.99522  0.7697400000000001  0.03728  1.0000
  C   C101      1.0  0.49452000000000007  0.04963  0.0364  1.0000
  C   C102      1.0  0.50628  0.04964999999999999  0.96336  1.0000
  C   C103      1.0  0.9945200000000001  0.54963  0.0364  1.0000
  C   C104      1.0  0.00628  0.54965  0.96336  1.0000
  Cr  Cr1       1.0  0.772  0.16964  0.25011  1.0000
  Cr  Cr2       1.0  0.22800000000000004  0.16964  0.74989  1.0000
  Cr  Cr3       1.0  0.272  0.66964  0.25011  1.0000
  Cr  Cr4       1.0  0.728  0.66964  0.74989  1.0000
  Cr  Cr5       1.0  0.61496  0.32335  0.24926  1.0000
  Cr  Cr6       1.0  0.38504  0.32335  0.7507400000000001  1.0000
  Cr  Cr7       1.0  0.11496  0.8233499999999999  0.24926  1.0000
  Cr  Cr8       1.0  0.8850400000000002  0.8233499999999999  0.7507400000000001  1.0000
  Cr  Cr9       1.0  0.61667  0.01062  0.25084  1.0000
  Cr  Cr10      1.0  0.38333000000000006  0.01062  0.74916  1.0000
  Cr  Cr11      1.0  0.11667000000000001  0.51062  0.25084  1.0000
  Cr  Cr12      1.0  0.8833300000000001  0.51062  0.74916  1.0000
  H   H1        1.0  0.6456600000000001  0.87504  0.57385  1.0000
  H   H2        1.0  0.34059  0.8141799999999999  0.43607  1.0000
  H   H3        1.0  0.14567  0.37522  0.57385  1.0000
  H   H4        1.0  0.84066  0.31435  0.43604000000000004  1.0000
  H   H5        1.0  0.6374  0.89606  0.44458000000000003  1.0000
  H   H6        1.0  0.3548200000000001  0.8686199999999998  0.56012  1.0000
  H   H7        1.0  0.13738  0.39623  0.44459  1.0000
  H   H8        1.0  0.85491  0.36884000000000006  0.56008  1.0000
  H   H9        1.0  0.53493  0.38354  0.8735900000000001  1.0000
  H   H10       1.0  0.46434000000000003  0.3833500000000001  0.1265  1.0000
  H   H11       1.0  0.03493  0.88354  0.8735900000000001  1.0000
  H   H12       1.0  0.96434  0.8833499999999999  0.1265  1.0000
  H   H13       1.0  0.02441  0.07392  0.9396200000000001  1.0000
  H   H14       1.0  0.9738800000000001  0.0738  0.06063000000000001  1.0000
  H   H15       1.0  0.52441  0.57392  0.9396200000000001  1.0000
  H   H16       1.0  0.4738800000000001  0.5738  0.06063000000000001  1.0000
  H   H17       1.0  0.6609700000000001  0.8188300000000001  0.93337  1.0000
  H   H18       1.0  0.33992  0.8200400000000001  0.06704  1.0000
  H   H19       1.0  0.16097  0.31883  0.93337  1.0000
  H   H20       1.0  0.83992  0.32004  0.06704  1.0000
  H   H21       1.0  0.81891  0.1153  0.0502  1.0000
  H   H22       1.0  0.17983000000000002  0.11377000000000001  0.9495500000000001  1.0000
  H   H23       1.0  0.3189100000000001  0.6153  0.0502  1.0000
  H   H24       1.0  0.67983  0.61377  0.9495500000000001  1.0000
  H   H25       1.0  0.47628000000000004  0.97703  0.42905  1.0000
  H   H26       1.0  0.46407  0.97032  0.55436  1.0000
  H   H27       1.0  0.97649  0.47689  0.4291  1.0000
  H   H28       1.0  0.96432  0.47022  0.5544100000000001  1.0000
  H   H29       1.0  0.5139100000000001  0.35193  0.56972  1.0000
  H   H30       1.0  0.53615  0.35468  0.44156  1.0000
  H   H31       1.0  0.013630000000000001  0.85205  0.56965  1.0000
  H   H32       1.0  0.03586  0.85479  0.44149000000000005  1.0000
  O   O1        1.0  0.7875400000000001  0.04269  0.17047  1.0000
  O   O2        1.0  0.21246  0.04269  0.82953  1.0000
  O   O3        1.0  0.28754  0.54269  0.17047  1.0000
  O   O4        1.0  0.71246  0.54269  0.82953  1.0000
  O   O5        1.0  0.5565400000000001  0.25292  0.32397  1.0000
  O   O6        1.0  0.44346  0.25292  0.6760300000000001  1.0000
  O   O7        1.0  0.05654000000000001  0.75292  0.32397  1.0000
  O   O8        1.0  0.9434600000000001  0.75292  0.6760300000000001  1.0000
  O   O9        1.0  0.54587  0.0511  0.33084  1.0000
  O   O10       1.0  0.45413  0.0511  0.66916  1.0000
  O   O11       1.0  0.04587000000000001  0.5511  0.33084  1.0000
  O   O12       1.0  0.95413  0.5511  0.66916  1.0000
  O   O13       1.0  0.68134  0.9593  0.32551  1.0000
  O   O14       1.0  0.31866  0.9593  0.67449  1.0000
  O   O15       1.0  0.18134  0.4593  0.32551  1.0000
  O   O16       1.0  0.81866  0.4593  0.67449  1.0000
  O   O17       1.0  0.66788  0.16787  0.25007  1.0000
  O   O18       1.0  0.33212  0.16787  0.74993  1.0000
  O   O19       1.0  0.16788  0.66787  0.25007  1.0000
  O   O20       1.0  0.8321200000000001  0.66787  0.74993  1.0000
  O   O21       1.0  0.76566  0.29216  0.17505  1.0000
  O   O22       1.0  0.23434  0.29216  0.82495  1.0000
  O   O23       1.0  0.26566  0.7921600000000001  0.17505  1.0000
  O   O24       1.0  0.73434  0.7921600000000001  0.82495  1.0000
  O   O25       1.0  0.67019  0.40897999999999995  0.16855  1.0000
  O   O26       1.0  0.32981000000000005  0.40897999999999995  0.83145  1.0000
  O   O27       1.0  0.17019  0.90898  0.16855  1.0000
  O   O28       1.0  0.82981  0.90898  0.83145  1.0000
  O   O29       1.0  0.55658  0.25145  0.17516  1.0000
  O   O30       1.0  0.44342  0.25145  0.82484  1.0000
  O   O31       1.0  0.056580000000000005  0.75145  0.17516  1.0000
  O   O32       1.0  0.94342  0.75145  0.82484  1.0000
  O   O33       1.0  0.54592  0.049510000000000005  0.17032  1.0000
  O   O34       1.0  0.45408  0.049510000000000005  0.82968  1.0000
  O   O35       1.0  0.04592  0.54951  0.17032  1.0000
  O   O36       1.0  0.9540800000000002  0.54951  0.82968  1.0000
  O   O37       1.0  0.68139  0.95784  0.17671  1.0000
  O   O38       1.0  0.31861  0.95784  0.82329  1.0000
  O   O39       1.0  0.18139  0.45784  0.17671  1.0000
  O   O40       1.0  0.8186100000000001  0.45784  0.82329  1.0000
  O   O41       1.0  0.7875  0.04428  0.33099  1.0000
  O   O42       1.0  0.21250000000000002  0.04428  0.66901  1.0000
  O   O43       1.0  0.28750000000000003  0.54428  0.33099  1.0000
  O   O44       1.0  0.7125  0.54428  0.66901  1.0000
  O   O45       1.0  0.7656100000000002  0.29363  0.32386  1.0000
  O   O46       1.0  0.23439  0.29363  0.67614  1.0000
  O   O47       1.0  0.26561  0.7936300000000001  0.32386  1.0000
  O   O48       1.0  0.73439  0.7936300000000001  0.67614  1.0000
  O   O49       1.0  0.67014  0.41057000000000005  0.32908  1.0000
  O   O50       1.0  0.32986  0.41057000000000005  0.6709200000000001  1.0000
  O   O51       1.0  0.17014000000000004  0.91057  0.32908  1.0000
  O   O52       1.0  0.82986  0.91057  0.6709200000000001  1.0000
  C   C105      1.0  0.4787600000000001  0.93589  0.07173000000000002  1.0000
  N   N1        1.0  0.4673900000000001  0.84553  0.10058  1.0000
  C   C106      1.0  0.52233  0.9359299999999999  0.92788  1.0000
  N   N2        1.0  0.53388  0.84556  0.89891  1.0000
  C   C107      1.0  0.97876  0.43589000000000006  0.07173000000000002  1.0000
  N   N3        1.0  0.9673900000000001  0.34553  0.10058  1.0000
  C   C108      1.0  0.02233  0.43593  0.92788  1.0000
  N   N4        1.0  0.03388000000000001  0.34556  0.89891  1.0000
  N   N5        1.0  0.87472  0.0017100000000000001  0.42789  1.0000
  H   H33       1.0  0.9143800000000001  0.94305  0.44536  1.0000
  H   H34       1.0  0.8902600000000002  0.09087  0.43771999999999994  1.0000
  N   N6        1.0  0.15552  0.1137  0.55414  1.0000
  H   H35       1.0  0.11095  0.0579  0.55267  1.0000
  H   H36       1.0  0.14298  0.19029999999999997  0.52481  1.0000
  N   N7        1.0  0.3748  0.50111  0.42774  1.0000
  H   H37       1.0  0.41440000000000005  0.4423000000000001  0.44518  1.0000
  H   H38       1.0  0.3904500000000001  0.59022  0.43758  1.0000
  N   N8        1.0  0.65551  0.61371  0.55415  1.0000
  H   H39       1.0  0.61098  0.55783  0.5527600000000001  1.0000
  H   H40       1.0  0.6429  0.69024  0.52477  1.0000
  N   N9        1.0  0.8671600000000002  0.0483  0.57502  1.0000
  H   H41       1.0  0.86866  0.13749  0.5566  1.0000
  H   H42       1.0  0.9152000000000002  0.00587  0.56337  1.0000
  N   N10       1.0  0.16333  0.09887  0.40359  1.0000
  H   H43       1.0  0.17704000000000006  0.19011  0.40693  1.0000
  H   H44       1.0  0.11135  0.08705  0.42101  1.0000
  N   N11       1.0  0.36739000000000005  0.54775  0.57488  1.0000
  H   H45       1.0  0.36896  0.63693  0.55646  1.0000
  H   H46       1.0  0.41538  0.50518  0.56318  1.0000
  N   N12       1.0  0.6633  0.59884  0.40359  1.0000
  H   H47       1.0  0.67698  0.69009  0.40691  1.0000
  H   H48       1.0  0.61132  0.58699  0.42103  1.0000
  N   N13       1.0  0.6262  0.86045  0.06649  1.0000
  H   H49       1.0  0.65072  0.8028700000000001  0.10248000000000002  1.0000
  H   H50       1.0  0.59655  0.80547  0.03261  1.0000
  N   N14       1.0  0.3751300000000001  0.8624700000000001  0.9340800000000001  1.0000
  H   H51       1.0  0.35159  0.8052800000000001  0.89739  1.0000
  H   H52       1.0  0.40465  0.8069  0.96787  1.0000
  N   N15       1.0  0.1262  0.36045  0.06649  1.0000
  H   H53       1.0  0.15072000000000002  0.30287  0.10248000000000002  1.0000
  H   H54       1.0  0.09655000000000001  0.30547  0.03261  1.0000
  N   N16       1.0  0.87513  0.36247  0.9340800000000001  1.0000
  H   H55       1.0  0.85159  0.30528  0.89739  1.0000
  H   H56       1.0  0.90465  0.3069  0.96787  1.0000
  C   C109      1.0  0.85371  0.07546  0.91892  1.0000
  N   N17       1.0  0.902  0.11158  0.88793  1.0000
  C   C110      1.0  0.14514  0.07445  0.08073  1.0000
  N   N18       1.0  0.09671  0.11097  0.11157  1.0000
  C   C111      1.0  0.35371  0.57546  0.91892  1.0000
  N   N19       1.0  0.402  0.61158  0.88793  1.0000
  C   C112      1.0  0.64514  0.57445  0.08073  1.0000
  N   N20       1.0  0.59671  0.61097  0.11157  1.0000
