data_image0
_chemical_formula_structural       O4C2O4C2O2V2C4H2C4H2C36H16O4C2O4C2O2V2CH3CH3CH3CH3CH3CH5
_chemical_formula_sum              "O20 C58 V4 H40"
_cell_length_a       22.06639
_cell_length_b       7.198010000000001
_cell_length_c       14.91866
_cell_angle_alpha    89.43047
_cell_angle_beta     107.05974
_cell_angle_gamma    89.80372

_symmetry_space_group_name_H-M    'P 1'
_symmetry_Int_Tables_number       1

loop_
  _symmetry_equiv_pos_as_xyz
  'x,y,z'

loop_
  _atom_site_type_symbol
  _atom_site_label
  _atom_site_symmetry_multiplicity
  _atom_site_fract_x
  _atom_site_fract_y
  _atom_site_fract_z
  _atom_site_occupancy
  O   O1        1.0  0.58477  0.50577  0.00209  1.0000
  O   O2        1.0  0.41523  0.00577  0.99791  1.0000
  O   O3        1.0  0.46706  0.17334  0.86195  1.0000
  O   O4        1.0  0.53294  0.67334  0.13805  1.0000
  C   C1        1.0  0.45500999999999997  0.3454  0.82599  1.0000
  C   C2        1.0  0.5451  0.8430899999999998  0.17413  1.0000
  O   O5        1.0  0.58751  0.17588999999999994  0.99321  1.0000
  O   O6        1.0  0.41248999999999997  0.67589  0.00679  1.0000
  O   O7        1.0  0.53654  0.00815  0.1301  1.0000
  O   O8        1.0  0.4634599999999999  0.50815  0.8699  1.0000
  C   C3        1.0  0.61342  0.34432  0.00177  1.0000
  C   C4        1.0  0.38659  0.84496  0.9984  1.0000
  O   O9        1.0  0.48313999999999996  0.34004  0.04476  1.0000
  O   O10       1.0  0.51686  0.8400399999999999  0.95524  1.0000
  V   V1        1.0  0.50313  0.06419  0.9917  1.0000
  V   V2        1.0  0.4968699999999999  0.56419  0.0083  1.0000
  C   C5        1.0  0.21783  0.72907  0.00932  1.0000
  C   C6        1.0  0.7827299999999999  0.23018  0.99211  1.0000
  C   C7        1.0  0.18237999999999996  0.88443  0.00946  1.0000
  C   C8        1.0  0.81762  0.38561999999999996  0.99065  1.0000
  H   H1        1.0  0.20625999999999997  0.017139999999999992  0.02256  1.0000
  H   H2        1.0  0.79323  0.51853  0.97621  1.0000
  C   C9        1.0  0.28777  0.74123  0.02641  1.0000
  C   C10       1.0  0.7127  0.24242  0.97413  1.0000
  C   C11       1.0  0.31712  0.8580999999999999  0.98133  1.0000
  C   C12       1.0  0.68291  0.35605  0.0194  1.0000
  H   H3        1.0  0.31636  0.6380899999999998  0.07435  1.0000
  H   H4        1.0  0.68455  0.14173  0.92578  1.0000
  C   C13       1.0  0.9276699999999999  0.89339  0.7235099999999999  1.0000
  C   C14       1.0  0.07232  0.3788  0.27609  1.0000
  C   C15       1.0  0.57407  0.8453  0.27564  1.0000
  C   C16       1.0  0.42602999999999996  0.3585  0.72471  1.0000
  C   C17       1.0  0.93618  0.9629999999999999  0.56942  1.0000
  C   C18       1.0  0.06285  0.2928599999999999  0.42777  1.0000
  C   C19       1.0  0.9640599999999999  0.9454399999999997  0.66559  1.0000
  C   C20       1.0  0.03515000000000001  0.32402  0.33238  1.0000
  C   C21       1.0  0.8630699999999998  0.85915  0.68529  1.0000
  C   C22       1.0  0.13744  0.40242  0.31503  1.0000
  C   C23       1.0  0.8326  0.88127  0.58778  1.0000
  C   C24       1.0  0.16761  0.3673399999999999  0.41161  1.0000
  C   C25       1.0  0.87051  0.9340799999999998  0.52914  1.0000
  C   C26       1.0  0.12895999999999996  0.31161  0.46867999999999993  1.0000
  C   C27       1.0  0.76576  0.8563799999999998  0.54765  1.0000
  C   C28       1.0  0.23474999999999996  0.3829899999999999  0.45229  1.0000
  C   C29       1.0  0.7375  0.88429  0.44918  1.0000
  C   C30       1.0  0.2625  0.34489  0.54997  1.0000
  C   C31       1.0  0.77692  0.9356  0.39382  1.0000
  C   C32       1.0  0.22247  0.28937  0.60369  1.0000
  C   C33       1.0  0.84217  0.96006  0.43196  1.0000
  C   C34       1.0  0.15695999999999996  0.27283  0.5648799999999999  1.0000
  C   C35       1.0  0.72608  0.80545  0.60301  1.0000
  C   C36       1.0  0.27524  0.4340999999999999  0.39818  1.0000
  C   C37       1.0  0.66141  0.78234  0.56404  1.0000
  C   C38       1.0  0.34019999999999995  0.44839  0.4377499999999999  1.0000
  C   C39       1.0  0.63324  0.80726  0.46832  1.0000
  C   C40       1.0  0.36785  0.41473  0.53294  1.0000
  C   C41       1.0  0.67051  0.85919  0.40912  1.0000
  C   C42       1.0  0.32969000000000004  0.3629  0.59085  1.0000
  C   C43       1.0  0.56787  0.7769999999999999  0.43121  1.0000
  C   C44       1.0  0.43366999999999994  0.43534  0.57084  1.0000
  C   C45       1.0  0.53866  0.79355  0.33529  1.0000
  C   C46       1.0  0.46248999999999996  0.40867  0.6663499999999999  1.0000
  C   C47       1.0  0.639  0.87988  0.31189  1.0000
  C   C48       1.0  0.36058  0.33476  0.68773  1.0000
  H   H5        1.0  0.48857  0.7639499999999999  0.30735000000000007  1.0000
  H   H6        1.0  0.5131  0.42923  0.69498  1.0000
  H   H7        1.0  0.63317  0.74249  0.60951  1.0000
  H   H8        1.0  0.36910999999999994  0.4881599999999999  0.39322  1.0000
  H   H9        1.0  0.96659  0.0033299999999999996  0.52755  1.0000
  H   H10       1.0  0.03188  0.25072  0.46845  1.0000
  H   H11       1.0  0.014069999999999997  0.97454  0.69513  1.0000
  H   H12       1.0  0.98466  0.30329  0.30216  1.0000
  H   H13       1.0  0.838  0.8224499999999998  0.73475  1.0000
  H   H14       1.0  0.16296  0.44335  0.26675  1.0000
  H   H15       1.0  0.75817  0.9592699999999997  0.31956  1.0000
  H   H16       1.0  0.24098  0.25503  0.67696  1.0000
  H   H17       1.0  0.74312  0.78109  0.6774200000000001  1.0000
  H   H18       1.0  0.2586799999999999  0.46423999999999993  0.32425  1.0000
  H   H19       1.0  0.53951  0.7364199999999999  0.47636  1.0000
  H   H20       1.0  0.46276  0.47519  0.52664  1.0000
  O   O11       1.0  0.03645  0.23306999999999994  0.13013  1.0000
  O   O12       1.0  0.96355  0.7330699999999998  0.86987  1.0000
  O   O13       1.0  0.91247  0.56057  0.00679  1.0000
  O   O14       1.0  0.08752999999999996  0.06057  0.99321  1.0000
  C   C49       1.0  0.8866499999999999  0.39157  0.00047  1.0000
  C   C50       1.0  0.11337000000000004  0.8910899999999998  0.99969  1.0000
  O   O15       1.0  0.032919999999999984  0.5629399999999999  0.13805  1.0000
  O   O16       1.0  0.96708  0.06293999999999997  0.86195  1.0000
  O   O17       1.0  0.08479  0.7304999999999998  0.00209  1.0000
  O   O18       1.0  0.9152099999999999  0.2305  0.99791  1.0000
  C   C51       1.0  0.0446  0.39314  0.17454  1.0000
  C   C52       1.0  0.9553099999999999  0.8955899999999998  0.82535  1.0000
  O   O19       1.0  0.016819999999999995  0.39617  0.95526  1.0000
  O   O20       1.0  0.98318  0.89617  0.04474  1.0000
  V   V3        1.0  0.99688  0.67209  0.0083  1.0000
  V   V4        1.0  0.0031200000000000117  0.17209  0.9917  1.0000
  C   C53       1.0  0.19051  0.5356  0.99822  1.0000
  H   H21       1.0  0.2272  0.4304299999999999  0.99689  1.0000
  H   H22       1.0  0.17233  0.4997  0.05814  1.0000
  H   H23       1.0  0.15218000000000004  0.52533  0.9309  1.0000
  C   C54       1.0  0.8108499999999998  0.03662  0.00624  1.0000
  H   H24       1.0  0.77458  0.93197  0.00924  1.0000
  H   H25       1.0  0.8291399999999999  0.9992899999999999  0.94688  1.0000
  H   H26       1.0  0.8492199999999999  0.02717  0.07372000000000001  1.0000
  C   C55       1.0  0.28099  0.9938699999999998  0.90626  1.0000
  H   H27       1.0  0.31006999999999996  0.03624  0.86014  1.0000
  H   H28       1.0  0.23726  0.9296799999999997  0.86051  1.0000
  H   H29       1.0  0.26907999999999993  0.12145999999999996  0.9387099999999999  1.0000
  C   C56       1.0  0.71872  0.48764  0.09487  1.0000
  H   H30       1.0  0.68911  0.53027  0.13997  1.0000
  H   H31       1.0  0.7619199999999999  0.41951  0.14148  1.0000
  H   H32       1.0  0.7315499999999999  0.61554  0.06282  1.0000
  C   C57       1.0  0.88044  0.016400000000000005  0.367  1.0000
  H   H33       1.0  0.90304  0.15298999999999996  0.38830999999999993  1.0000
  H   H34       1.0  0.91752  0.91006  0.36964  1.0000
  H   H35       1.0  0.85076  0.030070000000000003  0.29286  1.0000
  C   C58       1.0  0.11804000000000002  0.21087  0.62795  1.0000
  H   H36       1.0  0.08231000000000001  0.31916  0.62904  1.0000
  H   H37       1.0  0.09376999999999999  0.07856  0.60204  1.0000
  H   H38       1.0  0.14757  0.18651  0.70147  1.0000
  H   H39       1.0  0.6633700000000001  0.91566  0.26138  1.0000
  H   H40       1.0  0.33546  0.30016  0.73748  1.0000
