data_image0
_chemical_formula_structural       C40Cr6H20O26SO3HSO3HSO3HCO2HCO2HSO3HSO3HSO3HSO3HCO2HSO3HCO2H
_chemical_formula_sum              "C44 Cr6 H32 O58 S8"
_cell_length_a       11.28836
_cell_length_b       11.29909
_cell_length_c       18.843250000000005
_cell_angle_alpha    88.38211
_cell_angle_beta     87.4036
_cell_angle_gamma    59.3858

_symmetry_space_group_name_H-M    'P 1'
_symmetry_Int_Tables_number       1

loop_
  _symmetry_equiv_pos_as_xyz
  'x,y,z'

loop_
  _atom_site_type_symbol
  _atom_site_label
  _atom_site_symmetry_multiplicity
  _atom_site_fract_x
  _atom_site_fract_y
  _atom_site_fract_z
  _atom_site_occupancy
  C   C1        1.0  0.23774999999999996  0.64391  0.60896  1.0000
  C   C2        1.0  0.67868  0.56271  0.80389  1.0000
  C   C3        1.0  0.7061299999999999  0.6847000000000001  0.80838  1.0000
  C   C4        1.0  0.6643800000000001  0.6576  0.67356  1.0000
  C   C5        1.0  0.8095  0.64059  0.6771  1.0000
  C   C6        1.0  0.66552  0.54142  0.72473  1.0000
  C   C7        1.0  0.6312  0.23872  0.68428  1.0000
  C   C8        1.0  0.68318  0.19832000000000005  0.8387199999999999  1.0000
  C   C9        1.0  0.7854300000000001  0.17183000000000004  0.78909  1.0000
  C   C10       1.0  0.7586000000000002  0.1904  0.7108099999999999  1.0000
  C   C11       1.0  0.19494999999999996  0.65255  0.68486  1.0000
  C   C12       1.0  0.6482699999999999  0.61904  0.60225  1.0000
  C   C13       1.0  0.21211  0.66365  0.84461  1.0000
  C   C14       1.0  0.24828  0.55134  0.80729  1.0000
  C   C15       1.0  0.2742000000000003  0.54745  0.72924  1.0000
  C   C16       1.0  0.67586  0.68862  0.33572  1.0000
  C   C17       1.0  0.67493  0.68662  0.17491  1.0000
  C   C18       1.0  0.78485  0.63829  0.21725999999999998  1.0000
  C   C19       1.0  0.7840600000000001  0.61123  0.2932  1.0000
  C   C20       1.0  0.6006700000000001  0.28462  0.31046  1.0000
  C   C21       1.0  0.6430999999999999  0.14851  0.1736  1.0000
  C   C22       1.0  0.53461  0.26756  0.19224  1.0000
  C   C23       1.0  0.59841  0.27834  0.6094  1.0000
  C   C24       1.0  0.50393  0.28665  0.26782  1.0000
  C   C25       1.0  0.17020000000000002  0.67272  0.33281  1.0000
  C   C26       1.0  0.16103000000000006  0.65662  0.17801  1.0000
  C   C27       1.0  0.19951000000000002  0.73425  0.21062999999999998  1.0000
  C   C28       1.0  0.22092999999999996  0.727  0.2854  1.0000
  C   C29       1.0  0.70136  0.10981000000000002  0.90149  1.0000
  C   C30       1.0  0.7307500000000001  0.69406  0.8858499999999999  1.0000
  C   C31       1.0  0.12608  0.70369  0.9109  1.0000
  C   C32       1.0  0.67387  0.10452999999999998  0.10264  1.0000
  C   C33       1.0  0.70229  0.69545  0.09979999999999999  1.0000
  C   C34       1.0  0.22440999999999997  0.64987  0.40255  1.0000
  C   C35       1.0  0.09268000000000004  0.70808  0.11178  1.0000
  C   C36       1.0  0.6469599999999999  0.6278  0.39783999999999997  1.0000
  C   C37       1.0  0.58264  0.29378  0.38843  1.0000
  C   C38       1.0  0.56763  0.81885  0.77891  1.0000
  C   C39       1.0  0.5473499999999999  0.80901  0.69807  1.0000
  C   C40       1.0  0.8412800000000001  0.65077  0.75737  1.0000
  Cr  Cr1       1.0  0.39301  0.39805  0.50148  1.0000
  Cr  Cr2       1.0  0.39881999999999995  0.70798  0.50163  1.0000
  Cr  Cr3       1.0  0.7081400000000002  0.39394000000000007  0.49685  1.0000
  Cr  Cr4       1.0  0.93795  0.93845  0.00894  1.0000
  Cr  Cr5       1.0  0.6261799999999998  0.9370300000000001  0.99475  1.0000
  Cr  Cr6       1.0  0.9377899999999998  0.62576  0.00141  1.0000
  H   H1        1.0  0.75278  0.4400800000000001  0.7088899999999999  1.0000
  H   H2        1.0  0.86941  0.53027  0.66656  1.0000
  H   H3        1.0  0.57672  0.26115  0.82533  1.0000
  H   H4        1.0  0.5435999999999998  0.26072  0.71809  1.0000
  H   H5        1.0  0.26012  0.46018  0.83393  1.0000
  H   H6        1.0  0.34922  0.44981  0.7064399999999998  1.0000
  H   H7        1.0  0.23203  0.73926  0.8200299999999999  1.0000
  H   H8        1.0  0.49357000000000006  0.801  0.80877  1.0000
  H   H9        1.0  0.12369999999999995  0.75268  0.70673  1.0000
  H   H10       1.0  0.8869300000000001  0.60397  0.1938  1.0000
  H   H11       1.0  0.8712799999999998  0.5170800000000001  0.31253  1.0000
  H   H12       1.0  0.59566  0.78973  0.31875999999999993  1.0000
  H   H13       1.0  0.46433  0.3399  0.15377  1.0000
  H   H14       1.0  0.70214  0.07116  0.21322999999999998  1.0000
  H   H15       1.0  0.20694999999999997  0.8155  0.18260999999999997  1.0000
  H   H16       1.0  0.27998  0.77233  0.3019  1.0000
  H   H17       1.0  0.16166  0.56908  0.20371999999999998  1.0000
  H   H18       1.0  0.10953000000000003  0.62807  0.31816  1.0000
  H   H19       1.0  0.76528  0.46886  0.82603  1.0000
  H   H20       1.0  0.58518  0.51602  0.71692  1.0000
  O   O1        1.0  0.50711  0.25628  0.5803  1.0000
  O   O2        1.0  0.52464  0.69537  0.4251  1.0000
  O   O3        1.0  0.7358899999999998  0.50439  0.41597999999999996  1.0000
  O   O4        1.0  0.6905600000000002  0.27782  0.42235  1.0000
  O   O5        1.0  0.4999900000000001  0.49999  0.49998  1.0000
  O   O6        1.0  0.08918999999999996  0.8258700000000001  0.9323199999999999  1.0000
  O   O7        1.0  0.8190700000000001  0.05396  0.93144  1.0000
  O   O8        1.0  0.60707  0.07644  0.91646  1.0000
  O   O9        1.0  0.64711  0.80655  0.9176899999999999  1.0000
  O   O10       1.0  0.8370800000000002  0.59386  0.9153  1.0000
  O   O11       1.0  0.06476999999999997  0.63608  0.9325499999999999  1.0000
  O   O12       1.0  0.2808300000000001  0.5271900000000002  0.57794  1.0000
  O   O13       1.0  0.06825000000000002  0.8292  0.09294  1.0000
  O   O14       1.0  0.79965  0.05704  0.08033  1.0000
  O   O15       1.0  0.58613  0.07976  0.07708  1.0000
  O   O16       1.0  0.6277  0.80963  0.06658  1.0000
  O   O17       1.0  0.81614  0.59718  0.07592  1.0000
  O   O18       1.0  0.04535999999999998  0.63917  0.08144  1.0000
  O   O19       1.0  0.83398  0.83375  0.0017  1.0000
  O   O20       1.0  0.26136  0.73899  0.5842699999999998  1.0000
  O   O21       1.0  0.5325899999999999  0.69478  0.57437  1.0000
  O   O22       1.0  0.7444699999999999  0.50375  0.577  1.0000
  O   O23       1.0  0.69852  0.27723  0.57162  1.0000
  O   O24       1.0  0.4985300000000001  0.25692  0.41927999999999993  1.0000
  O   O25       1.0  0.27287999999999996  0.52778  0.42868  1.0000
  O   O26       1.0  0.25278  0.73963  0.42325  1.0000
  S   S1        1.0  0.47783999999999993  0.9971900000000001  0.80818  1.0000
  O   O27       1.0  0.3459  0.08387999999999998  0.77143  1.0000
  O   O28       1.0  0.43568  0.013660000000000002  0.88564  1.0000
  O   O29       1.0  0.57282  0.06463  0.78417  1.0000
  H   H21       1.0  0.6674900000000004  0.98838  0.7874499999999999  1.0000
  S   S2        1.0  0.9955900000000001  0.48400000000000004  0.77525  1.0000
  O   O30       1.0  0.10557999999999997  0.45834  0.7204099999999999  1.0000
  O   O31       1.0  0.05318000000000002  0.46301  0.84737  1.0000
  O   O32       1.0  0.9618500000000001  0.36076  0.76255  1.0000
  H   H22       1.0  0.9943200000000002  0.33176  0.71299  1.0000
  S   S3        1.0  0.96038  0.09259  0.81347  1.0000
  O   O33       1.0  0.9735600000000002  0.14048  0.88488  1.0000
  O   O34       1.0  0.016629999999999933  0.9422800000000001  0.81371  1.0000
  O   O35       1.0  0.06186  0.11437  0.7549  1.0000
  H   H23       1.0  0.12175000000000002  0.12991  0.78507  1.0000
  C   C41       1.0  0.88096  0.13301  0.66091  1.0000
  O   O36       1.0  0.94088  0.011340000000000003  0.64549  1.0000
  O   O37       1.0  0.92463  0.21912  0.63022  1.0000
  H   H24       1.0  0.002469999999999994  0.17084  0.5935199999999999  1.0000
  C   C42       1.0  0.5324599999999999  0.73598  0.2003  1.0000
  O   O38       1.0  0.50411  0.65762  0.23225  1.0000
  O   O39       1.0  0.43166000000000004  0.87308  0.18834  1.0000
  H   H25       1.0  0.34102  0.90048  0.21431000000000003  1.0000
  S   S4        1.0  0.37074  0.25183  0.29419  1.0000
  O   O40       1.0  0.43326  0.11438  0.33112  1.0000
  O   O41       1.0  0.26369  0.36003  0.34244  1.0000
  O   O42       1.0  0.29296  0.24511  0.22152999999999998  1.0000
  H   H26       1.0  0.22721000000000002  0.21666000000000002  0.23936  1.0000
  S   S5        1.0  0.7553  0.27658  0.27172  1.0000
  O   O43       1.0  0.72213  0.36306  0.20531  1.0000
  O   O44       1.0  0.82197  0.32397  0.32133  1.0000
  O   O45       1.0  0.87422  0.11282  0.25167  1.0000
  H   H27       1.0  0.94484  0.11883  0.22119  1.0000
  S   S6        1.0  0.3750000000000001  0.83683  0.69435  1.0000
  O   O46       1.0  0.39439  0.69872  0.68921  1.0000
  O   O47       1.0  0.2879900000000001  0.89632  0.76039  1.0000
  O   O48       1.0  0.29147  0.93586  0.62439  1.0000
  H   H28       1.0  0.19273999999999983  0.9765500000000001  0.63759  1.0000
  S   S7        1.0  0.54902  0.9421400000000001  0.63817  1.0000
  O   O49       1.0  0.55777  0.9044900000000001  0.56161  1.0000
  O   O50       1.0  0.41979  0.07969  0.64622  1.0000
  O   O51       1.0  0.68017  0.9658  0.65158  1.0000
  H   H29       1.0  0.6995  0.99676  0.60511  1.0000
  C   C43       1.0  0.87723  0.75839  0.77175  1.0000
  O   O52       1.0  0.8846700000000001  0.8319300000000001  0.72618  1.0000
  O   O53       1.0  0.8924099999999998  0.78093  0.84117  1.0000
  H   H30       1.0  0.8645400000000001  0.87832  0.84974  1.0000
  S   S8        1.0  0.89579  0.66808  0.59688  1.0000
  O   O54       1.0  0.9304900000000002  0.77893  0.60108  1.0000
  O   O55       1.0  0.02842000000000003  0.53544  0.58244  1.0000
  O   O56       1.0  0.8033100000000001  0.70208  0.5238  1.0000
  H   H31       1.0  0.86723  0.69165  0.4834  1.0000
  C   C44       1.0  0.55959  0.57245  0.8506499999999999  1.0000
  O   O57       1.0  0.5186199999999999  0.49373  0.84043  1.0000
  O   O58       1.0  0.50272  0.66298  0.90808  1.0000
  H   H32       1.0  0.42752999999999997  0.65507  0.9353500000000001  1.0000
