data_image0
_chemical_formula_structural       C44Cu2F2H22N4O12
_chemical_formula_sum              "C44 Cu2 F2 H22 N4 O12"
_cell_length_a       27.79957
_cell_length_b       8.67101
_cell_length_c       7.42426
_cell_angle_alpha    102.98779
_cell_angle_beta     94.28557
_cell_angle_gamma    92.47329

_symmetry_space_group_name_H-M    'P 1'
_symmetry_Int_Tables_number       1

loop_
  _symmetry_equiv_pos_as_xyz
  'x,y,z'

loop_
  _atom_site_type_symbol
  _atom_site_label
  _atom_site_symmetry_multiplicity
  _atom_site_fract_x
  _atom_site_fract_y
  _atom_site_fract_z
  _atom_site_occupancy
  C   C1        1.0  0.4985300000000001  0.19958  0.45314  1.0000
  C   C2        1.0  0.8687200000000003  0.3602699999999998  0.4124299999999999  1.0000
  C   C3        1.0  0.35405  0.49346999999999996  0.50799  1.0000
  C   C4        1.0  0.6459500000000001  0.50663  0.49203  1.0000
  C   C5        1.0  0.9711500000000002  0.35448  0.44529  1.0000
  C   C6        1.0  0.028849999999999994  0.6455899999999998  0.55498  1.0000
  C   C7        1.0  0.9776  0.64746  0.53411  1.0000
  C   C8        1.0  0.022400000000000007  0.3526  0.46612  1.0000
  C   C9        1.0  0.9490500000000001  0.50176  0.4809599999999999  1.0000
  C   C10       1.0  0.05095  0.49831  0.51928  1.0000
  C   C11       1.0  0.94097  0.21347999999999998  0.3879099999999999  1.0000
  C   C12       1.0  0.50147  0.80042  0.54686  1.0000
  C   C13       1.0  0.059039999999999995  0.78659  0.6124199999999997  1.0000
  C   C14       1.0  0.8909600000000002  0.21603  0.37201  1.0000
  C   C15       1.0  0.10903999999999997  0.78404  0.6283199999999998  1.0000
  C   C16       1.0  0.40728  0.4974799999999999  0.50172  1.0000
  C   C17       1.0  0.59272  0.50257  0.4982899999999999  1.0000
  C   C18       1.0  0.04638  0.20933999999999997  0.4365699999999999  1.0000
  C   C19       1.0  0.95362  0.7907299999999999  0.5635999999999999  1.0000
  C   C20       1.0  0.4978200000000001  0.031680000000000014  0.42666  1.0000
  C   C21       1.0  0.50218  0.9683199999999998  0.5733399999999997  1.0000
  C   C22       1.0  0.17525000000000002  0.35178  0.50941  1.0000
  C   C23       1.0  0.10227000000000003  0.49663  0.53614  1.0000
  C   C24       1.0  0.8247600000000002  0.6482899999999998  0.4906999999999999  1.0000
  C   C25       1.0  0.18193  0.63433  0.59439  1.0000
  C   C26       1.0  0.8180800000000003  0.36574  0.4059  1.0000
  C   C27       1.0  0.2859  0.53752  0.6978699999999999  1.0000
  C   C28       1.0  0.7141000000000001  0.46204  0.30227  1.0000
  C   C29       1.0  0.33550000000000013  0.53939  0.6824099999999997  1.0000
  C   C30       1.0  0.6645000000000001  0.46015999999999996  0.3177  1.0000
  C   C31       1.0  0.3211500000000001  0.44351  0.34636  1.0000
  C   C32       1.0  0.6788400000000002  0.55724  0.65361  1.0000
  C   C33       1.0  0.27138  0.44295  0.36523  1.0000
  C   C34       1.0  0.8977400000000002  0.50344  0.4640899999999999  1.0000
  C   C35       1.0  0.72861  0.55775  0.6348  1.0000
  C   C36       1.0  0.25378  0.48965999999999993  0.53933  1.0000
  C   C37       1.0  0.7462200000000002  0.51043  0.46078  1.0000
  C   C38       1.0  0.33722000000000013  0.38877  0.15375  1.0000
  C   C39       1.0  0.66274  0.6128399999999999  0.84608  1.0000
  C   C40       1.0  0.12469  0.35152  0.4997999999999999  1.0000
  C   C41       1.0  0.8753100000000003  0.6485599999999999  0.50036  1.0000
  C   C42       1.0  0.09638000000000002  0.20926999999999998  0.4521  1.0000
  C   C43       1.0  0.9036200000000001  0.7907999999999998  0.5480299999999999  1.0000
  C   C44       1.0  0.13129  0.6398  0.5878499999999998  1.0000
  Cu  Cu1       1.0  0.5053800000000002  0.5173799999999998  0.6843799999999998  1.0000
  Cu  Cu2       1.0  0.49462  0.48261999999999994  0.31562  1.0000
  F   F1        1.0  0.86466  0.07533  0.31625  1.0000
  F   F2        1.0  0.13534000000000002  0.92474  0.68411  1.0000
  H   H1        1.0  0.46204  0.37827999999999995  0.9482399999999997  1.0000
  H   H2        1.0  0.2724  0.57389  0.8331299999999998  1.0000
  H   H3        1.0  0.9546200000000002  0.09734999999999998  0.35271999999999987  1.0000
  H   H4        1.0  0.04537999999999999  0.9027099999999998  0.6476499999999998  1.0000
  H   H5        1.0  0.027840000000000007  0.09374999999999996  0.4009899999999999  1.0000
  H   H6        1.0  0.9721700000000001  0.90632  0.5991399999999999  1.0000
  H   H7        1.0  0.4937200000000001  0.95991  0.28535  1.0000
  H   H8        1.0  0.50628  0.040089999999999945  0.7146499999999998  1.0000
  H   H9        1.0  0.3061400000000001  0.34736  0.04825999999999998  1.0000
  H   H10       1.0  0.35677  0.4882699999999999  0.11316999999999999  1.0000
  H   H11       1.0  0.36076000000000014  0.28793  0.14901  1.0000
  H   H12       1.0  0.5379600000000001  0.62172  0.05176  1.0000
  H   H13       1.0  0.6938000000000002  0.65495  0.9514399999999997  1.0000
  H   H14       1.0  0.63913  0.7134  0.85002  1.0000
  H   H15       1.0  0.6432700000000002  0.5136  0.8874599999999998  1.0000
  H   H16       1.0  0.24575000000000002  0.40698  0.24390999999999993  1.0000
  H   H17       1.0  0.7542300000000002  0.59417  0.7561  1.0000
  H   H18       1.0  0.11280000000000003  0.09618999999999997  0.4248999999999999  1.0000
  H   H19       1.0  0.88721  0.90388  0.5751899999999998  1.0000
  H   H20       1.0  0.6405700000000002  0.42084  0.19214999999999993  1.0000
  H   H21       1.0  0.35944  0.57827  0.8079899999999998  1.0000
  H   H22       1.0  0.72761  0.42525  0.16708  1.0000
  N   N1        1.0  0.20262000000000005  0.49187  0.55256  1.0000
  N   N2        1.0  0.79738  0.50821  0.4476199999999999  1.0000
  N   N3        1.0  0.48651000000000005  0.45643  0.03851  1.0000
  N   N4        1.0  0.51349  0.54357  0.96149  1.0000
  O   O1        1.0  0.5035  0.28612  0.61978  1.0000
  O   O2        1.0  0.80304  0.7869099999999999  0.52575  1.0000
  O   O3        1.0  0.7896700000000002  0.23019  0.36275  1.0000
  O   O4        1.0  0.21034000000000005  0.76987  0.63766  1.0000
  O   O5        1.0  0.4965  0.71388  0.38022  1.0000
  O   O6        1.0  0.49441000000000007  0.25678  0.3083599999999999  1.0000
  O   O7        1.0  0.50559  0.74322  0.69164  1.0000
  O   O8        1.0  0.4348100000000001  0.5147  0.65569  1.0000
  O   O9        1.0  0.56519  0.4853  0.34431  1.0000
  O   O10       1.0  0.42572000000000004  0.48535  0.34428  1.0000
  O   O11       1.0  0.57428  0.5146499999999999  0.65572  1.0000
  O   O12       1.0  0.19697  0.21316999999999994  0.47421999999999986  1.0000
