data_image0
_chemical_formula_structural       O4C2O4C2O2V2C20H2C2H2C2H4C6H2C6H6O4C2O4C2O2V2CH3CH3CH3CH3CH3CH3NO2NO2CH3CH3CH3CH3CH3CH3NO2NO2NO2NO2NO2NO2
_chemical_formula_sum              "O36 C56 V4 H52 N8"
_cell_length_a       16.83985
_cell_length_b       7.0068
_cell_length_c       17.14674
_cell_angle_alpha    90.00007
_cell_angle_beta     100.88905000000001
_cell_angle_gamma    89.99992

_space_group_name_H-M_alt    "P 1"
_space_group_IT_number       1

loop_
  _space_group_symop_operation_xyz
  'x, y, z'

loop_
  _atom_site_type_symbol
  _atom_site_label
  _atom_site_symmetry_multiplicity
  _atom_site_fract_x
  _atom_site_fract_y
  _atom_site_fract_z
  _atom_site_occupancy
  O   O1        1.0  0.5795099999999999  0.50629  0.43903  1.0000
  O   O2        1.0  0.42049  0.006290000000000001  0.56097  1.0000
  O   O3        1.0  0.41254  0.17009000000000005  0.40529  1.0000
  O   O4        1.0  0.5874599999999998  0.67009  0.59471  1.0000
  C   C1        1.0  0.38382999999999984  0.3459800000000001  0.38316  1.0000
  C   C2        1.0  0.61616  0.84598  0.61685  1.0000
  O   O5        1.0  0.57839  0.17623  0.42933  1.0000
  O   O6        1.0  0.4216099999999999  0.6762300000000002  0.57067  1.0000
  O   O7        1.0  0.58753  0.011250000000000001  0.58519  1.0000
  O   O8        1.0  0.41247  0.51125  0.41480999999999996  1.0000
  C   C3        1.0  0.60226  0.3460400000000001  0.41095  1.0000
  C   C4        1.0  0.3977399999999999  0.8460500000000001  0.58905  1.0000
  O   O9        1.0  0.5027999999999998  0.34094  0.55111  1.0000
  O   O10       1.0  0.49720000000000003  0.8409400000000002  0.44889  1.0000
  V   V1        1.0  0.4994799999999999  0.06402  0.49052  1.0000
  V   V2        1.0  0.50052  0.56402  0.50948  1.0000
  C   C5        1.0  0.16967  0.90072  0.86423  1.0000
  C   C6        1.0  0.83032  0.40073000000000003  0.13576  1.0000
  C   C7        1.0  0.33374  0.86165  0.63882  1.0000
  C   C8        1.0  0.6662599999999997  0.36166  0.36118  1.0000
  C   C9        1.0  0.2151  0.029930000000000005  0.6647  1.0000
  C   C10       1.0  0.78489  0.5299600000000001  0.33529  1.0000
  C   C11       1.0  0.26748  0.9845200000000002  0.6134999999999999  1.0000
  C   C12       1.0  0.73251  0.4845400000000001  0.38649  1.0000
  C   C13       1.0  0.34278  0.77634  0.71519  1.0000
  C   C14       1.0  0.6572200000000001  0.27632  0.28481  1.0000
  C   C15       1.0  0.28315  0.8078200000000002  0.76405  1.0000
  C   C16       1.0  0.71685  0.30782  0.23595  1.0000
  C   C17       1.0  0.22091000000000002  0.9442000000000003  0.73968  1.0000
  C   C18       1.0  0.77908  0.4442200000000001  0.26031  1.0000
  C   C19       1.0  0.16296  0.9873400000000002  0.78832  1.0000
  C   C20       1.0  0.83703  0.4873600000000001  0.21168  1.0000
  C   C21       1.0  0.23374999999999999  0.76986  0.88943  1.0000
  C   C22       1.0  0.76624  0.26986  0.11057  1.0000
  C   C23       1.0  0.28352  0.7073600000000001  0.83631  1.0000
  C   C24       1.0  0.71648  0.20735000000000003  0.16369  1.0000
  H   H1        1.0  0.16768999999999995  0.13103  0.64321  1.0000
  H   H2        1.0  0.83229  0.63107  0.35678  1.0000
  C   C25       1.0  0.8266299999999998  0.72708  0.75587  1.0000
  C   C26       1.0  0.17337  0.22707000000000005  0.24413  1.0000
  H   H3        1.0  0.83268  0.5992800000000003  0.79471  1.0000
  H   H4        1.0  0.16733  0.09928  0.20528999999999994  1.0000
  C   C27       1.0  0.7483599999999999  0.69662  0.69089  1.0000
  C   C28       1.0  0.25164  0.19662000000000002  0.30910999999999994  1.0000
  H   H5        1.0  0.71742  0.56349  0.70419  1.0000
  H   H6        1.0  0.28258  0.06349  0.29581  1.0000
  H   H7        1.0  0.76313  0.67473  0.63205  1.0000
  H   H8        1.0  0.23687  0.17472  0.36795  1.0000
  C   C29       1.0  0.80486  0.09274000000000003  0.75294  1.0000
  C   C30       1.0  0.19513  0.5927300000000002  0.24707000000000004  1.0000
  C   C31       1.0  0.7343200000000001  0.885  0.83868  1.0000
  C   C32       1.0  0.26568  0.3850500000000001  0.16133  1.0000
  C   C33       1.0  0.81637  0.9087700000000002  0.80779  1.0000
  C   C34       1.0  0.18363  0.40877  0.19221  1.0000
  H   H9        1.0  0.72835  0.01418  0.87494  1.0000
  H   H10       1.0  0.27165  0.51428  0.12509  1.0000
  C   C35       1.0  0.6889499999999998  0.8682800000000003  0.6862599999999999  1.0000
  C   C36       1.0  0.31105  0.36828  0.31374  1.0000
  C   C37       1.0  0.73896  0.05502  0.67609  1.0000
  C   C38       1.0  0.26104  0.5550200000000001  0.32391  1.0000
  C   C39       1.0  0.65974  0.8762800000000002  0.76782  1.0000
  C   C40       1.0  0.34026  0.3762900000000001  0.23219  1.0000
  H   H11       1.0  0.6246899999999999  0.74343  0.77242  1.0000
  H   H12       1.0  0.37529  0.24342  0.22758  1.0000
  H   H13       1.0  0.77957  0.20560000000000006  0.78703  1.0000
  H   H14       1.0  0.22041  0.70561  0.21298  1.0000
  H   H15       1.0  0.6976099999999998  0.18013000000000007  0.66966  1.0000
  H   H16       1.0  0.30238  0.6801200000000002  0.33034  1.0000
  O   O11       1.0  0.0875  0.266  0.08522  1.0000
  O   O12       1.0  0.9124999999999999  0.766  0.91478  1.0000
  O   O13       1.0  0.9215999999999998  0.5899500000000002  0.07067  1.0000
  O   O14       1.0  0.07839999999999997  0.08995  0.92933  1.0000
  C   C41       1.0  0.89482  0.42055  0.08618  1.0000
  C   C42       1.0  0.10516999999999997  0.9205500000000002  0.9138199999999999  1.0000
  O   O15       1.0  0.08746  0.59602  0.09471  1.0000
  O   O16       1.0  0.91254  0.09602000000000001  0.90529  1.0000
  O   O17       1.0  0.07951999999999997  0.7609700000000003  0.93902  1.0000
  O   O18       1.0  0.92048  0.26097000000000004  0.06098  1.0000
  C   C43       1.0  0.11434  0.42609000000000014  0.11959  1.0000
  C   C44       1.0  0.88566  0.9260900000000001  0.88041  1.0000
  O   O19       1.0  0.99718  0.42514  0.94891  1.0000
  O   O20       1.0  0.00282  0.92514  0.05109  1.0000
  V   V3        1.0  0.00052  0.7020800000000003  0.00948  1.0000
  V   V4        1.0  0.9994799999999999  0.20208000000000007  0.99052  1.0000
  C   C45       1.0  0.09338000000000002  0.12069000000000003  0.7566  1.0000
  H   H17       1.0  0.04808  0.13291  0.79443  1.0000
  H   H18       1.0  0.11685999999999998  0.26633  0.74908  1.0000
  H   H19       1.0  0.059989999999999974  0.06659  0.69878  1.0000
  C   C46       1.0  0.9066  0.62074  0.24338999999999997  1.0000
  H   H20       1.0  0.9519100000000001  0.6329500000000002  0.20556  1.0000
  H   H21       1.0  0.88311  0.7663800000000002  0.25089  1.0000
  H   H22       1.0  0.9399899999999999  0.56667  0.30122  1.0000
  C   C47       1.0  0.8823099999999999  0.18744  0.73486  1.0000
  H   H23       1.0  0.91777  0.08844  0.70485  1.0000
  H   H24       1.0  0.8658199999999998  0.31365  0.6963  1.0000
  H   H25       1.0  0.92093  0.24765000000000004  0.78824  1.0000
  C   C48       1.0  0.11768  0.6873900000000002  0.26515  1.0000
  H   H26       1.0  0.08222  0.58837  0.29516  1.0000
  H   H27       1.0  0.13414999999999994  0.81361  0.30371  1.0000
  H   H28       1.0  0.07904  0.7475900000000002  0.21177  1.0000
  C   C49       1.0  0.7725999999999998  0.05143000000000001  0.59777  1.0000
  H   H29       1.0  0.72495  0.01636  0.54583  1.0000
  H   H30       1.0  0.7970199999999998  0.19175000000000006  0.58537  1.0000
  H   H31       1.0  0.82257  0.9486800000000002  0.60056  1.0000
  C   C50       1.0  0.22740000000000002  0.5514200000000001  0.40224  1.0000
  H   H32       1.0  0.27505  0.51636  0.45418  1.0000
  H   H33       1.0  0.20298  0.69174  0.41463  1.0000
  H   H34       1.0  0.17743  0.44867  0.39945  1.0000
  N   N1        1.0  0.73478  0.7187900000000003  0.89151  1.0000
  O   O21       1.0  0.72276  0.54677  0.86305  1.0000
  O   O22       1.0  0.7375299999999999  0.74489  0.9670699999999999  1.0000
  N   N2        1.0  0.26525  0.21890000000000007  0.10847  1.0000
  O   O23       1.0  0.27715999999999996  0.04683  0.13691  1.0000
  O   O24       1.0  0.26275  0.24508000000000005  0.03296  1.0000
  C   C51       1.0  0.60014  0.04081  0.77376  1.0000
  H   H35       1.0  0.62871  0.18257  0.7709  1.0000
  H   H36       1.0  0.54574  0.030650000000000007  0.72603  1.0000
  H   H37       1.0  0.57952  0.03209  0.83148  1.0000
  C   C52       1.0  0.3998699999999999  0.5408  0.22626  1.0000
  H   H38       1.0  0.37132  0.68256  0.22913  1.0000
  H   H39       1.0  0.45428  0.5306000000000001  0.27397999999999995  1.0000
  H   H40       1.0  0.42049  0.53209  0.16854  1.0000
  C   C53       1.0  0.24900000000000003  0.6944800000000002  0.9737700000000001  1.0000
  H   H41       1.0  0.23676999999999995  0.8062100000000001  0.01577  1.0000
  H   H42       1.0  0.20939  0.5699  0.97765  1.0000
  H   H43       1.0  0.31312  0.65202  0.99387  1.0000
  C   C54       1.0  0.751  0.19448000000000004  0.02622  1.0000
  H   H44       1.0  0.7632199999999999  0.30622  0.9842199999999999  1.0000
  H   H45       1.0  0.79062  0.06992  0.02234  1.0000
  H   H46       1.0  0.6868799999999999  0.152  0.00613  1.0000
  C   C55       1.0  0.32556  0.51565  0.85203  1.0000
  H   H47       1.0  0.32754  0.43926  0.79579  1.0000
  H   H48       1.0  0.38723  0.53373  0.88777  1.0000
  H   H49       1.0  0.29108999999999996  0.41860000000000014  0.88455  1.0000
  C   C56       1.0  0.67444  0.01564  0.14797  1.0000
  H   H50       1.0  0.67248  0.9392400000000002  0.20421  1.0000
  H   H51       1.0  0.61277  0.03372000000000001  0.11224  1.0000
  H   H52       1.0  0.7089099999999999  0.9186000000000002  0.11543  1.0000
  N   N3        1.0  0.25198  0.06487  0.53501  1.0000
  O   O25       1.0  0.26969  0.9686500000000001  0.47590000000000005  1.0000
  O   O26       1.0  0.21021  0.22124000000000002  0.52041  1.0000
  N   N4        1.0  0.74802  0.5648900000000001  0.46498  1.0000
  O   O27       1.0  0.73032  0.4686700000000001  0.5240999999999999  1.0000
  O   O28       1.0  0.78978  0.72129  0.47956999999999994  1.0000
  N   N5        1.0  0.41807999999999995  0.68471  0.74752  1.0000
  O   O29       1.0  0.43938  0.52788  0.71643  1.0000
  O   O30       1.0  0.46451999999999993  0.75563  0.8100599999999999  1.0000
  N   N6        1.0  0.58193  0.18466000000000005  0.2524799999999999  1.0000
  O   O31       1.0  0.56065  0.02781000000000001  0.28358  1.0000
  O   O32       1.0  0.53547  0.25557  0.18995  1.0000
  N   N7        1.0  0.90165  0.7317200000000001  0.72297  1.0000
  O   O33       1.0  0.9032299999999998  0.6653600000000001  0.65238  1.0000
  O   O34       1.0  0.97069  0.7549300000000002  0.77081  1.0000
  N   N8        1.0  0.09834  0.23169  0.27702  1.0000
  O   O35       1.0  0.09677  0.16543  0.34763  1.0000
  O   O36       1.0  0.02931  0.25481  0.22917  1.0000
