data_image0
_chemical_formula_structural       O8C4O8C4O4V4C4H4C44H20CHOCHOCHOCHO
_chemical_formula_sum              "O24 C60 V4 H28"
_cell_length_a       21.78188
_cell_length_b       7.226510000000001
_cell_length_c       14.87909
_cell_angle_alpha    90.43233
_cell_angle_beta     106.52779
_cell_angle_gamma    90.11786

_symmetry_space_group_name_H-M    'P 1'
_symmetry_Int_Tables_number       1

loop_
  _symmetry_equiv_pos_as_xyz
  'x,y,z'

loop_
  _atom_site_type_symbol
  _atom_site_label
  _atom_site_symmetry_multiplicity
  _atom_site_fract_x
  _atom_site_fract_y
  _atom_site_fract_z
  _atom_site_occupancy
  O   O1        1.0  0.33586  0.6381900000000001  0.0021100000000000003  1.0000
  O   O2        1.0  0.6641400000000001  0.36181000000000013  0.9978900000000003  1.0000
  O   O3        1.0  0.16414000000000004  0.13819  0.9978900000000003  1.0000
  O   O4        1.0  0.8358599999999999  0.86181  0.0021100000000000003  1.0000
  O   O5        1.0  0.21753  0.3059200000000001  0.86196  1.0000
  O   O6        1.0  0.7824699999999999  0.6940800000000003  0.13804  1.0000
  O   O7        1.0  0.28247  0.8059200000000002  0.13804  1.0000
  O   O8        1.0  0.71753  0.19408000000000006  0.86196  1.0000
  C   C1        1.0  0.20560000000000006  0.4757600000000001  0.8259800000000003  1.0000
  C   C2        1.0  0.7944  0.52424  0.17403000000000005  1.0000
  C   C3        1.0  0.29433  0.97751  0.17390000000000005  1.0000
  C   C4        1.0  0.70567  0.02249  0.8261  1.0000
  O   O9        1.0  0.33869  0.3083200000000002  0.9932400000000001  1.0000
  O   O10       1.0  0.66131  0.69168  0.00676  1.0000
  O   O11       1.0  0.16131  0.80832  0.00676  1.0000
  O   O12       1.0  0.83869  0.19168  0.9932400000000001  1.0000
  O   O13       1.0  0.2861699999999999  0.14043  0.1301  1.0000
  O   O14       1.0  0.71383  0.8595700000000002  0.8699  1.0000
  O   O15       1.0  0.21382999999999996  0.6404300000000003  0.8699  1.0000
  O   O16       1.0  0.7861700000000001  0.35957  0.1301  1.0000
  C   C5        1.0  0.36451000000000006  0.47879000000000005  0.9960100000000002  1.0000
  C   C6        1.0  0.63549  0.5212100000000001  0.00399  1.0000
  C   C7        1.0  0.13549  0.9786100000000001  0.00395  1.0000
  C   C8        1.0  0.86451  0.02139  0.99605  1.0000
  O   O17       1.0  0.23263  0.4724100000000001  0.04475  1.0000
  O   O18       1.0  0.7673699999999999  0.52759  0.9552500000000002  1.0000
  O   O19       1.0  0.26737000000000005  0.9724100000000001  0.9552500000000002  1.0000
  O   O20       1.0  0.73263  0.027590000000000007  0.04475  1.0000
  V   V1        1.0  0.25322  0.19662  0.9917  1.0000
  V   V2        1.0  0.74678  0.8033800000000002  0.008300000000000002  1.0000
  V   V3        1.0  0.24678  0.6966200000000002  0.008300000000000002  1.0000
  V   V4        1.0  0.75322  0.30338000000000004  0.9917  1.0000
  C   C9        1.0  0.03323  0.8341600000000001  0.014520000000000003  1.0000
  C   C10       1.0  0.96677  0.16584000000000004  0.9854800000000001  1.0000
  C   C11       1.0  0.46639000000000014  0.33403  0.9847500000000002  1.0000
  C   C12       1.0  0.53361  0.66597  0.01525  1.0000
  H   H1        1.0  0.05821  0.705  0.02583  1.0000
  H   H2        1.0  0.9417899999999999  0.295  0.97417  1.0000
  H   H3        1.0  0.4410899999999999  0.20473000000000002  0.9728700000000001  1.0000
  H   H4        1.0  0.55891  0.7952700000000003  0.02713  1.0000
  C   C13       1.0  0.96762  0.8359800000000002  0.0071600000000000006  1.0000
  C   C14       1.0  0.03238000000000003  0.16402  0.99284  1.0000
  C   C15       1.0  0.5320200000000002  0.33569  0.9922400000000002  1.0000
  C   C16       1.0  0.46798  0.6643100000000001  0.00776  1.0000
  C   C17       1.0  0.93323  0.005690000000000001  0.99477  1.0000
  C   C18       1.0  0.06677  0.9943100000000002  0.005240000000000002  1.0000
  C   C19       1.0  0.56678  0.5055  0.00531  1.0000
  C   C20       1.0  0.43322000000000005  0.4945000000000001  0.9946900000000002  1.0000
  C   C21       1.0  0.67734  0.010730000000000003  0.7247700000000001  1.0000
  C   C22       1.0  0.32266  0.98927  0.27523  1.0000
  C   C23       1.0  0.82256  0.5212100000000001  0.27564  1.0000
  C   C24       1.0  0.17744000000000004  0.47879000000000005  0.7243600000000002  1.0000
  C   C25       1.0  0.68793  0.95462  0.56997  1.0000
  C   C26       1.0  0.31207  0.04537  0.43003  1.0000
  C   C27       1.0  0.81369  0.5824  0.43104  1.0000
  C   C28       1.0  0.18631  0.4176200000000001  0.56896  1.0000
  C   C29       1.0  0.7157600000000001  0.9751500000000001  0.6660300000000002  1.0000
  C   C30       1.0  0.28424  0.02485  0.33397  1.0000
  C   C31       1.0  0.78542  0.56773  0.33485  1.0000
  C   C32       1.0  0.21458  0.43228  0.66515  1.0000
  C   C33       1.0  0.61096  0.025430000000000008  0.68771  1.0000
  C   C34       1.0  0.38904  0.9745700000000004  0.3122900000000001  1.0000
  C   C35       1.0  0.88827  0.49020000000000014  0.31257  1.0000
  C   C36       1.0  0.11173000000000002  0.50979  0.6874300000000002  1.0000
  C   C37       1.0  0.5811600000000001  0.0030599999999999994  0.59036  1.0000
  C   C38       1.0  0.41884  0.99694  0.40964  1.0000
  C   C39       1.0  0.91874  0.5092000000000001  0.40999000000000013  1.0000
  C   C40       1.0  0.08126  0.49080000000000007  0.59001  1.0000
  C   C41       1.0  0.62124  0.9674  0.5318300000000001  1.0000
  C   C42       1.0  0.37875999999999993  0.032589999999999994  0.46818  1.0000
  C   C43       1.0  0.87982  0.55536  0.46888  1.0000
  C   C44       1.0  0.12018000000000001  0.44465  0.5311200000000001  1.0000
  C   C45       1.0  0.5132600000000002  0.013020000000000002  0.5495100000000002  1.0000
  C   C46       1.0  0.48674  0.98698  0.45049  1.0000
  C   C47       1.0  0.9863400000000001  0.48762  0.4505000000000001  1.0000
  C   C48       1.0  0.013660000000000002  0.51239  0.5495  1.0000
  C   C49       1.0  0.529  0.95229  0.39568  1.0000
  C   C50       1.0  0.471  0.04771  0.60432  1.0000
  C   C51       1.0  0.97246  0.55691  0.60466  1.0000
  C   C52       1.0  0.027540000000000012  0.4431  0.3953400000000001  1.0000
  C   C53       1.0  0.59469  0.94307  0.43572  1.0000
  C   C54       1.0  0.40531  0.05692  0.56429  1.0000
  C   C55       1.0  0.90708  0.5773900000000002  0.565  1.0000
  C   C56       1.0  0.09292  0.4226200000000001  0.43500000000000005  1.0000
  H   H5        1.0  0.62509  0.9156800000000003  0.39074000000000003  1.0000
  H   H6        1.0  0.37491  0.08432  0.60926  1.0000
  H   H7        1.0  0.8775299999999999  0.6126  0.61022  1.0000
  H   H8        1.0  0.12247000000000001  0.38742  0.3897800000000001  1.0000
  H   H9        1.0  0.41569  0.94869  0.26266  1.0000
  H   H10       1.0  0.58431  0.05132  0.7373400000000002  1.0000
  H   H11       1.0  0.08586000000000003  0.54211  0.73733  1.0000
  H   H12       1.0  0.9141400000000001  0.45787000000000005  0.26267  1.0000
  H   H13       1.0  0.23283  0.037890000000000014  0.30532000000000004  1.0000
  H   H14       1.0  0.76717  0.9621  0.6946800000000002  1.0000
  H   H15       1.0  0.26532  0.4055100000000001  0.69361  1.0000
  H   H16       1.0  0.73468  0.5945100000000001  0.30639  1.0000
  H   H17       1.0  0.71856  0.9268000000000002  0.5254100000000002  1.0000
  H   H18       1.0  0.28144  0.07319  0.47459  1.0000
  H   H19       1.0  0.78399  0.6187400000000002  0.4758300000000001  1.0000
  H   H20       1.0  0.21600999999999998  0.38129  0.52417  1.0000
  H   H21       1.0  0.51309  0.9309100000000002  0.3210000000000001  1.0000
  H   H22       1.0  0.48691  0.06909000000000003  0.6790000000000002  1.0000
  H   H23       1.0  0.9890300000000002  0.57797  0.67934  1.0000
  H   H24       1.0  0.010979999999999998  0.4220500000000001  0.32066  1.0000
  C   C57       1.0  0.93739  0.6545500000000002  0.00805  1.0000
  H   H25       1.0  0.95485  0.56405  0.06769000000000001  1.0000
  O   O21       1.0  0.8952199999999999  0.60125  0.9395400000000003  1.0000
  C   C58       1.0  0.06261000000000005  0.34545000000000003  0.9919600000000002  1.0000
  H   H26       1.0  0.04515000000000001  0.43595  0.93231  1.0000
  O   O22       1.0  0.10478000000000001  0.39875  0.060460000000000014  1.0000
  C   C59       1.0  0.56188  0.15413  0.9909800000000002  1.0000
  H   H27       1.0  0.5438  0.06125000000000001  0.9316300000000001  1.0000
  O   O23       1.0  0.60437  0.10328000000000002  0.059040000000000016  1.0000
  C   C60       1.0  0.43812  0.84586  0.009020000000000004  1.0000
  H   H28       1.0  0.45620999999999995  0.93875  0.06837  1.0000
  O   O24       1.0  0.39563  0.8967200000000002  0.94096  1.0000
