data_image0
_chemical_formula_structural       O4C2O4C2O2V2C20H8C2H4C26H6O4C2O4C2O2V2OCH3OCH3OCH3OCH3OHOHOHOHOHOH
_chemical_formula_sum              "O30 C60 V4 H36"
_cell_length_a       20.87163
_cell_length_b       7.09554
_cell_length_c       16.40317
_cell_angle_alpha    90.00996
_cell_angle_beta     92.82728
_cell_angle_gamma    89.99317000000002

_space_group_name_H-M_alt    "P 1"
_space_group_IT_number       1

loop_
  _space_group_symop_operation_xyz
  'x, y, z'

loop_
  _atom_site_type_symbol
  _atom_site_label
  _atom_site_symmetry_multiplicity
  _atom_site_fract_x
  _atom_site_fract_y
  _atom_site_fract_z
  _atom_site_occupancy
  O   O1        1.0  0.56484  0.50529  0.57983  1.0000
  O   O2        1.0  0.43515999999999994  0.00529  0.42017  1.0000
  O   O3        1.0  0.55672  0.17993  0.40935  1.0000
  O   O4        1.0  0.44328  0.6799299999999998  0.59065  1.0000
  C   C1        1.0  0.57041  0.34507  0.38131  1.0000
  C   C2        1.0  0.4296  0.8451099999999998  0.61871  1.0000
  O   O5        1.0  0.57228  0.17581  0.57853  1.0000
  O   O6        1.0  0.42772000000000004  0.67581  0.42147  1.0000
  O   O7        1.0  0.45082999999999995  0.00192  0.59054  1.0000
  O   O8        1.0  0.54917  0.50192  0.40946  1.0000
  C   C3        1.0  0.59008  0.34294  0.60504  1.0000
  C   C4        1.0  0.40992  0.8429299999999997  0.39497  1.0000
  O   O9        1.0  0.46013  0.33803  0.50375  1.0000
  O   O10       1.0  0.53987  0.83803  0.49625  1.0000
  V   V1        1.0  0.5074  0.06456  0.4993099999999999  1.0000
  V   V2        1.0  0.4926  0.5645599999999997  0.50069  1.0000
  C   C5        1.0  0.14275  0.92711  0.16988  1.0000
  C   C6        1.0  0.8572499999999998  0.4271099999999999  0.83011  1.0000
  C   C7        1.0  0.35546  0.8411099999999999  0.33283  1.0000
  C   C8        1.0  0.64453  0.34111  0.66717  1.0000
  C   C9        1.0  0.29308  0.6677999999999998  0.22753  1.0000
  C   C10       1.0  0.70695  0.16774999999999995  0.77241  1.0000
  C   C11       1.0  0.34709  0.68415  0.28081  1.0000
  C   C12       1.0  0.65293  0.18409999999999996  0.71915  1.0000
  C   C13       1.0  0.30865  0.98333  0.32963  1.0000
  C   C14       1.0  0.69133  0.48337  0.67042  1.0000
  C   C15       1.0  0.2529  0.9661899999999998  0.27723  1.0000
  C   C16       1.0  0.74707  0.46623  0.72281  1.0000
  C   C17       1.0  0.24534  0.8066699999999998  0.22564  1.0000
  C   C18       1.0  0.75467  0.3066499999999999  0.77434  1.0000
  C   C19       1.0  0.19093  0.78928  0.17192  1.0000
  C   C20       1.0  0.80909  0.28925  0.82805  1.0000
  C   C21       1.0  0.14808  0.08079999999999997  0.22507  1.0000
  C   C22       1.0  0.85188  0.58088  0.77498  1.0000
  C   C23       1.0  0.20482  0.10547  0.27577  1.0000
  C   C24       1.0  0.7951299999999999  0.60556  0.72431  1.0000
  H   H1        1.0  0.18683  0.6707499999999998  0.13024  1.0000
  H   H2        1.0  0.81322  0.17067  0.86968  1.0000
  H   H3        1.0  0.28828  0.54487  0.18848  1.0000
  H   H4        1.0  0.71178  0.04477  0.81143  1.0000
  H   H5        1.0  0.38241  0.5721499999999998  0.28177  1.0000
  H   H6        1.0  0.61764  0.07207  0.71815  1.0000
  H   H7        1.0  0.31462  0.10294  0.37036  1.0000
  H   H8        1.0  0.68533  0.60302  0.62973  1.0000
  C   C25       1.0  0.38604  0.9198699999999997  0.83543  1.0000
  C   C26       1.0  0.61395  0.4180999999999999  0.16448  1.0000
  H   H9        1.0  0.47314  0.8897699999999997  0.77282  1.0000
  H   H10       1.0  0.52687  0.38799  0.2271  1.0000
  H   H11       1.0  0.3052  0.9620099999999998  0.95732  1.0000
  H   H12       1.0  0.69478  0.45963  0.04254  1.0000
  C   C27       1.0  0.39054  0.8568899999999999  0.69081  1.0000
  C   C28       1.0  0.60948  0.35667  0.30921  1.0000
  C   C29       1.0  0.08046  0.86716  0.7365  1.0000
  C   C30       1.0  0.9195699999999999  0.36881999999999987  0.26361  1.0000
  C   C31       1.0  0.11447  0.84023  0.6659  1.0000
  C   C32       1.0  0.88558  0.34276999999999996  0.33424  1.0000
  C   C33       1.0  0.18133  0.84173  0.67185  1.0000
  C   C34       1.0  0.81872  0.3435099999999999  0.3283  1.0000
  C   C35       1.0  0.21621999999999997  0.8815399999999999  0.74613  1.0000
  C   C36       1.0  0.78379  0.38197999999999993  0.25392  1.0000
  C   C37       1.0  0.1808  0.918  0.81731  1.0000
  C   C38       1.0  0.81919  0.41781  0.18266  1.0000
  C   C39       1.0  0.28525  0.8842999999999998  0.7515  1.0000
  C   C40       1.0  0.71476  0.38417999999999997  0.24851000000000004  1.0000
  C   C41       1.0  0.31778  0.9168599999999998  0.82858  1.0000
  C   C42       1.0  0.68222  0.4156499999999999  0.17136  1.0000
  C   C43       1.0  0.28197  0.9461  0.89734  1.0000
  C   C44       1.0  0.71802  0.44443  0.10255  1.0000
  C   C45       1.0  0.2152  0.96115  0.89166  1.0000
  C   C46       1.0  0.78476  0.4600199999999999  0.10824  1.0000
  C   C47       1.0  0.32335  0.85628  0.68281  1.0000
  C   C48       1.0  0.67667  0.35663  0.31723  1.0000
  C   C49       1.0  0.42118  0.8857399999999999  0.767  1.0000
  C   C50       1.0  0.57883  0.3844499999999999  0.23295  1.0000
  C   C51       1.0  0.11219  0.9065299999999997  0.81159  1.0000
  C   C52       1.0  0.88781  0.40684  0.18841  1.0000
  H   H13       1.0  0.30277  0.8381  0.62185  1.0000
  H   H14       1.0  0.69725  0.33914  0.37824  1.0000
  H   H15       1.0  0.02874  0.85333  0.73365  1.0000
  H   H16       1.0  0.9713099999999999  0.35545  0.26657  1.0000
  H   H17       1.0  0.20444  0.8098599999999998  0.61631  1.0000
  H   H18       1.0  0.79565  0.31231999999999993  0.38394  1.0000
  O   O11       1.0  0.95079  0.25667  0.09051999999999999  1.0000
  O   O12       1.0  0.04921  0.75667  0.90948  1.0000
  O   O13       1.0  0.9277199999999999  0.59037  0.92147  1.0000
  O   O14       1.0  0.07228  0.09037  0.07853  1.0000
  C   C53       1.0  0.91078  0.4231699999999999  0.89385  1.0000
  C   C54       1.0  0.08922  0.92317  0.10615  1.0000
  O   O15       1.0  0.94327  0.5861799999999999  0.09064  1.0000
  O   O16       1.0  0.056729999999999996  0.08618  0.90936  1.0000
  O   O17       1.0  0.06485  0.75997  0.07984  1.0000
  O   O18       1.0  0.93515  0.25997  0.92016  1.0000
  C   C55       1.0  0.92888  0.4173999999999999  0.11748  1.0000
  C   C56       1.0  0.07112  0.9173499999999998  0.88252  1.0000
  O   O19       1.0  0.03985  0.42805  0.9962400000000001  1.0000
  O   O20       1.0  0.96015  0.92805  0.00376  1.0000
  V   V3        1.0  0.99261  0.70154  0.0007  1.0000
  V   V4        1.0  0.007389999999999992  0.20153999999999994  0.9992999999999999  1.0000
  O   O21       1.0  0.08465  0.7930399999999999  0.59101  1.0000
  C   C57       1.0  0.03163  0.9114399999999998  0.5718  1.0000
  H   H19       1.0  0.04150999999999999  0.061679999999999985  0.5878399999999999  1.0000
  H   H20       1.0  0.98833  0.85998  0.60162  1.0000
  H   H21       1.0  0.02092  0.9055399999999998  0.50492  1.0000
  O   O22       1.0  0.9155599999999999  0.2971699999999999  0.40918  1.0000
  C   C58       1.0  0.96727  0.42016  0.42874  1.0000
  H   H22       1.0  0.9557199999999999  0.5696799999999999  0.41319  1.0000
  H   H23       1.0  0.011109999999999998  0.3735899999999999  0.39872  1.0000
  H   H24       1.0  0.9780799999999998  0.41396  0.49560000000000004  1.0000
  O   O23       1.0  0.18413  0.01466  0.96056  1.0000
  C   C59       1.0  0.19582000000000002  0.20859  0.97487  1.0000
  H   H25       1.0  0.17828  0.29555999999999993  0.92183  1.0000
  H   H26       1.0  0.24743  0.23755  0.9897600000000001  1.0000
  H   H27       1.0  0.16959  0.25432  0.02846  1.0000
  O   O24       1.0  0.81579  0.51336  0.03929  1.0000
  C   C60       1.0  0.8039599999999999  0.70717  0.02485  1.0000
  H   H28       1.0  0.8215599999999998  0.79446  0.07778  1.0000
  H   H29       1.0  0.75231  0.7358699999999998  0.01011  1.0000
  H   H30       1.0  0.83005  0.75273  0.9711299999999999  1.0000
  O   O25       1.0  0.0966  0.20242  0.22926  1.0000
  H   H31       1.0  0.09648  0.25658  0.2849  1.0000
  O   O26       1.0  0.90334  0.7025599999999999  0.77084  1.0000
  H   H32       1.0  0.9033799999999998  0.7570899999999998  0.71527  1.0000
  O   O27       1.0  0.21488  0.26512  0.32299  1.0000
  H   H33       1.0  0.19163  0.37204  0.29635  1.0000
  O   O28       1.0  0.78503  0.76527  0.6771599999999999  1.0000
  H   H34       1.0  0.8081899999999999  0.8722299999999997  0.70391  1.0000
  O   O29       1.0  0.42044999999999993  0.9589  0.90737  1.0000
  H   H35       1.0  0.39892  0.06389  0.93483  1.0000
  O   O30       1.0  0.57952  0.45605999999999997  0.09244  1.0000
  H   H36       1.0  0.60094  0.5609  0.06477  1.0000
