data_image0
_chemical_formula_structural       C72Cr6H36O26
_chemical_formula_sum              "C72 Cr6 H36 O26"
_cell_length_a       11.08892
_cell_length_b       11.17756
_cell_length_c       18.890880000000003
_cell_angle_alpha    89.30424
_cell_angle_beta     90.07313
_cell_angle_gamma    120.62077

_space_group_name_H-M_alt    "P 1"
_space_group_IT_number       1

loop_
  _space_group_symop_operation_xyz
  'x, y, z'

loop_
  _atom_site_type_symbol
  _atom_site_label
  _atom_site_symmetry_multiplicity
  _atom_site_fract_x
  _atom_site_fract_y
  _atom_site_fract_z
  _atom_site_occupancy
  C   C1        1.0  0.51895  0.45624999999999993  0.14663  1.0000
  C   C2        1.0  0.93135  0.3892  0.5458  1.0000
  C   C3        1.0  0.43801000000000007  0.0387  0.54092  1.0000
  C   C4        1.0  0.61339  0.55421  0.54556  1.0000
  C   C5        1.0  0.7096600000000002  0.93379  0.55076  1.0000
  C   C6        1.0  0.049849999999999985  0.76448  0.5516  1.0000
  C   C7        1.0  0.22080000000000002  0.37038  0.54449  1.0000
  C   C8        1.0  0.1222000000000001  0.74557  0.41347  1.0000
  C   C9        1.0  0.6227900000000001  0.86897  0.41153  1.0000
  C   C10       1.0  0.26375000000000004  0.23824  0.43642  1.0000
  C   C11       1.0  0.7718  0.88123  0.50669  1.0000
  C   C12       1.0  0.5435600000000002  0.06297  0.14684999999999998  1.0000
  C   C13       1.0  0.10175999999999996  0.8788199999999999  0.50623  1.0000
  C   C14       1.0  0.10833  0.25041  0.51754  1.0000
  C   C15       1.0  0.13859  0.8692899999999999  0.4372  1.0000
  C   C16       1.0  0.7245000000000001  0.84331  0.43798  1.0000
  C   C17       1.0  0.12955000000000003  0.18596  0.46212  1.0000
  C   C18       1.0  0.54517  0.4173299999999999  0.36117  1.0000
  C   C19       1.0  0.54162  0.060099999999999994  0.35305  1.0000
  C   C20       1.0  0.93478  0.47868  0.3545  1.0000
  C   C21       1.0  0.4497800000000001  0.52409  0.64288  1.0000
  C   C22       1.0  0.05971000000000001  0.54512  0.64662  1.0000
  C   C23       1.0  0.9391200000000002  0.48309  0.14762  1.0000
  C   C24       1.0  0.48326  0.93508  0.645  1.0000
  C   C25       1.0  0.50715  0.99362  0.9250599999999999  1.0000
  C   C26       1.0  0.011449999999999978  0.51345  0.92707  1.0000
  C   C27       1.0  0.4894700000000001  0.49129  0.9243999999999999  1.0000
  C   C28       1.0  0.9996900000000002  0.51126  0.07598  1.0000
  C   C29       1.0  0.51221  0.00868  0.07415  1.0000
  C   C30       1.0  0.4968  0.48608999999999997  0.07328  1.0000
  C   C31       1.0  0.40603  0.009619999999999993  0.9612800000000001  1.0000
  C   C32       1.0  0.004359999999999964  0.40222999999999987  0.9663  1.0000
  C   C33       1.0  0.60677  0.59306  0.9605099999999999  1.0000
  C   C34       1.0  0.4569500000000001  0.51763  0.85253  1.0000
  C   C35       1.0  0.018239999999999996  0.41224  0.04077  1.0000
  C   C36       1.0  0.39826000000000006  0.9981099999999999  0.03609  1.0000
  C   C37       1.0  0.601  0.60071  0.03501  1.0000
  C   C38       1.0  0.61921  0.00418  0.03678  1.0000
  C   C39       1.0  0.9982400000000002  0.61737  0.03638  1.0000
  C   C40       1.0  0.38648  0.37757  0.03604  1.0000
  C   C41       1.0  0.006710000000000006  0.61984  0.96354  1.0000
  C   C42       1.0  0.61526  0.9939799999999999  0.9639200000000001  1.0000
  C   C43       1.0  0.38101  0.38198  0.96325  1.0000
  C   C44       1.0  0.31121  0.03544  0.92508  1.0000
  C   C45       1.0  0.06342999999999999  0.54378  0.8534900000000001  1.0000
  C   C46       1.0  0.9803700000000002  0.27966  0.93431  1.0000
  C   C47       1.0  0.72813  0.6902799999999999  0.9242899999999998  1.0000
  C   C48       1.0  0.04451999999999998  0.31904  0.07812  1.0000
  C   C49       1.0  0.2762100000000001  0.97583  0.07002  1.0000
  C   C50       1.0  0.69821  0.72394  0.06818  1.0000
  C   C51       1.0  0.19782000000000005  0.02543  0.96058  1.0000
  C   C52       1.0  0.9879100000000001  0.17922  0.97436  1.0000
  C   C53       1.0  0.8282300000000001  0.8065899999999999  0.95881  1.0000
  C   C54       1.0  0.028150000000000005  0.20265  0.04507  1.0000
  C   C55       1.0  0.17585999999999993  0.9868299999999999  0.03188  1.0000
  C   C56       1.0  0.4819700000000001  0.93754  0.85287  1.0000
  C   C57       1.0  0.80807  0.82776  0.02935  1.0000
  C   C58       1.0  0.51263  0.98315  0.5713  1.0000
  C   C59       1.0  0.9996700000000001  0.52117  0.57467  1.0000
  C   C60       1.0  0.4767  0.50202  0.57005  1.0000
  C   C61       1.0  0.9852100000000003  0.49248  0.42718  1.0000
  C   C62       1.0  0.50296  0.001700000000000002  0.42421999999999993  1.0000
  C   C63       1.0  0.52171  0.43073999999999996  0.43601999999999996  1.0000
  C   C64       1.0  0.59638  0.949  0.5269  1.0000
  C   C65       1.0  0.03620999999999996  0.6377299999999999  0.52897  1.0000
  C   C66       1.0  0.36062  0.4121399999999999  0.52697  1.0000
  C   C67       1.0  0.44396  0.05800999999999999  0.46853  1.0000
  C   C68       1.0  0.05420000000000002  0.62523  0.45655000000000007  1.0000
  C   C69       1.0  0.5686800000000001  0.93434  0.45399  1.0000
  C   C70       1.0  0.38309  0.35821  0.46589  1.0000
  C   C71       1.0  0.9199900000000001  0.37452  0.47232  1.0000
  C   C72       1.0  0.63559  0.52373  0.47738  1.0000
  Cr  Cr1       1.0  0.7685500000000001  0.54132  0.25066  1.0000
  Cr  Cr2       1.0  0.45868000000000003  0.22722999999999996  0.25066  1.0000
  Cr  Cr3       1.0  0.7727700000000001  0.23145  0.25066  1.0000
  Cr  Cr4       1.0  0.54132  0.76855  0.7493399999999999  1.0000
  Cr  Cr5       1.0  0.22723000000000002  0.4586799999999999  0.7493399999999999  1.0000
  Cr  Cr6       1.0  0.23145000000000002  0.7727699999999998  0.7493399999999999  1.0000
  H   H1        1.0  0.7089600000000001  0.011709999999999996  0.06364  1.0000
  H   H2        1.0  0.07550999999999998  0.33427  0.13316  1.0000
  H   H3        1.0  0.25542999999999993  0.9461299999999999  0.12534  1.0000
  H   H4        1.0  0.68695  0.74341  0.12304  1.0000
  H   H5        1.0  0.12874  0.047139999999999994  0.9311899999999999  1.0000
  H   H6        1.0  0.9618100000000003  0.08433  0.94958  1.0000
  H   H7        1.0  0.9177  0.8796799999999999  0.92874  1.0000
  H   H8        1.0  0.04384  0.1312  0.07626  1.0000
  H   H9        1.0  0.08342999999999998  0.96649  0.05916  1.0000
  H   H10       1.0  0.87537  0.92327  0.05508  1.0000
  H   H11       1.0  0.40569  0.12061999999999999  0.44713  1.0000
  H   H12       1.0  0.9854200000000002  0.69683  0.061369999999999994  1.0000
  H   H13       1.0  0.8581800000000003  0.27101  0.45095999999999997  1.0000
  H   H14       1.0  0.74166  0.57261  0.45684  1.0000
  H   H15       1.0  0.8868400000000002  0.29853999999999997  0.58033  1.0000
  H   H16       1.0  0.3802900000000001  0.07225  0.57326  1.0000
  H   H17       1.0  0.7022800000000001  0.62032  0.57852  1.0000
  H   H18       1.0  0.7592600000000002  0.9700499999999999  0.6014  1.0000
  H   H19       1.0  0.012089999999999969  0.7755  0.60233  1.0000
  H   H20       1.0  0.19900000000000004  0.43016000000000004  0.57941  1.0000
  H   H21       1.0  0.15177000000000004  0.7415  0.3593  1.0000
  H   H22       1.0  0.59198  0.84458  0.35674  1.0000
  H   H23       1.0  0.30452000000000007  0.28659  0.06302  1.0000
  H   H24       1.0  0.26783  0.17571999999999996  0.39522  1.0000
  H   H25       1.0  0.85596  0.8686599999999999  0.52646  1.0000
  H   H26       1.0  0.11384000000000004  0.9744299999999999  0.52567  1.0000
  H   H27       1.0  0.004520000000000012  0.20561  0.5393  1.0000
  H   H28       1.0  0.17724999999999996  0.95566  0.40084  1.0000
  H   H29       1.0  0.7709700000000002  0.79983  0.40424  1.0000
  H   H30       1.0  0.04221999999999999  0.09425999999999998  0.4393  1.0000
  H   H31       1.0  0.012229999999999974  0.70787  0.9359799999999999  1.0000
  H   H32       1.0  0.69615  0.98289  0.93827  1.0000
  H   H33       1.0  0.2884900000000001  0.30132999999999993  0.93761  1.0000
  H   H34       1.0  0.3249  0.06539  0.86967  1.0000
  H   H35       1.0  0.9491300000000003  0.25735  0.87955  1.0000
  H   H36       1.0  0.74591  0.67768  0.8692600000000001  1.0000
  O   O1        1.0  0.9109600000000002  0.57241  0.17101  1.0000
  O   O2        1.0  0.5285300000000002  0.63975  0.8244  1.0000
  O   O3        1.0  0.11122  0.47147  0.8244  1.0000
  O   O4        1.0  0.36025  0.88878  0.8244  1.0000
  O   O5        1.0  0.9093300000000001  0.5723999999999999  0.33153999999999995  1.0000
  O   O6        1.0  0.4276  0.33693  0.33153999999999995  1.0000
  O   O7        1.0  0.66307  0.09067  0.33153999999999995  1.0000
  O   O8        1.0  0.5724000000000001  0.9093299999999999  0.66846  1.0000
  O   O9        1.0  0.3369300000000001  0.4276  0.66846  1.0000
  O   O10       1.0  0.09067  0.66307  0.66846  1.0000
  O   O11       1.0  0.63824  0.52852  0.32441  1.0000
  O   O12       1.0  0.42759000000000014  0.33854999999999996  0.17101  1.0000
  O   O13       1.0  0.4714800000000001  0.10972  0.32441  1.0000
  O   O14       1.0  0.8902800000000001  0.36176  0.32441  1.0000
  O   O15       1.0  0.52852  0.63824  0.67559  1.0000
  O   O16       1.0  0.10971999999999997  0.47147999999999995  0.67559  1.0000
  O   O17       1.0  0.36176  0.89028  0.67559  1.0000
  O   O18       1.0  0.66667  0.33333  0.25063  1.0000
  O   O19       1.0  0.33333  0.66667  0.74937  1.0000
  O   O20       1.0  0.66145  0.08904  0.17101  1.0000
  O   O21       1.0  0.5724100000000001  0.9109599999999999  0.8289899999999999  1.0000
  O   O22       1.0  0.3385500000000001  0.42759  0.8289899999999999  1.0000
  O   O23       1.0  0.08904000000000005  0.66145  0.8289899999999999  1.0000
  O   O24       1.0  0.63975  0.52853  0.1756  1.0000
  O   O25       1.0  0.47147  0.11122  0.1756  1.0000
  O   O26       1.0  0.8887800000000002  0.36025  0.1756  1.0000
