data_image0
_chemical_formula_structural       C43Cr6H19NO28
_chemical_formula_sum              "C43 Cr6 H19 N1 O28"
_cell_length_a       10.64065
_cell_length_b       10.73557
_cell_length_c       17.06259
_cell_angle_alpha    80.52814
_cell_angle_beta     99.34449
_cell_angle_gamma    118.76874

_space_group_name_H-M_alt    "P 1"
_space_group_IT_number       1

loop_
  _space_group_symop_operation_xyz
  'x, y, z'

loop_
  _atom_site_type_symbol
  _atom_site_label
  _atom_site_symmetry_multiplicity
  _atom_site_fract_x
  _atom_site_fract_y
  _atom_site_fract_z
  _atom_site_occupancy
  C   C1        1.0  0.38438999999999995  0.28389  0.6320199999999998  1.0000
  C   C2        1.0  0.33348  0.18585  0.78141  1.0000
  C   C3        1.0  0.33762  0.66261  0.27737  1.0000
  C   C4        1.0  0.36952  0.65444  0.5863  1.0000
  C   C5        1.0  0.3252  0.67193  0.20666  1.0000
  C   C6        1.0  0.81302  0.6570000000000003  0.15390999999999994  1.0000
  C   C7        1.0  0.8158800000000003  0.5441500000000001  0.20763999999999994  1.0000
  C   C8        1.0  0.80798  0.53936  0.28675  1.0000
  C   C9        1.0  0.77187  0.74758  0.26278  1.0000
  C   C10       1.0  0.7744800000000001  0.7515100000000002  0.1803  1.0000
  C   C11       1.0  0.9232599999999999  0.487  0.22549999999999995  1.0000
  C   C12       1.0  0.39426999999999984  0.82903  0.6748499999999997  1.0000
  C   C13       1.0  0.9098599999999999  0.47919  0.31302  1.0000
  C   C14       1.0  0.7998199999999996  0.6471  0.31674  1.0000
  C   C15       1.0  0.33985  0.18346  0.15555  1.0000
  C   C16       1.0  0.7770700000000001  0.6189000000000002  0.6268299999999999  1.0000
  C   C17       1.0  0.26324  0.24405  0.1791  1.0000
  C   C18       1.0  0.26819  0.25715  0.25793  1.0000
  C   C19       1.0  0.44800999999999996  0.17788000000000007  0.29218  1.0000
  C   C20       1.0  0.44603999999999994  0.16564  0.21165  1.0000
  C   C21       1.0  0.10828000000000003  0.21299000000000004  0.16443  1.0000
  C   C22       1.0  0.11564  0.22934  0.25178  1.0000
  C   C23       1.0  0.3776199999999999  0.85101  0.75038  1.0000
  C   C24       1.0  0.3471600000000001  0.20872  0.3161999999999999  1.0000
  C   C25       1.0  0.8921500000000002  0.7021700000000002  0.8557799999999998  1.0000
  C   C26       1.0  0.28198  0.7505600000000001  0.88277  1.0000
  C   C27       1.0  0.28658000000000006  0.11826000000000003  0.85828  1.0000
  C   C28       1.0  0.35428  0.23313  0.39726  1.0000
  C   C29       1.0  0.8832499999999999  0.68927  0.08213  1.0000
  C   C30       1.0  0.31371  0.70015  0.1236  1.0000
  C   C31       1.0  0.28812  0.11096  0.08384  1.0000
  C   C32       1.0  0.36586  0.6535400000000002  0.36047  1.0000
  C   C33       1.0  0.76819  0.62077  0.3983199999999999  1.0000
  C   C34       1.0  0.1298  0.45864  0.79378  1.0000
  C   C35       1.0  0.28091999999999995  0.73677  0.7987699999999998  1.0000
  C   C36       1.0  0.18179  0.6123600000000002  0.7632399999999998  1.0000
  C   C37       1.0  0.19891999999999999  0.5900600000000001  0.6889299999999998  1.0000
  C   C38       1.0  0.7366900000000001  0.8532600000000001  0.12486  1.0000
  C   C39       1.0  0.14898999999999996  0.4344399999999999  0.7123  1.0000
  C   C40       1.0  0.31514000000000003  0.6920400000000001  0.64748  1.0000
  C   C41       1.0  0.82348  0.65682  0.70596  1.0000
  C   C42       1.0  0.8513099999999999  0.68488  0.77363  1.0000
  C   C43       1.0  0.36458999999999997  0.23256000000000002  0.7142499999999999  1.0000
  Cr  Cr1       1.0  0.60844  0.38908  0.51968  1.0000
  Cr  Cr2       1.0  0.28864000000000006  0.40009000000000017  0.49076  1.0000
  Cr  Cr3       1.0  0.60294  0.7108  0.48951  1.0000
  Cr  Cr4       1.0  0.052529999999999986  0.94756  0.9642099999999999  1.0000
  Cr  Cr5       1.0  0.05997000000000002  0.6268000000000002  0.9929199999999999  1.0000
  Cr  Cr6       1.0  0.37332000000000004  0.9384400000000003  0.99537  1.0000
  H   H1        1.0  0.47953999999999997  0.91485  0.6422  1.0000
  H   H2        1.0  0.44825  0.95328  0.77323  1.0000
  H   H3        1.0  0.015240000000000057  0.40556  0.80663  1.0000
  H   H4        1.0  0.20490000000000008  0.44137  0.84238  1.0000
  H   H5        1.0  0.2356100000000001  0.4043300000000001  0.71404  1.0000
  H   H6        1.0  0.04565999999999998  0.36696  0.67827  1.0000
  H   H7        1.0  0.74535  0.8205000000000003  0.2846  1.0000
  H   H8        1.0  0.032180000000000035  0.5669600000000001  0.20894  1.0000
  H   H9        1.0  0.52191  0.023120000000000005  0.22115  1.0000
  H   H10       1.0  0.6471  0.1956  0.20717  1.0000
  H   H11       1.0  0.71579  0.03311000000000001  0.11  1.0000
  H   H12       1.0  0.88212  0.38083000000000006  0.20388  1.0000
  H   H13       1.0  0.8555299999999999  0.36789  0.34171  1.0000
  H   H14       1.0  0.010699999999999987  0.55312  0.34647  1.0000
  H   H15       1.0  0.52377  0.15723  0.33578  1.0000
  H   H16       1.0  0.03293  0.10213  0.15012  1.0000
  H   H17       1.0  0.09363999999999997  0.29812  0.12364999999999998  1.0000
  H   H18       1.0  0.10740999999999999  0.32497  0.26144  1.0000
  H   H19       1.0  0.04600999999999999  0.12838000000000002  0.2867599999999999  1.0000
  N   N1        1.0  0.54186  0.1218  0.18931  1.0000
  O   O1        1.0  0.7540200000000002  0.49759000000000014  0.60993  1.0000
  O   O2        1.0  0.4061799999999999  0.8269300000000002  0.9206599999999998  1.0000
  O   O3        1.0  0.35862  0.06287  0.90195  1.0000
  O   O4        1.0  0.48142  0.27139  0.60063  1.0000
  O   O5        1.0  0.16390999999999994  0.08546  0.05021  1.0000
  O   O6        1.0  0.9352000000000001  0.8151700000000001  0.04577  1.0000
  O   O7        1.0  0.9161199999999999  0.5966900000000002  0.06943  1.0000
  O   O8        1.0  0.19231000000000006  0.6312000000000001  0.08616999999999998  1.0000
  O   O9        1.0  0.40677  0.81948  0.09642  1.0000
  O   O10       1.0  0.35917  0.05596000000000001  0.06488  1.0000
  O   O11       1.0  0.1619400000000001  0.8376  0.98416  1.0000
  O   O12       1.0  0.29508  0.53362  0.39789  1.0000
  O   O13       1.0  0.26381  0.25455000000000005  0.5895899999999997  1.0000
  O   O14       1.0  0.30082  0.5312  0.56089  1.0000
  O   O15       1.0  0.4914800000000001  0.7440200000000002  0.56427  1.0000
  O   O16       1.0  0.7262900000000001  0.6938000000000001  0.58301  1.0000
  O   O17       1.0  0.74783  0.5001900000000001  0.4340899999999999  1.0000
  O   O18       1.0  0.47567999999999994  0.2738  0.43763  1.0000
  O   O19       1.0  0.25762  0.25716  0.4137499999999999  1.0000
  O   O20       1.0  0.6933800000000001  0.8307600000000003  0.05512  1.0000
  O   O21       1.0  0.7447499999999999  0.97221  0.15323  1.0000
  O   O22       1.0  0.48528000000000004  0.7466200000000001  0.38844  1.0000
  O   O23       1.0  0.7205499999999999  0.69622  0.42000999999999994  1.0000
  O   O24       1.0  0.5000100000000001  0.49999000000000005  0.49998  1.0000
  O   O25       1.0  0.16331999999999994  0.09290000000000001  0.87445  1.0000
  O   O26       1.0  0.9346500000000001  0.8220800000000004  0.88284  1.0000
  O   O27       1.0  0.91552  0.60414  0.89367  1.0000
  O   O28       1.0  0.19175999999999999  0.63811  0.92323  1.0000
