data_image0
_chemical_formula_structural       C61Cr6H28O31
_chemical_formula_sum              "C61 Cr6 H28 O31"
_cell_length_a       10.89436
_cell_length_b       10.95924
_cell_length_c       18.87731
_cell_angle_alpha    90.41711
_cell_angle_beta     89.56545
_cell_angle_gamma    119.96428

_symmetry_space_group_name_H-M    'P 1'
_symmetry_Int_Tables_number       1

loop_
  _symmetry_equiv_pos_as_xyz
  'x,y,z'

loop_
  _atom_site_type_symbol
  _atom_site_label
  _atom_site_symmetry_multiplicity
  _atom_site_fract_x
  _atom_site_fract_y
  _atom_site_fract_z
  _atom_site_occupancy
  C   C1        1.0  0.8674  0.63636  0.60481  1.0000
  C   C2        1.0  0.92147  0.11827  0.7032  1.0000
  C   C3        1.0  0.93497  0.11772999999999999  0.77803  1.0000
  C   C4        1.0  0.26546  0.62933  0.60533  1.0000
  C   C5        1.0  0.73833  0.18288  0.71907  1.0000
  C   C6        1.0  0.7745899999999999  0.21375  0.79043  1.0000
  C   C7        1.0  0.61258  0.17876  0.69582  1.0000
  C   C8        1.0  0.5430199999999998  0.22982  0.73847  1.0000
  C   C9        1.0  0.59755  0.28646  0.8046000000000002  1.0000
  C   C10       1.0  0.71444  0.2812799999999999  0.8301000000000001  1.0000
  C   C11       1.0  0.8298399999999999  0.15989999999999996  0.67367  1.0000
  C   C12       1.0  0.25609  0.54676  0.79661  1.0000
  C   C13       1.0  0.7042399999999999  0.60394  0.70668  1.0000
  C   C14       1.0  0.68939  0.60865  0.77995  1.0000
  C   C15       1.0  0.8067699999999999  0.6526  0.82483  1.0000
  C   C16       1.0  0.8583499999999998  0.22351999999999997  0.60221  1.0000
  C   C17       1.0  0.9385899999999999  0.68671  0.79716  1.0000
  C   C18       1.0  0.9548499999999999  0.68278  0.72484  1.0000
  C   C19       1.0  0.84  0.64549  0.67914  1.0000
  C   C20       1.0  0.38843  0.602  0.29393  1.0000
  C   C21       1.0  0.40426  0.60872  0.22166  1.0000
  C   C22       1.0  0.37618  0.69994  0.18189  1.0000
  C   C23       1.0  0.24243  0.53321  0.72378  1.0000
  C   C24       1.0  0.33976  0.79077  0.21622000000000002  1.0000
  C   C25       1.0  0.3189299999999999  0.78053  0.28931  1.0000
  C   C26       1.0  0.33749  0.68114  0.32774000000000003  1.0000
  C   C27       1.0  0.71645  0.11916  0.29262  1.0000
  C   C28       1.0  0.86253  0.63942  0.39877  1.0000
  C   C29       1.0  0.7067799999999999  0.10731999999999998  0.22018999999999997  1.0000
  C   C30       1.0  0.82621  0.13766  0.17886  1.0000
  C   C31       1.0  0.95461  0.17471  0.21129  1.0000
  C   C32       1.0  0.9651299999999999  0.18211  0.28519  1.0000
  C   C33       1.0  0.8463699999999998  0.16425  0.32583  1.0000
  C   C34       1.0  0.29596  0.65244  0.68046  1.0000
  C   C35       1.0  0.90892  0.7859  0.2968  1.0000
  C   C36       1.0  0.91744  0.79621  0.22418  1.0000
  C   C37       1.0  0.81103  0.68365  0.18283  1.0000
  C   C38       1.0  0.70652  0.56233  0.21657  1.0000
  C   C39       1.0  0.70699  0.54819  0.29011  1.0000
  C   C40       1.0  0.27385999999999994  0.63584  0.39729  1.0000
  C   C41       1.0  0.8154  0.65993  0.3299  1.0000
  C   C42       1.0  0.81023  0.10402  0.89495  1.0000
  C   C43       1.0  0.39359  0.70075  0.8970500000000001  1.0000
  C   C44       1.0  0.79632  0.69075  0.89716  1.0000
  C   C45       1.0  0.85543  0.16115  0.82231  1.0000
  C   C46       1.0  0.80416  0.10204  0.10412  1.0000
  C   C47       1.0  0.40480999999999995  0.70807  0.10639000000000001  1.0000
  C   C48       1.0  0.79556  0.70202  0.10749  1.0000
  C   C49       1.0  0.8623  0.22626999999999997  0.39637  1.0000
  C   C50       1.0  0.3561499999999999  0.78654  0.71078  1.0000
  C   C51       1.0  0.37457  0.80166  0.78383  1.0000
  C   C52       1.0  0.33064  0.68218  0.8269000000000001  1.0000
  C   C53       1.0  0.57737  0.55993  0.6620100000000001  1.0000
  C   C54       1.0  0.09816999999999998  0.20316  0.31769  1.0000
  C   C55       1.0  0.04367000000000007  0.9256800000000001  0.19644  1.0000
  C   C56       1.0  0.03115  0.07776  0.80514  1.0000
  C   C57       1.0  0.59203  0.41853  0.32344  1.0000
  C   C58       1.0  0.20024999999999998  0.41722  0.8387100000000001  1.0000
  C   C59       1.0  0.10651999999999998  0.03664  0.76044  1.0000
  C   C60       1.0  0.08747  0.03185  0.68776  1.0000
  C   C61       1.0  0.9953899999999999  0.07142  0.6592  1.0000
  Cr  Cr1       1.0  0.7916599999999999  0.39025  0.49993  1.0000
  Cr  Cr2       1.0  0.09852000000000002  0.70829  0.50054  1.0000
  Cr  Cr3       1.0  0.10977  0.40143  0.49948  1.0000
  Cr  Cr4       1.0  0.87479  0.92589  7e-05  1.0000
  Cr  Cr5       1.0  0.5741199999999999  0.94867  0.9993  1.0000
  Cr  Cr6       1.0  0.55142  0.62532  0.00092  1.0000
  H   H1        1.0  0.39164999999999994  0.8788  0.6779400000000001  1.0000
  H   H2        1.0  0.60402  0.07259  0.19676000000000002  1.0000
  H   H3        1.0  0.04497000000000001  0.19395  0.17894000000000002  1.0000
  H   H4        1.0  0.18700999999999995  0.42817999999999995  0.70093  1.0000
  H   H5        1.0  0.14453999999999997  0.99761  0.65339  1.0000
  H   H6        1.0  0.06084  0.08898  0.8600200000000001  1.0000
  H   H7        1.0  0.9798  0.06153000000000001  0.60246  1.0000
  H   H8        1.0  0.75236  0.32228  0.88273  1.0000
  H   H9        1.0  0.44822  0.22751999999999997  0.7197100000000001  1.0000
  H   H10       1.0  0.56413  0.13213  0.64563  1.0000
  H   H11       1.0  0.47287  0.50272  0.6858400000000001  1.0000
  H   H12       1.0  0.54628  0.32974  0.83722  1.0000
  H   H13       1.0  0.43799  0.54088  0.19701  1.0000
  H   H14       1.0  0.28045999999999993  0.8438899999999999  0.31485  1.0000
  H   H15       1.0  0.09839  0.16879  0.37135  1.0000
  H   H16       1.0  0.98702  0.87436  0.32766  1.0000
  H   H17       1.0  0.03735000000000001  0.98615  0.15333  1.0000
  H   H18       1.0  0.62387  0.47861000000000004  0.18535  1.0000
  H   H19       1.0  0.56399  0.4186599999999999  0.37865  1.0000
  H   H20       1.0  0.2196  0.33467  0.8206000000000001  1.0000
  H   H21       1.0  0.18104  0.00917  0.78242  1.0000
  H   H22       1.0  0.58748  0.58502  0.80175  1.0000
  H   H23       1.0  0.02992  0.72179  0.8312  1.0000
  H   H24       1.0  0.05849  0.71002  0.70433  1.0000
  H   H25       1.0  0.40588  0.52693  0.32261  1.0000
  H   H26       1.0  0.32374999999999987  0.86566  0.18645  1.0000
  H   H27       1.0  0.4314299999999999  0.90712  0.80583  1.0000
  H   H28       1.0  0.62309  0.10043  0.3222900000000001  1.0000
  O   O1        1.0  0.7665  0.25004  0.57979  1.0000
  O   O2        1.0  0.41333  0.60336  0.92044  1.0000
  O   O3        1.0  0.6761099999999998  0.62625  0.9267500000000001  1.0000
  O   O4        1.0  0.7985699999999999  0.51678  0.57478  1.0000
  O   O5        1.0  0.89535  0.80987  0.08095  1.0000
  O   O6        1.0  0.8724899999999999  0.04976  0.0738  1.0000
  O   O7        1.0  0.6916799999999999  0.08807  0.07907  1.0000
  O   O8        1.0  0.45172  0.82525  0.07405000000000002  1.0000
  O   O9        1.0  0.41358  0.60637  0.08096000000000002  1.0000
  O   O10       1.0  0.67634  0.62904  0.07555  1.0000
  O   O11       1.0  0.66678  0.83329  9e-05  1.0000
  O   O12       1.0  0.21869  0.7019  0.42596  1.0000
  O   O13       1.0  0.984  0.73295  0.58109  1.0000
  O   O14       1.0  0.2186  0.70089  0.57476  1.0000
  O   O15       1.0  0.24939000000000003  0.51535  0.57994  1.0000
  O   O16       1.0  0.98279  0.2809  0.5737  1.0000
  O   O17       1.0  0.7666  0.25113  0.41926  1.0000
  O   O18       1.0  0.79866  0.51779  0.42597999999999997  1.0000
  O   O19       1.0  0.9840999999999999  0.73404  0.42057  1.0000
  O   O20       1.0  0.58722  0.58914  0.59919  1.0000
  O   O21       1.0  0.20879  0.25516  0.28392  1.0000
  O   O22       1.0  0.15912  0.97035  0.22441  1.0000
  O   O23       1.0  0.24949  0.51644  0.41942  1.0000
  O   O24       1.0  0.5246999999999999  0.3104  0.28903  1.0000
  O   O25       1.0  0.13504999999999995  0.40342  0.89377  1.0000
  O   O26       1.0  0.9828799999999998  0.28191  0.42489  1.0000
  O   O27       1.0  0.99998  0.49999  0.49998  1.0000
  O   O28       1.0  0.8951099999999999  0.80686  0.92043  1.0000
  O   O29       1.0  0.87226  0.04697  0.925  1.0000
  O   O30       1.0  0.69143  0.08506  0.91855  1.0000
  O   O31       1.0  0.45148999999999995  0.82246  0.92525  1.0000
