data_image0
_chemical_formula_structural       C60Cr6H3O26SO3HSO3HBr2SO3HBr5SO3HBr5SO3HSO3HSO3HBr2
_chemical_formula_sum              "C60 Cr6 H10 O47 S7 Br14"
_cell_length_a       11.17904
_cell_length_b       12.70327
_cell_length_c       23.6189
_cell_angle_alpha    90.81997
_cell_angle_beta     96.56554
_cell_angle_gamma    68.87892

_symmetry_space_group_name_H-M    'P 1'
_symmetry_Int_Tables_number       1

loop_
  _symmetry_equiv_pos_as_xyz
  'x,y,z'

loop_
  _atom_site_type_symbol
  _atom_site_label
  _atom_site_symmetry_multiplicity
  _atom_site_fract_x
  _atom_site_fract_y
  _atom_site_fract_z
  _atom_site_occupancy
  C   C1        1.0  0.14886  0.61606  0.42895  1.0000
  C   C2        1.0  0.6516000000000001  0.56309  0.30833999999999995  1.0000
  C   C3        1.0  0.69631  0.7374500000000002  0.31845  1.0000
  C   C4        1.0  0.70603  0.74008  0.25868  1.0000
  C   C5        1.0  0.69027  0.65117  0.22549999999999995  1.0000
  C   C6        1.0  0.6992400000000001  0.65044  0.16681  1.0000
  C   C7        1.0  0.7089199999999999  0.8369900000000001  0.17007  1.0000
  C   C8        1.0  0.73518  0.8243300000000001  0.23012  1.0000
  C   C9        1.0  0.24162  0.15596  0.12422999999999998  1.0000
  C   C10       1.0  0.21268000000000006  0.2068  0.23191  1.0000
  C   C11       1.0  0.12252000000000002  0.18568  0.25857  1.0000
  C   C12       1.0  0.74848  0.6043400000000001  0.40362  1.0000
  C   C13       1.0  0.11589  0.20881000000000005  0.31851  1.0000
  C   C14       1.0  0.22617  0.18294  0.17268999999999998  1.0000
  C   C15       1.0  0.11068000000000001  0.23588999999999996  0.36761  1.0000
  C   C16       1.0  0.1838499999999999  0.7634300000000003  0.12786  1.0000
  C   C17       1.0  0.21343999999999994  0.7264800000000001  0.23911999999999994  1.0000
  C   C18       1.0  0.18112  0.6459900000000001  0.26234  1.0000
  C   C19       1.0  0.18710000000000002  0.63344  0.323  1.0000
  C   C20       1.0  0.19341999999999993  0.7455200000000001  0.17830999999999997  1.0000
  C   C21       1.0  0.17987  0.62545  0.3729399999999999  1.0000
  C   C22       1.0  0.5321  0.79018  0.8517  1.0000
  C   C23       1.0  0.10064999999999992  0.28230000000000005  0.42340999999999995  1.0000
  C   C24       1.0  0.57766  0.76884  0.7436699999999999  1.0000
  C   C25       1.0  0.5852899999999999  0.67586  0.71423  1.0000
  C   C26       1.0  0.6334999999999998  0.6581300000000002  0.65914  1.0000
  C   C27       1.0  0.55025  0.78072  0.80219  1.0000
  C   C28       1.0  0.68133  0.6378400000000001  0.61499  1.0000
  C   C29       1.0  0.22109  0.15764000000000003  0.84781  1.0000
  C   C30       1.0  0.09568999999999998  0.22673  0.63846  1.0000
  C   C31       1.0  0.98739  0.28007  0.72251  1.0000
  C   C32       1.0  0.9801400000000001  0.26652  0.66457  1.0000
  C   C33       1.0  0.21316  0.17393000000000003  0.67107  1.0000
  C   C34       1.0  0.11073999999999999  0.59628  0.59571  1.0000
  C   C35       1.0  0.21827999999999997  0.17864  0.73048  1.0000
  C   C36       1.0  0.10070999999999995  0.21857000000000004  0.7560799999999999  1.0000
  C   C37       1.0  0.10037  0.19654  0.8144  1.0000
  C   C38       1.0  0.33332999999999996  0.15074  0.82318  1.0000
  C   C39       1.0  0.33448  0.15586999999999998  0.76547  1.0000
  C   C40       1.0  0.10942999999999999  0.73683  0.86094  1.0000
  C   C41       1.0  0.13413999999999998  0.60746  0.65834  1.0000
  C   C42       1.0  0.24949  0.53362  0.75201  1.0000
  C   C43       1.0  0.23887999999999995  0.5259700000000002  0.6925799999999999  1.0000
  C   C44       1.0  0.04299999999999991  0.6971000000000002  0.6852199999999998  1.0000
  C   C45       1.0  0.7481199999999999  0.60241  0.56549  1.0000
  C   C46       1.0  0.06374999999999989  0.7119500000000002  0.74408  1.0000
  C   C47       1.0  0.16736999999999996  0.62848  0.7771899999999999  1.0000
  C   C48       1.0  0.19341999999999995  0.64625  0.83493  1.0000
  C   C49       1.0  0.99095  0.802  0.8312499999999999  1.0000
  C   C50       1.0  0.9807500000000001  0.8049300000000003  0.77211  1.0000
  C   C51       1.0  0.26616  0.10996  0.06929999999999999  1.0000
  C   C52       1.0  0.60161  0.7749200000000002  0.08128  1.0000
  C   C53       1.0  0.1906399999999999  0.7890200000000003  0.06997  1.0000
  C   C54       1.0  0.24455  0.11087  0.90599  1.0000
  C   C55       1.0  0.5114799999999998  0.7982200000000003  0.91074  1.0000
  C   C56       1.0  0.09779  0.2779  0.58421  1.0000
  C   C57       1.0  0.1601099999999999  0.7836400000000002  0.91031  1.0000
  C   C58       1.0  0.67901  0.75265  0.13839999999999997  1.0000
  C   C59       1.0  0.68932  0.63935  0.34385  1.0000
  C   C60       1.0  0.6559200000000002  0.56859  0.25014  1.0000
  Cr  Cr1       1.0  0.18976999999999994  0.41565000000000013  0.51162  1.0000
  Cr  Cr2       1.0  0.9304  0.66732  0.49676999999999993  1.0000
  Cr  Cr3       1.0  0.8798699999999999  0.41701000000000005  0.49164999999999986  1.0000
  Cr  Cr4       1.0  0.1495  0.97398  0.9853299999999998  1.0000
  Cr  Cr5       1.0  0.45699999999999996  0.97651  0.9946599999999999  1.0000
  Cr  Cr6       1.0  0.4111700000000001  0.72427  0.99527  1.0000
  H   H1        1.0  0.42595  0.13332000000000002  0.8483799999999999  1.0000
  H   H2        1.0  0.2830899999999999  0.5950500000000001  0.85927  1.0000
  H   H3        1.0  0.62956  0.5084000000000001  0.2237  1.0000
  O   O1        1.0  0.19633999999999993  0.3032  0.44849999999999995  1.0000
  O   O2        1.0  0.81196  0.65809  0.54715  1.0000
  O   O3        1.0  0.75793  0.50614  0.54711  1.0000
  O   O4        1.0  0.9886699999999999  0.32162000000000013  0.55604  1.0000
  O   O5        1.0  1.9999999999976217e-05  0.49999000000000005  0.50001  1.0000
  O   O6        1.0  0.11365999999999994  0.8832700000000001  0.04782  1.0000
  O   O7        1.0  0.18693  0.06853  0.04399  1.0000
  O   O8        1.0  0.37777  0.08904000000000001  0.05422  1.0000
  O   O9        1.0  0.5628  0.8729600000000001  0.05697  1.0000
  O   O10       1.0  0.5553900000000002  0.70094  0.0627  1.0000
  O   O11       1.0  0.29502  0.7319200000000001  0.04995  1.0000
  O   O12       1.0  0.19931000000000001  0.51967  0.45488  1.0000
  O   O13       1.0  0.09428999999999992  0.8842300000000002  0.92155  1.0000
  O   O14       1.0  0.16898  0.06941000000000001  0.9269399999999999  1.0000
  O   O15       1.0  0.35839999999999994  0.08999000000000003  0.92795  1.0000
  O   O16       1.0  0.54485  0.87385  0.93992  1.0000
  O   O17       1.0  0.5360200000000003  0.7019  0.93643  1.0000
  O   O18       1.0  0.2770700000000001  0.73281  0.93289  1.0000
  O   O19       1.0  0.3392199999999999  0.89159  0.99175  1.0000
  O   O20       1.0  0.04565999999999989  0.6913800000000002  0.44167999999999996  1.0000
  O   O21       1.0  0.8119300000000002  0.65946  0.4309499999999999  1.0000
  O   O22       1.0  0.7578999999999999  0.50762  0.42176  1.0000
  O   O23       1.0  0.98863  0.32299  0.43984  1.0000
  O   O24       1.0  0.19638  0.30172000000000004  0.57385  1.0000
  O   O25       1.0  0.19934999999999994  0.5183  0.57108  1.0000
  O   O26       1.0  0.0457  0.6899  0.56703  1.0000
  S   S1        1.0  0.7601800000000001  0.52031  0.13155  1.0000
  O   O27       1.0  0.65799  0.46916  0.12000999999999999  1.0000
  O   O28       1.0  0.80492  0.53802  0.07603  1.0000
  O   O29       1.0  0.88765  0.43148  0.17325999999999997  1.0000
  H   H4        1.0  0.85142  0.40744000000000014  0.20485  1.0000
  S   S2        1.0  0.28267999999999993  0.8112500000000001  0.28122  1.0000
  O   O30       1.0  0.18046999999999996  0.8942400000000003  0.31235  1.0000
  O   O31       1.0  0.38854999999999995  0.7383000000000001  0.32417  1.0000
  O   O32       1.0  0.34350999999999987  0.8808400000000001  0.23941  1.0000
  H   H5        1.0  0.36106000000000005  0.93865  0.264  1.0000
  Br  Br1       1.0  0.55254  0.55427  0.74734  1.0000
  Br  Br2       1.0  0.6173799999999999  0.8862500000000001  0.71178  1.0000
  S   S3        1.0  0.95553  0.20400000000000004  0.84336  1.0000
  O   O33       1.0  0.9437499999999999  0.2716900000000001  0.8965399999999998  1.0000
  O   O34       1.0  0.83442  0.25473000000000007  0.8029  1.0000
  O   O35       1.0  0.96488  0.07316  0.85979  1.0000
  H   H6        1.0  0.8883800000000001  0.08392000000000002  0.8798599999999999  1.0000
  Br  Br3       1.0  0.8908  0.42907  0.74663  1.0000
  Br  Br4       1.0  0.49378  0.1551  0.74147  1.0000
  Br  Br5       1.0  0.8091200000000001  0.29867  0.6255  1.0000
  Br  Br6       1.0  0.3519200000000001  0.07645  0.63139  1.0000
  Br  Br7       1.0  0.7264300000000001  0.96342  0.13217  1.0000
  S   S4        1.0  0.8488699999999999  0.84363  0.8658199999999998  1.0000
  O   O36       1.0  0.7424900000000001  0.93973  0.83363  1.0000
  O   O37       1.0  0.8094599999999997  0.74256  0.8663299999999999  1.0000
  O   O38       1.0  0.87139  0.88036  0.93376  1.0000
  H   H7        1.0  0.78791  0.89481  0.94878  1.0000
  Br  Br8       1.0  0.37385999999999997  0.4120600000000001  0.80007  1.0000
  Br  Br9       1.0  0.90942  0.9563700000000002  0.73918  1.0000
  Br  Br10      1.0  0.37419  0.40464  0.66143  1.0000
  Br  Br11      1.0  0.8782500000000002  0.78742  0.64429  1.0000
  Br  Br12      1.0  0.83692  0.9042000000000001  0.26853  1.0000
  S   S5        1.0  0.59012  0.46337  0.3333  1.0000
  O   O39       1.0  0.5178  0.50851  0.3836  1.0000
  O   O40       1.0  0.49974  0.44035  0.28688  1.0000
  O   O41       1.0  0.7125000000000002  0.34155  0.35283  1.0000
  H   H8        1.0  0.77627  0.33391  0.32571  1.0000
  S   S6        1.0  0.65345  0.86271  0.35880999999999996  1.0000
  O   O42       1.0  0.7727899999999999  0.8769200000000003  0.38843  1.0000
  O   O43       1.0  0.5790799999999999  0.96475  0.32083  1.0000
  O   O44       1.0  0.5613199999999998  0.8537400000000003  0.4087799999999999  1.0000
  H   H9        1.0  0.47186  0.8806600000000001  0.38936  1.0000
  S   S7        1.0  0.005789999999999997  0.13654  0.22180999999999998  1.0000
  O   O45       1.0  0.9485600000000001  0.20252000000000003  0.16681  1.0000
  O   O46       1.0  0.0681  0.01472  0.20782  1.0000
  O   O47       1.0  0.88684  0.1507  0.26225  1.0000
  H   H10       1.0  0.9296500000000001  0.10239  0.29669  1.0000
  Br  Br13      1.0  0.33873999999999993  0.25946  0.27232  1.0000
  Br  Br14      1.0  0.10555999999999996  0.55447  0.21661  1.0000
