data_image0
_chemical_formula_structural       O2CO2CO2CO2CO2CO2CCr3OC4H2C6H2C2H2C6H4C2H2C6H3C4O2CO2CO2CO2CO2CO2CCr3OC2H5NO2NO2
_chemical_formula_sum              "O30 C44 Cr6 H20 N2"
_cell_length_a       10.65041
_cell_length_b       10.6588
_cell_length_c       16.92257
_cell_angle_alpha    98.71139
_cell_angle_beta     98.78796999999999
_cell_angle_gamma    61.70517

_space_group_name_H-M_alt    "P 1"
_space_group_IT_number       1

loop_
  _space_group_symop_operation_xyz
  'x, y, z'

loop_
  _atom_site_type_symbol
  _atom_site_label
  _atom_site_symmetry_multiplicity
  _atom_site_fract_x
  _atom_site_fract_y
  _atom_site_fract_z
  _atom_site_occupancy
  O   O1        1.0  0.7512199999999999  0.49923000000000006  0.43517  1.0000
  O   O2        1.0  0.47722  0.7276000000000001  0.43687  1.0000
  C   C1        1.0  0.38259999999999994  0.7065900000000002  0.38689  1.0000
  O   O3        1.0  0.25864999999999994  0.74512  0.41147000000000006  1.0000
  O   O4        1.0  0.29707000000000006  0.46723999999999993  0.39596  1.0000
  C   C2        1.0  0.3697900000000001  0.34613  0.35916  1.0000
  O   O5        1.0  0.48883  0.25261  0.38779  1.0000
  O   O6        1.0  0.7244000000000003  0.30239  0.42098  1.0000
  C   C3        1.0  0.78399  0.37296999999999997  0.40509  1.0000
  O   O7        1.0  0.7521  0.50121  0.61219  1.0000
  O   O8        1.0  0.47803999999999996  0.72944  0.60097  1.0000
  C   C4        1.0  0.35653000000000007  0.772  0.62714  1.0000
  O   O9        1.0  0.25953  0.74711  0.58849  1.0000
  O   O10       1.0  0.2978800000000003  0.46908  0.56005  1.0000
  C   C5        1.0  0.36806000000000005  0.34621  0.58575  1.0000
  O   O11       1.0  0.48972000000000027  0.25459  0.56481  1.0000
  O   O12       1.0  0.7252200000000001  0.30423  0.58508  1.0000
  C   C6        1.0  0.77413  0.37970000000000004  0.62961  1.0000
  Cr  Cr1       1.0  0.6083399999999999  0.61104  0.52043  1.0000
  Cr  Cr2       1.0  0.28765  0.6011199999999999  0.48935  1.0000
  Cr  Cr3       1.0  0.60404  0.28787000000000007  0.49028  1.0000
  O   O13       1.0  0.50001  0.50001  0.5000200000000002  1.0000
  C   C7        1.0  0.34233000000000013  0.33442000000000005  0.2755  1.0000
  C   C8        1.0  0.33079  0.32407  0.20426  1.0000
  C   C9        1.0  0.8102300000000001  0.25849  0.20543  1.0000
  C   C10       1.0  0.74277  0.40324999999999994  0.25686  1.0000
  H   H1        1.0  0.6263900000000001  0.46332000000000007  0.26114  1.0000
  H   H2        1.0  0.7505000000000003  0.21133  0.16267  1.0000
  C   C11       1.0  0.84694  0.3331  0.32934  1.0000
  C   C12       1.0  0.91256  0.1909  0.27861  1.0000
  C   C13       1.0  0.02636000000000001  0.22757  0.25608  1.0000
  C   C14       1.0  0.9580400000000002  0.37334  0.30811  1.0000
  C   C15       1.0  0.8545400000000001  0.44155000000000005  0.2356  1.0000
  C   C16       1.0  0.9210600000000001  0.29962  0.18393  1.0000
  H   H3        1.0  0.14237000000000002  0.16407  0.25019  1.0000
  H   H4        1.0  0.017109999999999983  0.4205  0.35143  1.0000
  C   C17       1.0  0.43165  0.67954  0.18626  1.0000
  C   C18       1.0  0.3119700000000001  0.68969  0.23244  1.0000
  H   H5        1.0  0.27491000000000004  0.60812  0.23041  1.0000
  H   H6        1.0  0.4932600000000001  0.5902500000000002  0.14230000000000004  1.0000
  C   C19       1.0  0.37297000000000013  0.74845  0.30785  1.0000
  C   C20       1.0  0.49334999999999996  0.73827  0.2639  1.0000
  C   C21       1.0  0.39632  0.8929500000000001  0.24193000000000003  1.0000
  C   C22       1.0  0.27784  0.9021600000000001  0.28806000000000004  1.0000
  C   C23       1.0  0.21543  0.8444  0.21191  1.0000
  C   C24       1.0  0.33531  0.83339  0.16628  1.0000
  H   H7        1.0  0.60435  0.7002  0.29228  1.0000
  H   H8        1.0  0.43066999999999994  0.9769200000000001  0.24393  1.0000
  H   H9        1.0  0.2234599999999999  0.9885700000000001  0.33486  1.0000
  H   H10       1.0  0.10084999999999995  0.8877  0.18895  1.0000
  C   C25       1.0  0.4533500000000001  0.29889000000000004  0.7814900000000002  1.0000
  C   C26       1.0  0.36217999999999984  0.43184000000000006  0.73444  1.0000
  H   H11       1.0  0.39124000000000003  0.51736  0.72951  1.0000
  H   H12       1.0  0.5558  0.27647  0.81871  1.0000
  C   C27       1.0  0.33823  0.33369  0.66354  1.0000
  C   C28       1.0  0.42962000000000006  0.20157999999999998  0.7099  1.0000
  C   C29       1.0  0.29144000000000003  0.22472  0.74168  1.0000
  C   C30       1.0  0.19997999999999996  0.35722000000000004  0.69397  1.0000
  C   C31       1.0  0.22475  0.45303  0.76612  1.0000
  C   C32       1.0  0.31618000000000007  0.32214  0.81277  1.0000
  H   H13       1.0  0.5124  0.09717  0.68513  1.0000
  H   H14       1.0  0.26232  0.13926  0.74678  1.0000
  H   H15       1.0  0.09785000000000006  0.3795299999999999  0.65644  1.0000
  C   C33       1.0  0.81753  0.34197  0.7096  1.0000
  C   C34       1.0  0.8438900000000001  0.3148  0.77806  1.0000
  C   C35       1.0  0.33831999999999995  0.81272  0.70973  1.0000
  C   C36       1.0  0.31325  0.83959  0.77848  1.0000
  O   O14       1.0  0.1718299999999999  0.91388  0.05751  1.0000
  O   O15       1.0  0.9406900000000002  0.18605  0.05473  1.0000
  C   C37       1.0  0.9596500000000001  0.2846  0.10264  1.0000
  O   O16       1.0  0.92047  0.40572  0.07501  1.0000
  O   O17       1.0  0.19669  0.37046  0.08412  1.0000
  C   C38       1.0  0.3187500000000001  0.29861  0.1205  1.0000
  O   O18       1.0  0.4129900000000001  0.18075  0.09161  1.0000
  O   O19       1.0  0.36662  0.94313  0.06576  1.0000
  C   C39       1.0  0.29527  0.88982  0.08834  1.0000
  O   O20       1.0  0.16051000000000012  0.90633  0.87921  1.0000
  O   O21       1.0  0.9301900000000002  0.17905  0.88945  1.0000
  C   C40       1.0  0.8847300000000001  0.2994  0.86092  1.0000
  O   O22       1.0  0.90914  0.39817000000000013  0.8967100000000002  1.0000
  O   O23       1.0  0.18619000000000002  0.36346  0.91883  1.0000
  C   C41       1.0  0.30743  0.2936  0.8916000000000002  1.0000
  O   O24       1.0  0.4016700000000001  0.1732  0.91331  1.0000
  O   O25       1.0  0.35611999999999994  0.93613  0.90047  1.0000
  C   C42       1.0  0.28010000000000007  0.88459  0.85902  1.0000
  Cr  Cr4       1.0  0.05401999999999996  0.052700000000000004  0.97085  1.0000
  Cr  Cr5       1.0  0.05923000000000002  0.37512  0.99339  1.0000
  Cr  Cr6       1.0  0.37495000000000006  0.06119999999999997  0.99234  1.0000
  O   O26       1.0  0.1627400000000001  0.16301  0.9855300000000001  1.0000
  C   C43       1.0  0.10971000000000006  0.5955199999999999  0.80051  1.0000
  C   C44       1.0  0.03594999999999998  0.7017399999999999  0.73689  1.0000
  H   H16       1.0  0.11546000000000002  0.71974  0.71143  1.0000
  H   H17       1.0  0.97918  0.6608600000000001  0.68773  1.0000
  H   H18       1.0  0.9565399999999998  0.8055100000000001  0.7644  1.0000
  H   H19       1.0  0.02822000000000001  0.57702  0.82355  1.0000
  H   H20       1.0  0.15997  0.64068  0.85119  1.0000
  N   N1        1.0  0.9351200000000002  0.05842  0.30676  1.0000
  O   O27       1.0  0.87303  0.9859300000000001  0.2661  1.0000
  O   O28       1.0  0.9941  0.02701  0.379  1.0000
  N   N2        1.0  0.8247200000000001  0.58068  0.21302  1.0000
  O   O29       1.0  0.8908300000000001  0.64953  0.25339000000000006  1.0000
  O   O30       1.0  0.7296200000000003  0.63846  0.1539  1.0000
