data_image0
_chemical_formula_structural       O2CO2CCu2O4C3HCH4C3H2C3H4CHC2HCHC4HC2HCHCHCHCHC2NCHCN2O2NO2NHCH3
_chemical_formula_sum              "O12 C31 Cu2 H25 N5"
_cell_length_a       10.74556
_cell_length_b       10.82034
_cell_length_c       9.60343
_cell_angle_alpha    90.15655
_cell_angle_beta     89.79618999999998
_cell_angle_gamma    91.58849999999998

_symmetry_space_group_name_H-M    'P 1'
_symmetry_Int_Tables_number       1

loop_
  _symmetry_equiv_pos_as_xyz
  'x,y,z'

loop_
  _atom_site_type_symbol
  _atom_site_label
  _atom_site_symmetry_multiplicity
  _atom_site_fract_x
  _atom_site_fract_y
  _atom_site_fract_z
  _atom_site_occupancy
  O   O1        1.0  0.49999  0.3196399999999999  0.61881  1.0000
  O   O2        1.0  0.5  0.31966  0.38123999999999997  1.0000
  C   C1        1.0  0.49518  0.26237  0.49957  1.0000
  O   O3        1.0  0.31768  0.4999699999999999  0.61879  1.0000
  O   O4        1.0  0.3177  0.49999  0.38121  1.0000
  C   C2        1.0  0.26027  0.50277  0.5003499999999999  1.0000
  Cu  Cu1       1.0  0.49999  0.49999  0.64066  1.0000
  Cu  Cu2       1.0  0.50001  0.50001  0.35934  1.0000
  O   O5        1.0  0.5  0.68034  0.61876  1.0000
  O   O6        1.0  0.50001  0.6803599999999999  0.38119  1.0000
  O   O7        1.0  0.6823  0.50001  0.61879  1.0000
  O   O8        1.0  0.68232  0.50003  0.38121  1.0000
  C   C3        1.0  0.49336  0.7367099999999999  0.50022  1.0000
  C   C4        1.0  0.7401800000000001  0.50303  0.50006  1.0000
  C   C5        1.0  0.06851  0.3745299999999999  0.45600999999999997  1.0000
  H   H1        1.0  0.09413  0.30762999999999996  0.53863  1.0000
  C   C6        1.0  0.9248600000000001  0.3784699999999999  0.44931  1.0000
  H   H2        1.0  0.89295  0.3632099999999999  0.34045  1.0000
  H   H3        1.0  0.8842  0.30295  0.5151  1.0000
  H   H4        1.0  0.10545000000000002  0.46425999999999995  0.72569  1.0000
  H   H5        1.0  0.8951900000000002  0.45648  0.72251  1.0000
  C   C7        1.0  0.07237  0.53281  0.64917  1.0000
  C   C8        1.0  0.07551  0.60657  0.40224  1.0000
  C   C9        1.0  0.12239  0.50395  0.50067  1.0000
  H   H6        1.0  0.11291  0.69849  0.43713  1.0000
  H   H7        1.0  0.10964  0.59276  0.29407  1.0000
  C   C10       1.0  0.87857  0.50488  0.50067  1.0000
  C   C11       1.0  0.9295600000000002  0.5298799999999999  0.64976  1.0000
  C   C12       1.0  0.93184  0.6072499999999998  0.4027  1.0000
  H   H8        1.0  0.8978  0.59193  0.29458  1.0000
  H   H9        1.0  0.89972  0.6993499999999999  0.43732999999999994  1.0000
  H   H10       1.0  0.10752  0.6255299999999999  0.68407  1.0000
  H   H11       1.0  0.89631  0.61996  0.68925  1.0000
  C   C13       1.0  0.3082  0.12445999999999999  0.66464  1.0000
  H   H12       1.0  0.3009  0.22359  0.6598  1.0000
  C   C14       1.0  0.22164  0.058729999999999984  0.74809  1.0000
  C   C15       1.0  0.22299999999999998  0.9295699999999999  0.7484699999999999  1.0000
  H   H13       1.0  0.15612  0.87626  0.80983  1.0000
  C   C16       1.0  0.3086  0.8669999999999999  0.66756  1.0000
  H   H14       1.0  0.30116  0.7672899999999998  0.66753  1.0000
  C   C17       1.0  0.3979600000000002  0.9319699999999999  0.5857  1.0000
  C   C18       1.0  0.39864000000000005  0.06274  0.5844299999999999  1.0000
  C   C19       1.0  0.4858  0.12760999999999997  0.49748999999999993  1.0000
  C   C20       1.0  0.56072  0.06206999999999999  0.40279  1.0000
  H   H15       1.0  0.6209  0.8854399999999998  0.33761  1.0000
  C   C21       1.0  0.55872  0.93456  0.40606  1.0000
  C   C22       1.0  0.48303  0.8697599999999998  0.49968  1.0000
  H   H16       1.0  0.36052  0.36099999999999993  0.12912  1.0000
  C   C23       1.0  0.66424  0.6631199999999999  0.14365  1.0000
  H   H17       1.0  0.67263  0.67057  0.25317  1.0000
  C   C24       1.0  0.74418  0.7431399999999999  0.0716  1.0000
  H   H18       1.0  0.80695  0.8052599999999999  0.12781  1.0000
  C   C25       1.0  0.74384  0.7435899999999999  0.92824  1.0000
  H   H19       1.0  0.8064  0.80603  0.8720899999999999  1.0000
  C   C26       1.0  0.66361  0.6639399999999999  0.85614  1.0000
  H   H20       1.0  0.67152  0.67206  0.74657  1.0000
  C   C27       1.0  0.58043  0.58049  0.9251799999999999  1.0000
  C   C28       1.0  0.58058  0.58025  0.07468  1.0000
  N   N1        1.0  0.5012  0.50121  0.14791  1.0000
  C   C29       1.0  0.42337  0.42365999999999987  0.07396  1.0000
  H   H21       1.0  0.36082  0.3610299999999999  0.87104  1.0000
  C   C30       1.0  0.42348  0.42366999999999994  0.9261100000000001  1.0000
  N   N2        1.0  0.50125  0.5012899999999999  0.8520399999999999  1.0000
  N   N3        1.0  0.64202  0.12288999999999997  0.30416  1.0000
  O   O9        1.0  0.65207  0.07924  0.17831999999999998  1.0000
  O   O10       1.0  0.72133  0.20748999999999998  0.34589  1.0000
  N   N4        1.0  0.13134  0.12276999999999998  0.83046  1.0000
  O   O11       1.0  0.13153  0.24298  0.8339499999999999  1.0000
  O   O12       1.0  0.04912999999999999  0.06138999999999999  0.90468  1.0000
  N   N5        1.0  0.12034  0.33397  0.32341  1.0000
  H   H22       1.0  0.09455  0.3843599999999999  0.23772  1.0000
  C   C31       1.0  0.11823  0.20187  0.29917  1.0000
  H   H23       1.0  0.16705  0.18188  0.19981  1.0000
  H   H24       1.0  0.020620000000000006  0.16575  0.29212  1.0000
  H   H25       1.0  0.16717  0.15403  0.38444  1.0000
