data_image0
_chemical_formula_structural       O8C4O8C4O8C4O8C4O8C4O8C4Cr12O4C8H4C32H20C16H12C32H12OHOHOHOHOHOHOHOHNO2NO2NO2NO3HOHOHOHOHOHOHOH
_chemical_formula_sum              "O76 C112 Cr12 H64 N4"
_cell_length_a       19.04544
_cell_length_b       11.05021
_cell_length_c       18.82096
_cell_angle_alpha    90.1215
_cell_angle_beta     90.40131999999998
_cell_angle_gamma    89.59161

_space_group_name_H-M_alt    "P 1"
_space_group_IT_number       1

loop_
  _space_group_symop_operation_xyz
  'x, y, z'

loop_
  _atom_site_type_symbol
  _atom_site_label
  _atom_site_symmetry_multiplicity
  _atom_site_fract_x
  _atom_site_fract_y
  _atom_site_fract_z
  _atom_site_occupancy
  O   O1        1.0  0.78429  0.29036  0.83054  1.0000
  O   O2        1.0  0.21570999999999999  0.29036  0.16946  1.0000
  O   O3        1.0  0.28429  0.79036  0.83054  1.0000
  O   O4        1.0  0.71571  0.79036  0.16946  1.0000
  O   O5        1.0  0.76261  0.04107  0.82523  1.0000
  O   O6        1.0  0.23739000000000002  0.04107  0.17477  1.0000
  O   O7        1.0  0.26261  0.54107  0.82523  1.0000
  O   O8        1.0  0.73739  0.54107  0.17477  1.0000
  C   C1        1.0  0.72566  0.95838  0.85488  1.0000
  C   C2        1.0  0.27435  0.95808  0.14509  1.0000
  C   C3        1.0  0.22748000000000002  0.45466  0.8534000000000002  1.0000
  C   C4        1.0  0.77263  0.45447000000000004  0.14651  1.0000
  O   O9        1.0  0.66739  0.92416  0.82997  1.0000
  O   O10       1.0  0.33261  0.92416  0.17003  1.0000
  O   O11       1.0  0.16739  0.42416  0.82997  1.0000
  O   O12       1.0  0.83261  0.42416  0.17003  1.0000
  O   O13       1.0  0.55398  0.08142  0.82178  1.0000
  O   O14       1.0  0.44602  0.08142  0.17822  1.0000
  O   O15       1.0  0.05398  0.58142  0.82178  1.0000
  O   O16       1.0  0.94602  0.58142  0.17822  1.0000
  C   C5        1.0  0.52994  0.17794  0.85064  1.0000
  C   C6        1.0  0.47015000000000007  0.17741  0.14942  1.0000
  C   C7        1.0  0.03199  0.67732  0.85191  1.0000
  C   C8        1.0  0.9705500000000001  0.67702  0.14982  1.0000
  O   O17       1.0  0.54321  0.28317  0.82674  1.0000
  O   O18       1.0  0.4567899999999999  0.28317  0.17326  1.0000
  O   O19       1.0  0.04321  0.7831700000000001  0.82674  1.0000
  O   O20       1.0  0.9567899999999999  0.7831700000000001  0.17326  1.0000
  O   O21       1.0  0.67835  0.375  0.82272  1.0000
  O   O22       1.0  0.32165  0.375  0.17728  1.0000
  O   O23       1.0  0.17835  0.875  0.82272  1.0000
  O   O24       1.0  0.82165  0.875  0.17728  1.0000
  C   C9        1.0  0.72408  0.31295  0.8598  1.0000
  C   C10       1.0  0.27581  0.31359  0.1402  1.0000
  C   C11       1.0  0.23817999999999998  0.864  0.85254  1.0000
  C   C12       1.0  0.76176  0.86347  0.14744  1.0000
  O   O25       1.0  0.78506  0.2893  0.67058  1.0000
  O   O26       1.0  0.21494  0.2893  0.32942  1.0000
  O   O27       1.0  0.28506  0.7893000000000001  0.67058  1.0000
  O   O28       1.0  0.71494  0.7893000000000001  0.32942  1.0000
  O   O29       1.0  0.76333  0.04009  0.67694  1.0000
  O   O30       1.0  0.23666999999999996  0.04009  0.32306  1.0000
  O   O31       1.0  0.26333  0.54009  0.67694  1.0000
  O   O32       1.0  0.73667  0.54009  0.32306  1.0000
  C   C13       1.0  0.72838  0.95059  0.64913  1.0000
  C   C14       1.0  0.27423  0.9616300000000001  0.35497  1.0000
  C   C15       1.0  0.22842  0.45049  0.64946  1.0000
  C   C16       1.0  0.77549  0.4651100000000001  0.35613  1.0000
  O   O33       1.0  0.66816  0.92311  0.67  1.0000
  O   O34       1.0  0.33184  0.92311  0.33  1.0000
  O   O35       1.0  0.16816  0.42311  0.67  1.0000
  O   O36       1.0  0.83184  0.42311  0.33  1.0000
  O   O37       1.0  0.55469  0.08044  0.67348  1.0000
  O   O38       1.0  0.44531  0.08044  0.32652  1.0000
  O   O39       1.0  0.054689999999999996  0.58044  0.67348  1.0000
  O   O40       1.0  0.94531  0.58044  0.32652  1.0000
  C   C17       1.0  0.53006  0.17784  0.64511  1.0000
  C   C18       1.0  0.46917000000000003  0.17568  0.35539  1.0000
  C   C19       1.0  0.02901  0.67775  0.64598  1.0000
  C   C20       1.0  0.9403000000000001  0.68066  0.36259  1.0000
  O   O41       1.0  0.54398  0.28211  0.66677  1.0000
  O   O42       1.0  0.4560199999999999  0.28211  0.33323  1.0000
  O   O43       1.0  0.04398  0.7821100000000001  0.66677  1.0000
  O   O44       1.0  0.95602  0.7821100000000001  0.33323  1.0000
  O   O45       1.0  0.67907  0.37403000000000003  0.67443  1.0000
  O   O46       1.0  0.32093  0.37403000000000003  0.32557  1.0000
  O   O47       1.0  0.17907000000000003  0.87403  0.67443  1.0000
  O   O48       1.0  0.82093  0.87403  0.32557  1.0000
  C   C21       1.0  0.7413  0.36613  0.64789  1.0000
  C   C22       1.0  0.26309  0.35487  0.35639  1.0000
  C   C23       1.0  0.24064  0.86485  0.64729  1.0000
  C   C24       1.0  0.76215  0.8578200000000001  0.35553  1.0000
  Cr  Cr1       1.0  0.76926  0.16375  0.75073  1.0000
  Cr  Cr2       1.0  0.23074  0.16375  0.24927000000000002  1.0000
  Cr  Cr3       1.0  0.26926  0.66375  0.75073  1.0000
  Cr  Cr4       1.0  0.73074  0.66375  0.24927000000000002  1.0000
  Cr  Cr5       1.0  0.61264  0.00991  0.74878  1.0000
  Cr  Cr6       1.0  0.38736  0.009910000000000002  0.25122  1.0000
  Cr  Cr7       1.0  0.11264  0.50991  0.74878  1.0000
  Cr  Cr8       1.0  0.88736  0.50991  0.25122  1.0000
  Cr  Cr9       1.0  0.61419  0.3224  0.74771  1.0000
  Cr  Cr10      1.0  0.38581  0.3224  0.25229  1.0000
  Cr  Cr11      1.0  0.11419  0.8224  0.74771  1.0000
  Cr  Cr12      1.0  0.88581  0.8224  0.25229  1.0000
  O   O49       1.0  0.66536  0.16535  0.74907  1.0000
  O   O50       1.0  0.33464  0.16535  0.25093  1.0000
  O   O51       1.0  0.16536  0.6653500000000001  0.74907  1.0000
  O   O52       1.0  0.83464  0.6653500000000001  0.25093  1.0000
  C   C25       1.0  0.50009  0.17021  0.92209  1.0000
  C   C26       1.0  0.50013  0.16915  0.07803  1.0000
  C   C27       1.0  0.003989999999999999  0.66394  0.92397  1.0000
  C   C28       1.0  0.005410000000000001  0.6665000000000001  0.08102  1.0000
  C   C29       1.0  0.49844  0.06553  0.03982  1.0000
  C   C30       1.0  0.50129  0.06599  0.95966  1.0000
  C   C31       1.0  0.00414  0.56411  0.0415  1.0000
  C   C32       1.0  0.02149  0.56707  0.96505  1.0000
  H   H1        1.0  0.51357  0.2548  0.054150000000000004  1.0000
  H   H2        1.0  0.48708  0.25613  0.9464900000000002  1.0000
  H   H3        1.0  0.02264  0.75026  0.05727  1.0000
  H   H4        1.0  0.97656  0.74075  0.9466400000000001  1.0000
  C   C33       1.0  0.74731  0.39392000000000005  0.08145  1.0000
  C   C34       1.0  0.25315  0.3944  0.91847  1.0000
  C   C35       1.0  0.26206  0.92804  0.07071  1.0000
  C   C36       1.0  0.73808  0.92807  0.9292400000000001  1.0000
  C   C37       1.0  0.68983  0.43984000000000006  0.0429  1.0000
  C   C38       1.0  0.30947  0.44158  0.9577399999999999  1.0000
  C   C39       1.0  0.2024  0.97314  0.03627  1.0000
  C   C40       1.0  0.79742  0.9726  0.964  1.0000
  C   C41       1.0  0.67903  0.40906  0.97214  1.0000
  C   C42       1.0  0.31999  0.41107000000000005  0.02855  1.0000
  C   C43       1.0  0.19532  0.96265  0.9632  1.0000
  C   C44       1.0  0.80437  0.96174  0.03707  1.0000
  C   C45       1.0  0.77706  0.27173  0.97767  1.0000
  C   C46       1.0  0.22386  0.27226  0.02183  1.0000
  C   C47       1.0  0.31431  0.8903100000000002  0.95534  1.0000
  C   C48       1.0  0.68583  0.88993  0.04439  1.0000
  C   C49       1.0  0.78734  0.29934  0.05007  1.0000
  C   C50       1.0  0.21423999999999999  0.29909  0.9492500000000001  1.0000
  C   C51       1.0  0.3185  0.8832700000000001  0.02918  1.0000
  C   C52       1.0  0.68185  0.8832700000000001  0.9705300000000001  1.0000
  C   C53       1.0  0.66641  0.56739  0.03098  1.0000
  C   C54       1.0  0.33075  0.56962  0.97013  1.0000
  C   C55       1.0  0.12838  0.9363  0.04841  1.0000
  C   C56       1.0  0.87174  0.9352200000000002  0.95196  1.0000
  C   C57       1.0  0.65422  0.53357  0.9536599999999998  1.0000
  C   C58       1.0  0.34267  0.53614  0.0475  1.0000
  C   C59       1.0  0.12101000000000002  0.92151  0.9686999999999999  1.0000
  C   C60       1.0  0.87895  0.92003  0.03164  1.0000
  C   C61       1.0  0.72651  0.33345  0.93677  1.0000
  C   C62       1.0  0.27322  0.33471  0.06333  1.0000
  C   C63       1.0  0.25038  0.9177600000000001  0.92182  1.0000
  C   C64       1.0  0.74945  0.91701  0.07816  1.0000
  H   H5        1.0  0.81218  0.20828000000000002  0.95204  1.0000
  H   H6        1.0  0.1893  0.20849000000000004  0.04702  1.0000
  H   H7        1.0  0.35808  0.85658  0.9245299999999999  1.0000
  H   H8        1.0  0.64218  0.85638  0.07497  1.0000
  H   H9        1.0  0.09604  0.01175  0.07009  1.0000
  H   H10       1.0  0.9037299999999999  0.010540000000000002  0.9307200000000001  1.0000
  H   H11       1.0  0.70973  0.63317  0.03851  1.0000
  H   H12       1.0  0.28648  0.63445  0.96227  1.0000
  H   H13       1.0  0.61716  0.58938  0.05974000000000001  1.0000
  H   H14       1.0  0.37994  0.59262  0.9419200000000001  1.0000
  H   H15       1.0  0.1254  0.85009  0.07845  1.0000
  H   H16       1.0  0.87553  0.8490900000000001  0.92163  1.0000
  H   H17       1.0  0.59785  0.53531  0.9379599999999999  1.0000
  H   H18       1.0  0.39886  0.53911  0.06378  1.0000
  H   H19       1.0  0.11471999999999999  0.8255800000000001  0.95242  1.0000
  H   H20       1.0  0.88587  0.8239400000000002  0.04757  1.0000
  H   H21       1.0  0.69004  0.58077  0.91659  1.0000
  H   H22       1.0  0.30577  0.5826200000000001  0.08428  1.0000
  H   H23       1.0  0.08299  0.98615  0.94435  1.0000
  H   H24       1.0  0.9165400000000001  0.9842800000000002  0.05636  1.0000
  C   C65       1.0  0.49149000000000004  0.16614999999999996  0.4275399999999999  1.0000
  C   C66       1.0  0.50289  0.17855  0.57427  1.0000
  C   C67       1.0  0.95966  0.67528  0.43604  1.0000
  C   C68       1.0  0.9920100000000001  0.6776300000000001  0.57971  1.0000
  C   C69       1.0  0.51393  0.27107  0.45975  1.0000
  C   C70       1.0  0.5191  0.27769  0.53152  1.0000
  C   C71       1.0  0.97697  0.78249  0.46979000000000004  1.0000
  C   C72       1.0  0.99154  0.78471  0.54037  1.0000
  C   C73       1.0  0.47161999999999993  0.07817  0.54383  1.0000
  C   C74       1.0  0.46633  0.0714  0.47008  1.0000
  C   C75       1.0  0.96821  0.57153  0.54863  1.0000
  C   C76       1.0  0.9530299999999999  0.56962  0.47607000000000005  1.0000
  C   C77       1.0  0.57862  0.34187  0.44713  1.0000
  C   C78       1.0  0.58482  0.3498  0.52708  1.0000
  C   C79       1.0  0.03337  0.8706500000000003  0.45198999999999995  1.0000
  C   C80       1.0  0.04917  0.8747600000000001  0.53041  1.0000
  H   H25       1.0  0.45536  0.005040000000000001  0.57703  1.0000
  H   H26       1.0  0.44305  0.9934300000000001  0.44612000000000007  1.0000
  H   H27       1.0  0.9683400000000001  0.49045  0.57945  1.0000
  H   H28       1.0  0.94098  0.48589  0.45031000000000004  1.0000
  H   H29       1.0  0.012529999999999998  0.9577700000000001  0.43102  1.0000
  H   H30       1.0  0.10178999999999999  0.83681  0.54386  1.0000
  H   H31       1.0  0.56717  0.43051  0.42159  1.0000
  H   H32       1.0  0.63125  0.29994  0.54833  1.0000
  H   H33       1.0  0.62119  0.28743  0.42214  1.0000
  H   H34       1.0  0.576  0.44250000000000006  0.548  1.0000
  H   H35       1.0  0.0765  0.8293100000000001  0.42036  1.0000
  H   H36       1.0  0.03622  0.9635100000000001  0.55516  1.0000
  C   C81       1.0  0.76585  0.4523  0.43243  1.0000
  C   C82       1.0  0.24378999999999998  0.39721000000000006  0.5801  1.0000
  C   C83       1.0  0.26358  0.9454100000000001  0.43076999999999993  1.0000
  C   C84       1.0  0.74413  0.89659  0.57957  1.0000
  C   C85       1.0  0.81786  0.39308000000000004  0.47003000000000006  1.0000
  C   C86       1.0  0.18665  0.37152  0.53534  1.0000
  C   C87       1.0  0.31828  0.89475  0.46938  1.0000
  C   C88       1.0  0.68713  0.86562  0.53562  1.0000
  C   C89       1.0  0.82003  0.3887  0.5426  1.0000
  C   C90       1.0  0.1941  0.3618  0.46333  1.0000
  C   C91       1.0  0.3184  0.8889800000000001  0.54198  1.0000
  C   C92       1.0  0.69377  0.85707  0.46312  1.0000
  C   C93       1.0  0.71665  0.51512  0.54726  1.0000
  C   C94       1.0  0.31884  0.39189  0.47709  1.0000
  C   C95       1.0  0.20982  0.00305  0.54403  1.0000
  C   C96       1.0  0.81578  0.91119  0.47461  1.0000
  C   C97       1.0  0.71865  0.52436  0.47217  1.0000
  C   C98       1.0  0.311  0.38798  0.55137  1.0000
  C   C99       1.0  0.21192  0.009740000000000002  0.46913  1.0000
  C   C100      1.0  0.81062  0.8975300000000002  0.54876  1.0000
  C   C101      1.0  0.85984  0.28295  0.45523  1.0000
  C   C102      1.0  0.11559  0.42952  0.52902  1.0000
  C   C103      1.0  0.36305  0.78658  0.45636  1.0000
  C   C104      1.0  0.61502  0.9199700000000001  0.53027  1.0000
  C   C105      1.0  0.86616  0.27629000000000004  0.5353  1.0000
  C   C106      1.0  0.12352999999999999  0.41791  0.44915  1.0000
  C   C107      1.0  0.36637  0.77873  0.53658  1.0000
  C   C108      1.0  0.62208  0.9090900000000001  0.45038  1.0000
  C   C109      1.0  0.76124  0.42913  0.58181  1.0000
  C   C110      1.0  0.25832  0.38344  0.43176000000000003  1.0000
  C   C111      1.0  0.25827  0.92549  0.5802  1.0000
  C   C112      1.0  0.75597  0.88941  0.43053  1.0000
  H   H37       1.0  0.68296  0.58598  0.44542  1.0000
  H   H38       1.0  0.35681  0.39221  0.58548  1.0000
  H   H39       1.0  0.17335  0.06483  0.44144  1.0000
  H   H40       1.0  0.8568899999999999  0.90613  0.58167  1.0000
  H   H41       1.0  0.90997  0.29954  0.42743  1.0000
  H   H42       1.0  0.11586000000000002  0.52487  0.54792  1.0000
  H   H43       1.0  0.41405  0.80588  0.43105  1.0000
  H   H44       1.0  0.61431  0.01523  0.54913  1.0000
  H   H45       1.0  0.82695  0.21136  0.4305899999999999  1.0000
  H   H46       1.0  0.07416  0.3716900000000001  0.55213  1.0000
  H   H47       1.0  0.33324  0.71254  0.43003  1.0000
  H   H48       1.0  0.57455  0.86075  0.55393  1.0000
  O   O53       1.0  0.49583999999999995  0.9579200000000001  0.07695  1.0000
  H   H49       1.0  0.52189  0.8953100000000002  0.05037  1.0000
  O   O54       1.0  0.50335  0.95866  0.92184  1.0000
  H   H50       1.0  0.47778  0.89629  0.9484100000000001  1.0000
  O   O55       1.0  0.9876299999999999  0.4526600000000001  0.06978  1.0000
  H   H51       1.0  0.01589  0.44265000000000004  0.11389  1.0000
  O   O56       1.0  0.05633  0.46876000000000007  0.93568  1.0000
  H   H52       1.0  0.07011  0.41175000000000006  0.97397  1.0000
  O   O57       1.0  0.66951  0.58698  0.58362  1.0000
  H   H53       1.0  0.68312  0.58769  0.63451  1.0000
  O   O58       1.0  0.38512  0.41184  0.45164  1.0000
  H   H54       1.0  0.38126  0.47718000000000005  0.41585  1.0000
  O   O59       1.0  0.15898  0.06938  0.5788  1.0000
  H   H55       1.0  0.17401  0.07998  0.6289  1.0000
  O   O60       1.0  0.87697  0.95888  0.44883  1.0000
  H   H56       1.0  0.86528  0.0113  0.40783  1.0000
  N   N1        1.0  0.83581  0.16775  0.56313  1.0000
  O   O61       1.0  0.87087  0.10732  0.61102  1.0000
  O   O62       1.0  0.77023  0.14406  0.54929  1.0000
  N   N2        1.0  0.0734  0.33429000000000003  0.41596  1.0000
  O   O63       1.0  0.03875  0.36593000000000003  0.35907  1.0000
  O   O64       1.0  0.0642  0.22653  0.44197999999999993  1.0000
  N   N3        1.0  0.33653  0.6676  0.56209  1.0000
  O   O65       1.0  0.37278  0.60118  0.60617  1.0000
  O   O66       1.0  0.27222  0.64016  0.54502  1.0000
  N   N4        1.0  0.57303  0.82317  0.41755  1.0000
  O   O67       1.0  0.5383  0.8525500000000001  0.36029  1.0000
  O   O68       1.0  0.56457  0.71588  0.44449  1.0000
  O   O69       1.0  0.93566  0.29195  0.55838  1.0000
  H   H57       1.0  0.93383  0.30351  0.61068  1.0000
  O   O70       1.0  0.12643  0.53113  0.41533  1.0000
  H   H58       1.0  0.14293  0.51606  0.3662  1.0000
  O   O71       1.0  0.43450999999999995  0.79755  0.5629  1.0000
  H   H59       1.0  0.43000999999999995  0.80967  0.61497  1.0000
  O   O72       1.0  0.62307  0.02235  0.41649  1.0000
  H   H60       1.0  0.63785  0.00791  0.36673  1.0000
  O   O73       1.0  0.83992  0.24236  0.08869  1.0000
  H   H61       1.0  0.86765  0.18957  0.056670000000000005  1.0000
  O   O74       1.0  0.16331  0.24048  0.90975  1.0000
  H   H62       1.0  0.13515  0.18891  0.9415500000000001  1.0000
  O   O75       1.0  0.37545  0.8268100000000002  0.06119  1.0000
  H   H63       1.0  0.40526  0.7879900000000001  0.02459  1.0000
  O   O76       1.0  0.62528  0.82724  0.93825  1.0000
  H   H64       1.0  0.59572  0.78827  0.97463  1.0000
