data_image0
_chemical_formula_structural       C60Cl6Cr6H30O26
_chemical_formula_sum              "C60 Cl6 Cr6 H30 O26"
_cell_length_a       11.03144
_cell_length_b       11.02951
_cell_length_c       18.83167
_cell_angle_alpha    89.91047
_cell_angle_beta     90.27177
_cell_angle_gamma    120.14131999999998

_space_group_name_H-M_alt    "P 1"
_space_group_IT_number       1

loop_
  _space_group_symop_operation_xyz
  'x, y, z'

loop_
  _atom_site_type_symbol
  _atom_site_label
  _atom_site_symmetry_multiplicity
  _atom_site_fract_x
  _atom_site_fract_y
  _atom_site_fract_z
  _atom_site_occupancy
  C   C1        1.0  0.51917  0.45777  0.14733  1.0000
  C   C2        1.0  0.84449  0.60652  0.47216  1.0000
  C   C3        1.0  0.76257  0.15509  0.47299  1.0000
  C   C4        1.0  0.39265  0.23744000000000007  0.47262  1.0000
  C   C5        1.0  0.51762  0.45808  0.35284  1.0000
  C   C6        1.0  0.54205  0.05943  0.3528  1.0000
  C   C7        1.0  0.9407200000000001  0.4827  0.35281  1.0000
  C   C8        1.0  0.45702000000000004  0.52275  0.64504  1.0000
  C   C9        1.0  0.06538000000000001  0.5427  0.6450900000000002  1.0000
  C   C10       1.0  0.47714000000000006  0.93433  0.64502  1.0000
  C   C11       1.0  0.50168  0.9791  0.9271200000000002  1.0000
  C   C12       1.0  0.54134  0.06187  0.14747  1.0000
  C   C13       1.0  0.042420000000000034  0.52899  0.93089  1.0000
  C   C14       1.0  0.44653000000000015  0.5362600000000001  0.93581  1.0000
  C   C15       1.0  0.004890000000000034  0.50145  0.07863  1.0000
  C   C16       1.0  0.5033900000000001  0.00971  0.07551  1.0000
  C   C17       1.0  0.49042000000000013  0.5068200000000002  0.08081  1.0000
  C   C18       1.0  0.4542500000000001  0.06278000000000002  0.9571  1.0000
  C   C19       1.0  0.9958200000000001  0.39982  0.9631700000000001  1.0000
  C   C20       1.0  0.57902  0.61615  0.9667100000000001  1.0000
  C   C21       1.0  0.9767500000000001  0.38602000000000003  0.03588  1.0000
  C   C22       1.0  0.4549000000000001  0.07717  0.02981  1.0000
  C   C23       1.0  0.93736  0.4798400000000001  0.14727  1.0000
  C   C24       1.0  0.60081  0.60136  0.0378  1.0000
  C   C25       1.0  0.5641700000000001  0.9372000000000001  0.04537  1.0000
  C   C26       1.0  0.07348999999999999  0.63508  0.04802  1.0000
  C   C27       1.0  0.35355000000000003  0.44136  0.052640000000000006  1.0000
  C   C28       1.0  0.09208999999999999  0.64847  0.9746700000000001  1.0000
  C   C29       1.0  0.5653600000000001  0.92422  0.97201  1.0000
  C   C30       1.0  0.33240000000000003  0.45425  0.9803300000000001  1.0000
  C   C31       1.0  0.32461  0.07104  0.9472  1.0000
  C   C32       1.0  0.8668800000000001  0.26352  0.94815  1.0000
  C   C33       1.0  0.71565  0.62993  0.9455200000000001  1.0000
  C   C34       1.0  0.4230500000000001  0.5451500000000001  0.8601400000000001  1.0000
  C   C35       1.0  0.8448900000000001  0.24834000000000003  0.02776  1.0000
  C   C36       1.0  0.32091000000000003  0.08010000000000003  0.027820000000000004  1.0000
  C   C37       1.0  0.7395200000000002  0.6130700000000001  0.023440000000000003  1.0000
  C   C38       1.0  0.4837  0.97735  0.57163  1.0000
  C   C39       1.0  0.022229999999999993  0.50612  0.57174  1.0000
  C   C40       1.0  0.49325  0.51617  0.57174  1.0000
  C   C41       1.0  0.0008000000000000004  0.50879  0.42336  1.0000
  C   C42       1.0  0.5078800000000002  0.9991500000000001  0.42321000000000003  1.0000
  C   C43       1.0  0.4919800000000001  0.49211  0.42331000000000013  1.0000
  C   C44       1.0  0.60845  0.01673  0.53877  1.0000
  C   C45       1.0  0.071  0.54795  0.8552500000000001  1.0000
  C   C46       1.0  0.9827900000000005  0.5913200000000001  0.53855  1.0000
  C   C47       1.0  0.40779000000000004  0.39132  0.53845  1.0000
  C   C48       1.0  0.9726800000000001  0.59378  0.46685000000000004  1.0000
  C   C49       1.0  0.62105  0.027  0.46707  1.0000
  C   C50       1.0  0.4062600000000001  0.37878  0.46676  1.0000
  C   C51       1.0  0.37428000000000006  0.94312  0.45362  1.0000
  C   C52       1.0  0.0569  0.43149  0.45416000000000006  1.0000
  C   C53       1.0  0.56942  0.62574  0.4541  1.0000
  C   C54       1.0  0.06208000000000003  0.42484  0.52899  1.0000
  C   C55       1.0  0.36247  0.9377  0.5284600000000002  1.0000
  C   C56       1.0  0.4802400000000002  0.9351200000000001  0.85352  1.0000
  C   C57       1.0  0.57547  0.63752  0.52897  1.0000
  C   C58       1.0  0.74658  0.14229  0.55269  1.0000
  C   C59       1.0  0.85721  0.6032700000000002  0.55191  1.0000
  C   C60       1.0  0.39497  0.2533200000000001  0.5523300000000001  1.0000
  Cl  Cl1       1.0  0.22514  0.88968  0.39897  1.0000
  Cl  Cl2       1.0  0.11022000000000001  0.33607000000000004  0.39998000000000006  1.0000
  Cl  Cl3       1.0  0.66521  0.77497  0.39991  1.0000
  Cl  Cl4       1.0  0.09695000000000004  0.29866000000000004  0.56612  1.0000
  Cl  Cl5       1.0  0.20145000000000007  0.9025900000000001  0.56522  1.0000
  Cl  Cl6       1.0  0.70179  0.7988  0.5663000000000001  1.0000
  Cr  Cr1       1.0  0.76916  0.54157  0.25069  1.0000
  Cr  Cr2       1.0  0.45843  0.22759000000000001  0.25069  1.0000
  Cr  Cr3       1.0  0.77241  0.23084000000000002  0.25069  1.0000
  Cr  Cr4       1.0  0.5415700000000002  0.7691600000000002  0.74931  1.0000
  Cr  Cr5       1.0  0.22759000000000004  0.45843  0.74931  1.0000
  Cr  Cr6       1.0  0.23084000000000005  0.77241  0.74931  1.0000
  H   H1        1.0  0.6142400000000002  0.8941500000000001  0.07831  1.0000
  H   H2        1.0  0.75181  0.25407  0.04494  1.0000
  H   H3        1.0  0.33505000000000007  0.18156  0.04665  1.0000
  H   H4        1.0  0.74  0.51432  0.03488  1.0000
  H   H5        1.0  0.34681  0.16997  0.9204  1.0000
  H   H6        1.0  0.7854200000000002  0.27582  0.91937  1.0000
  H   H7        1.0  0.7027100000000002  0.54126  0.91194  1.0000
  H   H8        1.0  0.8549900000000002  0.16080000000000003  0.05054  1.0000
  H   H9        1.0  0.23239000000000015  0.98571  0.05249  1.0000
  H   H10       1.0  0.8279300000000002  0.70924  0.04724  1.0000
  H   H11       1.0  0.8179500000000001  0.11312  0.57951  1.0000
  H   H12       1.0  0.10182000000000013  0.7275900000000002  0.07961000000000001  1.0000
  H   H13       1.0  0.8862900000000001  0.70392  0.5785  1.0000
  H   H14       1.0  0.29389  0.18158  0.57843  1.0000
  H   H15       1.0  0.7500400000000002  0.5123700000000001  0.45103  1.0000
  H   H16       1.0  0.7633900000000002  0.24963  0.45196  1.0000
  H   H17       1.0  0.48673  0.23695000000000013  0.45225  1.0000
  H   H18       1.0  0.7383900000000001  0.2291  0.57784  1.0000
  H   H19       1.0  0.77041  0.50784  0.57696  1.0000
  H   H20       1.0  0.48984000000000005  0.26177  0.57817  1.0000
  H   H21       1.0  0.8643600000000001  0.70936  0.45182  1.0000
  H   H22       1.0  0.84542  0.13521000000000002  0.45289000000000007  1.0000
  H   H23       1.0  0.2646  0.36985  0.08457000000000002  1.0000
  H   H24       1.0  0.2898900000000001  0.15439000000000003  0.45183  1.0000
  H   H25       1.0  0.14156000000000002  0.75204  0.9520800000000001  1.0000
  H   H26       1.0  0.6119300000000002  0.8664700000000001  0.9505600000000001  1.0000
  H   H27       1.0  0.2283700000000001  0.39327000000000006  0.9582600000000001  1.0000
  H   H28       1.0  0.23565000000000005  0.97523  0.92413  1.0000
  H   H29       1.0  0.89103  0.18548  0.9249200000000001  1.0000
  H   H30       1.0  0.7898600000000001  0.73607  0.92455  1.0000
  O   O1        1.0  0.9114800000000001  0.57265  0.17099  1.0000
  O   O2        1.0  0.52897  0.64034  0.82432  1.0000
  O   O3        1.0  0.11137000000000007  0.47103  0.82432  1.0000
  O   O4        1.0  0.35966000000000004  0.8886300000000001  0.82432  1.0000
  O   O5        1.0  0.9099800000000002  0.57245  0.33153  1.0000
  O   O6        1.0  0.4275500000000001  0.3375300000000001  0.33153  1.0000
  O   O7        1.0  0.66247  0.09002000000000002  0.33153  1.0000
  O   O8        1.0  0.5724500000000001  0.9099800000000001  0.66847  1.0000
  O   O9        1.0  0.3375300000000001  0.42755  0.66847  1.0000
  O   O10       1.0  0.09002000000000002  0.66247  0.66847  1.0000
  O   O11       1.0  0.6389500000000001  0.52878  0.3245  1.0000
  O   O12       1.0  0.42735  0.33883  0.17099  1.0000
  O   O13       1.0  0.47122  0.11017000000000002  0.3245  1.0000
  O   O14       1.0  0.88983  0.36105  0.3245  1.0000
  O   O15       1.0  0.52878  0.63895  0.6755  1.0000
  O   O16       1.0  0.11017000000000002  0.47122  0.6755  1.0000
  O   O17       1.0  0.36105000000000004  0.8898300000000001  0.6755  1.0000
  O   O18       1.0  0.66667  0.33333  0.25056000000000006  1.0000
  O   O19       1.0  0.33333  0.66667  0.7494400000000001  1.0000
  O   O20       1.0  0.6611700000000001  0.08852000000000003  0.17099  1.0000
  O   O21       1.0  0.5726500000000001  0.91148  0.82901  1.0000
  O   O22       1.0  0.33883  0.42735  0.82901  1.0000
  O   O23       1.0  0.08852000000000006  0.66117  0.82901  1.0000
  O   O24       1.0  0.6403399999999999  0.52897  0.17568  1.0000
  O   O25       1.0  0.47103  0.11137000000000001  0.17568  1.0000
  O   O26       1.0  0.8886300000000001  0.35966  0.17568  1.0000
