data_image0
_chemical_formula_structural       C124Cr12H68O52C2H5C2H5C2H5C2H5
_chemical_formula_sum              "C132 Cr12 H88 O52"
_cell_length_a       19.15815
_cell_length_b       11.019020000000001
_cell_length_c       18.79249
_cell_angle_alpha    89.92906
_cell_angle_beta     90.08137999999998
_cell_angle_gamma    89.97014000000001

_symmetry_space_group_name_H-M    'P 1'
_symmetry_Int_Tables_number       1

loop_
  _symmetry_equiv_pos_as_xyz
  'x,y,z'

loop_
  _atom_site_type_symbol
  _atom_site_label
  _atom_site_symmetry_multiplicity
  _atom_site_fract_x
  _atom_site_fract_y
  _atom_site_fract_z
  _atom_site_occupancy
  C   C1        1.0  0.72593  0.36729  0.14204  1.0000
  C   C2        1.0  0.27409  0.36714  0.8579800000000001  1.0000
  C   C3        1.0  0.22593  0.86729  0.14204  1.0000
  C   C4        1.0  0.77409  0.8671399999999999  0.8579800000000001  1.0000
  C   C5        1.0  0.5103099999999999  0.38494999999999996  0.92657  1.0000
  C   C6        1.0  0.48979  0.38507  0.07295000000000001  1.0000
  C   C7        1.0  0.01031  0.88495  0.92657  1.0000
  C   C8        1.0  0.98979  0.88507  0.07295000000000001  1.0000
  C   C9        1.0  0.00606  0.9941899999999998  0.9632600000000001  1.0000
  C   C10       1.0  0.99392  0.99425  0.03602  1.0000
  C   C11       1.0  0.50606  0.4941899999999999  0.9632600000000001  1.0000
  C   C12       1.0  0.49392  0.49424999999999997  0.03602  1.0000
  C   C13       1.0  0.76316  0.89074  0.9335900000000001  1.0000
  C   C14       1.0  0.23686  0.8909299999999999  0.06643  1.0000
  C   C15       1.0  0.26316  0.39074  0.9335900000000001  1.0000
  C   C16       1.0  0.73686  0.39093  0.06643  1.0000
  C   C17       1.0  0.70602  0.84323  0.97042  1.0000
  C   C18       1.0  0.29402  0.84333  0.029690000000000005  1.0000
  C   C19       1.0  0.20602  0.34323  0.97042  1.0000
  C   C20       1.0  0.79402  0.34333  0.029690000000000005  1.0000
  C   C21       1.0  0.70245  0.85006  0.04494  1.0000
  C   C22       1.0  0.29759  0.85001  0.9551700000000002  1.0000
  C   C23       1.0  0.20244999999999996  0.35006  0.04494  1.0000
  C   C24       1.0  0.79759  0.35001  0.9551700000000002  1.0000
  C   C25       1.0  0.81833  0.9330999999999999  0.04705  1.0000
  C   C26       1.0  0.18164  0.93302  0.95291  1.0000
  C   C27       1.0  0.31833  0.4331  0.04705  1.0000
  C   C28       1.0  0.68164  0.4330099999999999  0.95291  1.0000
  C   C29       1.0  0.82055  0.93119  0.97351  1.0000
  C   C30       1.0  0.17943  0.93129  0.02645  1.0000
  C   C31       1.0  0.32055  0.43119  0.97351  1.0000
  C   C32       1.0  0.67943  0.43128  0.02645  1.0000
  C   C33       1.0  0.68606  0.7134599999999999  0.9699000000000001  1.0000
  C   C34       1.0  0.31404  0.71355  0.03045  1.0000
  C   C35       1.0  0.18606  0.21346  0.9699000000000001  1.0000
  C   C36       1.0  0.81404  0.21355  0.03045  1.0000
  C   C37       1.0  0.68473  0.7182299999999999  0.04967000000000001  1.0000
  C   C38       1.0  0.31537  0.7182  0.9506700000000002  1.0000
  C   C39       1.0  0.18473  0.21823999999999996  0.04967000000000001  1.0000
  C   C40       1.0  0.81537  0.2182  0.9506700000000002  1.0000
  C   C41       1.0  0.75699  0.90313  0.08291  1.0000
  C   C42       1.0  0.24301  0.90299  0.91712  1.0000
  C   C43       1.0  0.25699  0.40313  0.08291  1.0000
  C   C44       1.0  0.74301  0.40299  0.91712  1.0000
  C   C45       1.0  0.53058  0.15504  0.14703  1.0000
  C   C46       1.0  0.46943999999999997  0.15495  0.8529500000000001  1.0000
  C   C47       1.0  0.03058  0.65504  0.14703  1.0000
  C   C48       1.0  0.9694399999999999  0.6549499999999999  0.8529500000000001  1.0000
  C   C49       1.0  0.50463  0.16312  0.57921  1.0000
  C   C50       1.0  0.51835  0.16296  0.43044  1.0000
  C   C51       1.0  0.00463  0.66311  0.57921  1.0000
  C   C52       1.0  0.01836  0.66296  0.43044  1.0000
  C   C53       1.0  0.51863  0.05546999999999999  0.54221  1.0000
  C   C54       1.0  0.52484  0.05617  0.46964  1.0000
  C   C55       1.0  0.01857  0.5554399999999999  0.5422  1.0000
  C   C56       1.0  0.024789999999999996  0.55616  0.46963000000000005  1.0000
  C   C57       1.0  0.51629  0.27349  0.46779  1.0000
  C   C58       1.0  0.51113  0.27358  0.5423200000000001  1.0000
  C   C59       1.0  0.01636  0.7734899999999999  0.4678  1.0000
  C   C60       1.0  0.01117  0.77356  0.54234  1.0000
  C   C61       1.0  0.48144  0.93555  0.54063  1.0000
  C   C62       1.0  0.48788  0.9381699999999997  0.46054000000000006  1.0000
  C   C63       1.0  0.9812899999999999  0.43562999999999996  0.54059  1.0000
  C   C64       1.0  0.9877699999999999  0.4382299999999999  0.46051000000000003  1.0000
  C   C65       1.0  0.74924  0.9342799999999999  0.5810300000000002  1.0000
  C   C66       1.0  0.25152  0.9225  0.42138  1.0000
  C   C67       1.0  0.24923  0.4343099999999999  0.5810400000000001  1.0000
  C   C68       1.0  0.75151  0.42247  0.42139  1.0000
  C   C69       1.0  0.79724  0.0066099999999999996  0.5439500000000002  1.0000
  C   C70       1.0  0.21509999999999999  0.01647  0.4546300000000001  1.0000
  C   C71       1.0  0.29722  0.50665  0.54396  1.0000
  C   C72       1.0  0.71509  0.51644  0.45464000000000004  1.0000
  C   C73       1.0  0.79402  0.01569  0.47130000000000005  1.0000
  C   C74       1.0  0.21541  0.025529999999999997  0.5274500000000002  1.0000
  C   C75       1.0  0.294  0.51573  0.47132  1.0000
  C   C76       1.0  0.71541  0.52551  0.5274600000000002  1.0000
  C   C77       1.0  0.68698  0.90243  0.4701900000000001  1.0000
  C   C78       1.0  0.29761  0.8614199999999999  0.53697  1.0000
  C   C79       1.0  0.18696  0.40252  0.47020000000000006  1.0000
  C   C80       1.0  0.79758  0.36137  0.5369900000000001  1.0000
  C   C81       1.0  0.68968  0.89367  0.54462  1.0000
  C   C82       1.0  0.29759  0.85145  0.46279000000000003  1.0000
  C   C83       1.0  0.18966999999999998  0.39372999999999997  0.54463  1.0000
  C   C84       1.0  0.79756  0.3514  0.46280000000000004  1.0000
  C   C85       1.0  0.8755  0.0035899999999999986  0.5420800000000002  1.0000
  C   C86       1.0  0.14018  0.05519999999999999  0.45043000000000005  1.0000
  C   C87       1.0  0.37547  0.50369  0.5420900000000002  1.0000
  C   C88       1.0  0.64014  0.55509  0.45045  1.0000
  C   C89       1.0  0.74257  0.96547  0.14954  1.0000
  C   C90       1.0  0.25744  0.9653899999999999  0.8504600000000002  1.0000
  C   C91       1.0  0.24257  0.46547  0.14954  1.0000
  C   C92       1.0  0.75744  0.46538999999999997  0.8504600000000002  1.0000
  C   C93       1.0  0.87121  0.01363  0.46212000000000003  1.0000
  C   C94       1.0  0.14033  0.06063  0.5307800000000001  1.0000
  C   C95       1.0  0.37119  0.5137  0.46213  1.0000
  C   C96       1.0  0.6402999999999999  0.56053  0.5307900000000001  1.0000
  C   C97       1.0  0.74308  0.9546499999999998  0.43262000000000006  1.0000
  C   C98       1.0  0.25269  0.94427  0.57008  1.0000
  C   C99       1.0  0.24304999999999996  0.45471  0.43263  1.0000
  C   C100      1.0  0.75268  0.44425999999999993  0.57008  1.0000
  C   C101      1.0  0.72984  0.3783599999999999  0.35217  1.0000
  C   C102      1.0  0.26997  0.38053  0.64853  1.0000
  C   C103      1.0  0.22985  0.87836  0.35217  1.0000
  C   C104      1.0  0.7699699999999999  0.88053  0.64853  1.0000
  C   C105      1.0  0.53511  0.15676999999999996  0.35519  1.0000
  C   C106      1.0  0.46857000000000004  0.15673  0.64721  1.0000
  C   C107      1.0  0.03512  0.65677  0.35519  1.0000
  C   C108      1.0  0.96857  0.65673  0.64721  1.0000
  C   C109      1.0  0.73956  0.9780599999999999  0.35680000000000006  1.0000
  C   C110      1.0  0.25898  0.97387  0.6447700000000001  1.0000
  C   C111      1.0  0.23954999999999999  0.47808999999999996  0.35680000000000006  1.0000
  C   C112      1.0  0.75898  0.4738599999999999  0.6447700000000001  1.0000
  C   C113      1.0  0.50105  0.16142  0.92496  1.0000
  C   C114      1.0  0.49901999999999996  0.16156  0.07498000000000003  1.0000
  C   C115      1.0  0.00105  0.6614199999999999  0.92496  1.0000
  C   C116      1.0  0.9990199999999999  0.66156  0.07498000000000003  1.0000
  C   C117      1.0  0.50245  0.27296  0.9622900000000002  1.0000
  C   C118      1.0  0.49768  0.27302  0.03745  1.0000
  C   C119      1.0  0.0024500000000000004  0.77295  0.9622900000000002  1.0000
  C   C120      1.0  0.9976799999999999  0.7730199999999999  0.03745  1.0000
  C   C121      1.0  0.49372  0.05125  0.03681  1.0000
  C   C122      1.0  0.5063  0.05117  0.96332  1.0000
  C   C123      1.0  0.9937199999999999  0.55125  0.03681  1.0000
  C   C124      1.0  0.0063  0.5511699999999999  0.96332  1.0000
  Cr  Cr1       1.0  0.77201  0.16967  0.25009  1.0000
  Cr  Cr2       1.0  0.22799  0.16967  0.7499100000000001  1.0000
  Cr  Cr3       1.0  0.27201  0.66967  0.25009  1.0000
  Cr  Cr4       1.0  0.72799  0.66967  0.7499100000000001  1.0000
  Cr  Cr5       1.0  0.615  0.32326  0.24926  1.0000
  Cr  Cr6       1.0  0.385  0.32326  0.75074  1.0000
  Cr  Cr7       1.0  0.115  0.8232599999999998  0.24926  1.0000
  Cr  Cr8       1.0  0.885  0.8232599999999998  0.75074  1.0000
  Cr  Cr9       1.0  0.61671  0.01076  0.25084000000000006  1.0000
  Cr  Cr10      1.0  0.3832900000000001  0.01076  0.74916  1.0000
  Cr  Cr11      1.0  0.11671  0.5107599999999999  0.25084000000000006  1.0000
  Cr  Cr12      1.0  0.8832899999999999  0.5107599999999999  0.74916  1.0000
  H   H1        1.0  0.51567  0.35866  0.43942  1.0000
  H   H2        1.0  0.50641  0.35891  0.57016  1.0000
  H   H3        1.0  0.01579  0.85867  0.43944  1.0000
  H   H4        1.0  0.00648  0.8588999999999999  0.57018  1.0000
  H   H5        1.0  0.92643  0.4422499999999999  0.55844  1.0000
  H   H6        1.0  0.021859999999999997  0.36533  0.43933  1.0000
  H   H7        1.0  0.42656999999999995  0.9420199999999999  0.5585000000000002  1.0000
  H   H8        1.0  0.52199  0.86531  0.43934  1.0000
  H   H9        1.0  0.51247  0.86186  0.5659  1.0000
  H   H10       1.0  0.43697  0.94847  0.43267  1.0000
  H   H11       1.0  0.01225  0.36186000000000007  0.5658700000000001  1.0000
  H   H12       1.0  0.9368899999999999  0.4486199999999999  0.43262000000000006  1.0000
  H   H13       1.0  0.64268  0.86525  0.44215  1.0000
  H   H14       1.0  0.331  0.80256  0.5682600000000001  1.0000
  H   H15       1.0  0.14265  0.36538  0.44217000000000006  1.0000
  H   H16       1.0  0.83098  0.30251  0.56827  1.0000
  H   H17       1.0  0.6484  0.84759  0.57284  1.0000
  H   H18       1.0  0.32872  0.7808499999999999  0.43873  1.0000
  H   H19       1.0  0.14839  0.34767  0.57286  1.0000
  H   H20       1.0  0.82868  0.28077  0.4387400000000001  1.0000
  H   H21       1.0  0.89619  0.9147099999999999  0.5594200000000003  1.0000
  H   H22       1.0  0.10464  0.9846699999999998  0.42983  1.0000
  H   H23       1.0  0.39619  0.41483  0.55944  1.0000
  H   H24       1.0  0.60462  0.48452  0.42985  1.0000
  H   H25       1.0  0.8993799999999998  0.08434  0.56784  1.0000
  H   H26       1.0  0.13416  0.14555  0.42487  1.0000
  H   H27       1.0  0.39933  0.58446  0.56784  1.0000
  H   H28       1.0  0.63409  0.64543  0.4248900000000001  1.0000
  H   H29       1.0  0.89237  0.10043  0.44132000000000005  1.0000
  H   H30       1.0  0.13217  0.15291999999999997  0.55197  1.0000
  H   H31       1.0  0.39234  0.60051  0.44132000000000005  1.0000
  H   H32       1.0  0.6321  0.65281  0.55198  1.0000
  H   H33       1.0  0.88959  0.93093  0.43393  1.0000
  H   H34       1.0  0.10762  0.98946  0.5560400000000001  1.0000
  H   H35       1.0  0.38958  0.4309999999999999  0.43395  1.0000
  H   H36       1.0  0.60763  0.4893  0.55606  1.0000
  H   H37       1.0  0.52311  0.38956999999999997  0.8706300000000001  1.0000
  H   H38       1.0  0.47703  0.38978  0.12888  1.0000
  H   H39       1.0  0.02312  0.88957  0.8706300000000001  1.0000
  H   H40       1.0  0.97703  0.88978  0.12888  1.0000
  H   H41       1.0  0.01249  0.07829  0.9347100000000002  1.0000
  H   H42       1.0  0.9873799999999999  0.07838  0.06439  1.0000
  H   H43       1.0  0.51249  0.57829  0.9347100000000002  1.0000
  H   H44       1.0  0.48738  0.57838  0.06439  1.0000
  H   H45       1.0  0.8613799999999999  0.97328  0.0754  1.0000
  H   H46       1.0  0.13859  0.9732099999999998  0.92449  1.0000
  H   H47       1.0  0.36138  0.47328  0.0754  1.0000
  H   H48       1.0  0.63859  0.4732099999999999  0.92449  1.0000
  H   H49       1.0  0.86773  0.9618799999999998  0.9479700000000002  1.0000
  H   H50       1.0  0.13224  0.96204  0.051940000000000014  1.0000
  H   H51       1.0  0.36773  0.46187999999999996  0.9479700000000002  1.0000
  H   H52       1.0  0.63224  0.46204  0.051940000000000014  1.0000
  H   H53       1.0  0.22923  0.15648  0.94939  1.0000
  H   H54       1.0  0.77087  0.15664999999999998  0.05103000000000001  1.0000
  H   H55       1.0  0.72923  0.6564799999999998  0.94939  1.0000
  H   H56       1.0  0.27087  0.65665  0.05103000000000001  1.0000
  H   H57       1.0  0.63399  0.69831  0.94534  1.0000
  H   H58       1.0  0.36611  0.69838  0.055040000000000006  1.0000
  H   H59       1.0  0.13399  0.19830999999999996  0.94534  1.0000
  H   H60       1.0  0.86611  0.19838  0.055040000000000006  1.0000
  H   H61       1.0  0.63258  0.69999  0.07244  1.0000
  H   H62       1.0  0.36752  0.69991  0.92793  1.0000
  H   H63       1.0  0.13258  0.19999  0.07244  1.0000
  H   H64       1.0  0.86752  0.19991  0.92793  1.0000
  H   H65       1.0  0.72718  0.66414  0.07487  1.0000
  H   H66       1.0  0.27294  0.66411  0.92557  1.0000
  H   H67       1.0  0.22717999999999997  0.16413999999999998  0.07487  1.0000
  H   H68       1.0  0.77294  0.16411  0.92557  1.0000
  O   O1        1.0  0.78752  0.04280999999999999  0.17044000000000006  1.0000
  O   O2        1.0  0.21247999999999997  0.042809999999999994  0.8295600000000002  1.0000
  O   O3        1.0  0.28752  0.54281  0.17044000000000006  1.0000
  O   O4        1.0  0.71248  0.54281  0.8295600000000002  1.0000
  O   O5        1.0  0.5566099999999999  0.25288  0.32398  1.0000
  O   O6        1.0  0.44339  0.25288  0.67602  1.0000
  O   O7        1.0  0.05661000000000001  0.75288  0.32398  1.0000
  O   O8        1.0  0.9433899999999998  0.75288  0.67602  1.0000
  O   O9        1.0  0.54595  0.05120999999999999  0.33086000000000004  1.0000
  O   O10       1.0  0.45405  0.05120999999999999  0.6691400000000002  1.0000
  O   O11       1.0  0.04595  0.55121  0.33086000000000004  1.0000
  O   O12       1.0  0.9540500000000001  0.55121  0.6691400000000002  1.0000
  O   O13       1.0  0.68139  0.9594799999999999  0.32551000000000013  1.0000
  O   O14       1.0  0.31861  0.9594799999999999  0.6744900000000001  1.0000
  O   O15       1.0  0.18139  0.45948  0.32551000000000013  1.0000
  O   O16       1.0  0.8186099999999998  0.45948  0.6744900000000001  1.0000
  O   O17       1.0  0.6679  0.16789999999999997  0.2500600000000001  1.0000
  O   O18       1.0  0.3321  0.16789999999999997  0.74994  1.0000
  O   O19       1.0  0.1679  0.6678999999999999  0.2500600000000001  1.0000
  O   O20       1.0  0.8321  0.6678999999999999  0.74994  1.0000
  O   O21       1.0  0.76564  0.29209999999999997  0.17502  1.0000
  O   O22       1.0  0.23436  0.29209999999999997  0.8249800000000003  1.0000
  O   O23       1.0  0.26564  0.7921  0.17502  1.0000
  O   O24       1.0  0.73436  0.7921  0.8249800000000003  1.0000
  O   O25       1.0  0.67019  0.40884  0.16854  1.0000
  O   O26       1.0  0.32980999999999994  0.40884  0.83146  1.0000
  O   O27       1.0  0.17019  0.90884  0.16854  1.0000
  O   O28       1.0  0.82981  0.90884  0.83146  1.0000
  O   O29       1.0  0.55662  0.25141  0.17516000000000007  1.0000
  O   O30       1.0  0.44338  0.25141  0.8248400000000002  1.0000
  O   O31       1.0  0.05661999999999999  0.7514099999999999  0.17516000000000007  1.0000
  O   O32       1.0  0.94338  0.7514099999999999  0.8248400000000002  1.0000
  O   O33       1.0  0.54596  0.04962  0.17032  1.0000
  O   O34       1.0  0.45404  0.04962  0.82968  1.0000
  O   O35       1.0  0.04596  0.54962  0.17032  1.0000
  O   O36       1.0  0.95404  0.54962  0.82968  1.0000
  O   O37       1.0  0.68139  0.95801  0.17669000000000007  1.0000
  O   O38       1.0  0.31861  0.95801  0.8233100000000001  1.0000
  O   O39       1.0  0.18139  0.4580099999999999  0.17669000000000007  1.0000
  O   O40       1.0  0.8186099999999998  0.4580099999999999  0.8233100000000001  1.0000
  O   O41       1.0  0.78751  0.04438999999999999  0.3309700000000001  1.0000
  O   O42       1.0  0.21248999999999998  0.04439  0.66903  1.0000
  O   O43       1.0  0.28751  0.54439  0.3309700000000001  1.0000
  O   O44       1.0  0.71249  0.54439  0.66903  1.0000
  O   O45       1.0  0.76563  0.29356999999999994  0.32384  1.0000
  O   O46       1.0  0.23437  0.29356999999999994  0.67616  1.0000
  O   O47       1.0  0.26563  0.7935699999999999  0.32384  1.0000
  O   O48       1.0  0.73437  0.7935699999999999  0.67616  1.0000
  O   O49       1.0  0.67019  0.41042  0.32908000000000004  1.0000
  O   O50       1.0  0.32980999999999994  0.41042  0.6709200000000002  1.0000
  O   O51       1.0  0.17019  0.9104199999999999  0.32908000000000004  1.0000
  O   O52       1.0  0.82981  0.9104199999999999  0.6709200000000002  1.0000
  C   C125      1.0  0.46371  0.9384899999999998  0.07245  1.0000
  C   C126      1.0  0.5179  0.84259  0.0932  1.0000
  H   H69       1.0  0.52014  0.76993  0.05333000000000001  1.0000
  H   H70       1.0  0.5709  0.8814899999999999  0.09719  1.0000
  H   H71       1.0  0.50376  0.80052  0.14493000000000003  1.0000
  H   H72       1.0  0.43352  0.96505  0.12049  1.0000
  H   H73       1.0  0.4249899999999999  0.89716  0.03655  1.0000
  C   C127      1.0  0.53627  0.9383199999999999  0.92788  1.0000
  C   C128      1.0  0.48205000000000003  0.8425599999999999  0.9072900000000002  1.0000
  H   H74       1.0  0.47979  0.76993  0.9472900000000001  1.0000
  H   H75       1.0  0.42907999999999996  0.88164  0.90321  1.0000
  H   H76       1.0  0.49618999999999996  0.8003999999999999  0.85563  1.0000
  H   H77       1.0  0.56647  0.96475  0.87979  1.0000
  H   H78       1.0  0.57496  0.89689  0.96385  1.0000
  C   C129      1.0  0.9637100000000001  0.4385  0.07245  1.0000
  C   C130      1.0  0.0179  0.34259  0.0932  1.0000
  H   H79       1.0  0.02014  0.26993  0.05333000000000001  1.0000
  H   H80       1.0  0.07089  0.38149  0.09719  1.0000
  H   H81       1.0  0.00376  0.30052  0.14493000000000003  1.0000
  H   H82       1.0  0.93352  0.46504999999999996  0.12049  1.0000
  H   H83       1.0  0.92499  0.39716  0.03655  1.0000
  C   C131      1.0  0.03627  0.43832  0.92788  1.0000
  C   C132      1.0  0.98205  0.34256  0.9072900000000002  1.0000
  H   H84       1.0  0.97979  0.26993  0.9472900000000001  1.0000
  H   H85       1.0  0.92908  0.38164  0.90321  1.0000
  H   H86       1.0  0.9961899999999999  0.3004  0.85563  1.0000
  H   H87       1.0  0.06646  0.46475  0.87979  1.0000
  H   H88       1.0  0.07497  0.39688999999999997  0.96385  1.0000
