data_image0
_chemical_formula_structural       C144Cl8Cr12H72O52
_chemical_formula_sum              "C144 Cl8 Cr12 H72 O52"
_cell_length_a       10.87516
_cell_length_b       19.36968
_cell_length_c       18.77152
_cell_angle_alpha    90.00005
_cell_angle_beta     89.99920999999999
_cell_angle_gamma    89.45932000000002

_space_group_name_H-M_alt    "P 1"
_space_group_IT_number       1

loop_
  _space_group_symop_operation_xyz
  'x, y, z'

loop_
  _atom_site_type_symbol
  _atom_site_label
  _atom_site_symmetry_multiplicity
  _atom_site_fract_x
  _atom_site_fract_y
  _atom_site_fract_z
  _atom_site_occupancy
  C   C1        1.0  0.31671  0.9385700000000001  0.6379700000000001  1.0000
  C   C2        1.0  0.15875  0.7260600000000001  0.03699000000000001  1.0000
  C   C3        1.0  0.1072  0.1965  0.96917  1.0000
  C   C4        1.0  0.49519  0.28982  0.47930000000000006  1.0000
  C   C5        1.0  0.49517  0.28981000000000007  0.0207  1.0000
  C   C6        1.0  0.60724  0.6965  0.53083  1.0000
  C   C7        1.0  0.60721  0.6965  0.96917  1.0000
  C   C8        1.0  0.12916999999999998  0.79255  0.50462  1.0000
  C   C9        1.0  0.12915  0.79255  0.9953800000000002  1.0000
  C   C10       1.0  0.18998999999999996  0.24117  0.48401000000000005  1.0000
  C   C11       1.0  0.18998  0.24112  0.015970000000000005  1.0000
  C   C12       1.0  0.62917  0.29254  0.50462  1.0000
  C   C13       1.0  0.14355  0.30755  0.52074  1.0000
  C   C14       1.0  0.6291399999999999  0.29255  0.9953800000000002  1.0000
  C   C15       1.0  0.68999  0.7411300000000001  0.48402  1.0000
  C   C16       1.0  0.68998  0.74112  0.015970000000000005  1.0000
  C   C17       1.0  0.09242999999999998  0.74823  0.5691700000000001  1.0000
  C   C18       1.0  0.09242999999999998  0.74823  0.93083  1.0000
  C   C19       1.0  0.08559999999999998  0.24843  0.42931  1.0000
  C   C20       1.0  0.08561  0.24843  0.07068  1.0000
  C   C21       1.0  0.59242  0.24823  0.5691800000000001  1.0000
  C   C22       1.0  0.59243  0.24823  0.93083  1.0000
  C   C23       1.0  0.58561  0.74843  0.42932  1.0000
  C   C24       1.0  0.14360999999999996  0.30751  0.9792400000000001  1.0000
  C   C25       1.0  0.58561  0.74843  0.07068  1.0000
  C   C26       1.0  0.9588400000000001  0.74593  0.5448200000000001  1.0000
  C   C27       1.0  0.95885  0.74592  0.9551800000000001  1.0000
  C   C28       1.0  0.0027199999999999998  0.20217  0.47542  1.0000
  C   C29       1.0  0.002679999999999999  0.20219000000000004  0.02458  1.0000
  C   C30       1.0  0.45883  0.24594  0.54483  1.0000
  C   C31       1.0  0.45884  0.24592  0.9551800000000001  1.0000
  C   C32       1.0  0.5027  0.70218  0.47542  1.0000
  C   C33       1.0  0.50268  0.70219  0.02458  1.0000
  C   C34       1.0  0.98903  0.6791  0.5019  1.0000
  C   C35       1.0  0.6587399999999999  0.22604  0.46302  1.0000
  C   C36       1.0  0.98904  0.6791  0.9981  1.0000
  C   C37       1.0  0.95599  0.26843  0.51303  1.0000
  C   C38       1.0  0.95601  0.26847  0.98698  1.0000
  C   C39       1.0  0.489  0.1791  0.5019  1.0000
  C   C40       1.0  0.48902999999999996  0.17909  0.9981  1.0000
  C   C41       1.0  0.45601  0.76845  0.51303  1.0000
  C   C42       1.0  0.45602  0.76847  0.98698  1.0000
  C   C43       1.0  0.12338  0.68168  0.5277700000000001  1.0000
  C   C44       1.0  0.1234  0.68169  0.9722300000000001  1.0000
  C   C45       1.0  0.03865  0.31394  0.46574  1.0000
  C   C46       1.0  0.6587399999999999  0.22606000000000004  0.03699000000000001  1.0000
  C   C47       1.0  0.03874  0.31394  0.03425  1.0000
  C   C48       1.0  0.62336  0.18168  0.5277700000000001  1.0000
  C   C49       1.0  0.62339  0.18168  0.9722300000000001  1.0000
  C   C50       1.0  0.53872  0.81394  0.46575  1.0000
  C   C51       1.0  0.53874  0.81394  0.03425  1.0000
  C   C52       1.0  0.6436  0.80752  0.52075  1.0000
  C   C53       1.0  0.6436099999999999  0.80751  0.9792400000000001  1.0000
  C   C54       1.0  0.025120000000000003  0.72419  0.43776  1.0000
  C   C55       1.0  0.02511  0.72418  0.062240000000000004  1.0000
  C   C56       1.0  0.06152  0.26169  0.56693  1.0000
  C   C57       1.0  0.31671  0.9385700000000001  0.8620300000000001  1.0000
  C   C58       1.0  0.06151  0.26169  0.9330700000000001  1.0000
  C   C59       1.0  0.5251  0.22418  0.43776  1.0000
  C   C60       1.0  0.52511  0.22418  0.062240000000000004  1.0000
  C   C61       1.0  0.5615199999999999  0.76169  0.56693  1.0000
  C   C62       1.0  0.5615199999999999  0.76169  0.9330700000000001  1.0000
  C   C63       1.0  0.32088  0.00669  0.42557  1.0000
  C   C64       1.0  0.32088  0.0067  0.07443000000000001  1.0000
  C   C65       1.0  0.32208  0.96151  0.56494  1.0000
  C   C66       1.0  0.32208  0.9615200000000002  0.93506  1.0000
  C   C67       1.0  0.82088  0.5066900000000001  0.42557  1.0000
  C   C68       1.0  0.3189  0.03519  0.35520000000000007  1.0000
  C   C69       1.0  0.82088  0.5067  0.07443000000000001  1.0000
  C   C70       1.0  0.82208  0.46151000000000003  0.56494  1.0000
  C   C71       1.0  0.82208  0.46152000000000004  0.93506  1.0000
  C   C72       1.0  0.54734  0.98517  0.42088000000000003  1.0000
  C   C73       1.0  0.54734  0.98518  0.07911  1.0000
  C   C74       1.0  0.5456  0.99663  0.56766  1.0000
  C   C75       1.0  0.54559  0.99664  0.93233  1.0000
  C   C76       1.0  0.047339999999999986  0.48517  0.42088000000000003  1.0000
  C   C77       1.0  0.047339999999999986  0.48518  0.07911  1.0000
  C   C78       1.0  0.0456  0.49663  0.56766  1.0000
  C   C79       1.0  0.3189  0.03519  0.1448  1.0000
  C   C80       1.0  0.045589999999999985  0.49664  0.93233  1.0000
  C   C81       1.0  0.65743  0.99141  0.45738  1.0000
  C   C82       1.0  0.65743  0.99142  0.04260000000000001  1.0000
  C   C83       1.0  0.65507  0.00253  0.53033  1.0000
  C   C84       1.0  0.65507  0.00254  0.96966  1.0000
  C   C85       1.0  0.15743  0.4914  0.45738  1.0000
  C   C86       1.0  0.15743  0.49141000000000007  0.04260000000000001  1.0000
  C   C87       1.0  0.15507  0.50253  0.53033  1.0000
  C   C88       1.0  0.15507  0.50254  0.96966  1.0000
  C   C89       1.0  0.4343499999999999  0.9812000000000001  0.53177  1.0000
  C   C90       1.0  0.8167099999999999  0.43857000000000007  0.6379700000000001  1.0000
  C   C91       1.0  0.43434  0.9812000000000001  0.9682300000000001  1.0000
  C   C92       1.0  0.43377  0.98881  0.45788  1.0000
  C   C93       1.0  0.43377  0.98882  0.04211000000000001  1.0000
  C   C94       1.0  0.93435  0.48119  0.53177  1.0000
  C   C95       1.0  0.93434  0.48120000000000007  0.9682300000000001  1.0000
  C   C96       1.0  0.93377  0.48881  0.45788  1.0000
  C   C97       1.0  0.93377  0.48882  0.04211000000000001  1.0000
  C   C98       1.0  0.20917  0.9672600000000001  0.52734  1.0000
  C   C99       1.0  0.20917  0.9672700000000001  0.97266  1.0000
  C   C100      1.0  0.20864999999999997  0.00528  0.46552000000000004  1.0000
  C   C101      1.0  0.8167099999999999  0.43857000000000007  0.8620300000000001  1.0000
  C   C102      1.0  0.20864999999999997  0.00528  0.03448  1.0000
  C   C103      1.0  0.70917  0.46726  0.52734  1.0000
  C   C104      1.0  0.70917  0.4672700000000001  0.97266  1.0000
  C   C105      1.0  0.70865  0.5052800000000001  0.46552000000000004  1.0000
  C   C106      1.0  0.70865  0.5052800000000001  0.03448  1.0000
  C   C107      1.0  0.09415  0.9443800000000001  0.55371  1.0000
  C   C108      1.0  0.09415  0.94439  0.94629  1.0000
  C   C109      1.0  0.09631999999999999  0.04105000000000001  0.44863000000000003  1.0000
  C   C110      1.0  0.09631999999999999  0.04106  0.05138  1.0000
  C   C111      1.0  0.5941499999999998  0.44438000000000005  0.55371  1.0000
  C   C112      1.0  0.8189  0.5351900000000002  0.35520000000000007  1.0000
  C   C113      1.0  0.59414  0.44439  0.94629  1.0000
  C   C114      1.0  0.59632  0.54105  0.44863000000000003  1.0000
  C   C115      1.0  0.59632  0.54106  0.05138  1.0000
  C   C116      1.0  0.98546  0.9757  0.53441  1.0000
  C   C117      1.0  0.98546  0.9757  0.96561  1.0000
  C   C118      1.0  0.98654  0.026109999999999998  0.4829700000000001  1.0000
  C   C119      1.0  0.98654  0.02612  0.01705  1.0000
  C   C120      1.0  0.48546  0.47570000000000007  0.53441  1.0000
  C   C121      1.0  0.48546  0.47570000000000007  0.96561  1.0000
  C   C122      1.0  0.48653999999999986  0.52611  0.4829700000000001  1.0000
  C   C123      1.0  0.8189  0.5351900000000002  0.1448  1.0000
  C   C124      1.0  0.48653999999999986  0.52612  0.01705  1.0000
  C   C125      1.0  0.13782  0.7590300000000001  0.64185  1.0000
  C   C126      1.0  0.13783  0.7590300000000001  0.85815  1.0000
  C   C127      1.0  0.13034  0.24231  0.35546000000000005  1.0000
  C   C128      1.0  0.13035  0.24230000000000002  0.14454000000000006  1.0000
  C   C129      1.0  0.63782  0.25903  0.64185  1.0000
  C   C130      1.0  0.63782  0.25903  0.85815  1.0000
  C   C131      1.0  0.63035  0.7423  0.35546000000000005  1.0000
  C   C132      1.0  0.63035  0.7423  0.14454000000000006  1.0000
  C   C133      1.0  0.53699  0.7724000000000001  0.64257  1.0000
  C   C134      1.0  0.15876  0.7260600000000001  0.46302  1.0000
  C   C135      1.0  0.53699  0.7724000000000001  0.85743  1.0000
  C   C136      1.0  0.49627  0.21215  0.36243  1.0000
  C   C137      1.0  0.49626  0.21214000000000002  0.13757  1.0000
  C   C138      1.0  0.03699  0.2724  0.64257  1.0000
  C   C139      1.0  0.03699  0.2724  0.85743  1.0000
  C   C140      1.0  0.9962899999999998  0.71215  0.36243  1.0000
  C   C141      1.0  0.99627  0.71215  0.13757  1.0000
  C   C142      1.0  0.9951999999999998  0.78982  0.47930000000000006  1.0000
  C   C143      1.0  0.99518  0.78981  0.0207  1.0000
  C   C144      1.0  0.10727999999999997  0.19651  0.53082  1.0000
  Cl  Cl1       1.0  0.9059199999999997  0.8584700000000001  0.44222  1.0000
  Cl  Cl2       1.0  0.9059  0.8584600000000001  0.05778  1.0000
  Cl  Cl3       1.0  0.16238  0.12764  0.58523  1.0000
  Cl  Cl4       1.0  0.16221  0.12762  0.9147500000000001  1.0000
  Cl  Cl5       1.0  0.40593  0.35847  0.44221000000000005  1.0000
  Cl  Cl6       1.0  0.4059  0.35846  0.05778  1.0000
  Cl  Cl7       1.0  0.6622799999999999  0.62762  0.58524  1.0000
  Cl  Cl8       1.0  0.6622099999999999  0.62761  0.9147500000000001  1.0000
  Cr  Cr1       1.0  0.48816  0.8846600000000001  0.75  1.0000
  Cr  Cr2       1.0  0.33341  0.27274  0.25  1.0000
  Cr  Cr3       1.0  0.83341  0.22726000000000002  0.75  1.0000
  Cr  Cr4       1.0  0.83341  0.77274  0.25  1.0000
  Cr  Cr5       1.0  0.48816  0.11534000000000001  0.25  1.0000
  Cr  Cr6       1.0  0.9881599999999999  0.38466  0.75  1.0000
  Cr  Cr7       1.0  0.9881599999999999  0.61534  0.25  1.0000
  Cr  Cr8       1.0  0.17347999999999997  0.88312  0.75  1.0000
  Cr  Cr9       1.0  0.17348  0.11688  0.25  1.0000
  Cr  Cr10      1.0  0.67348  0.38312000000000007  0.75  1.0000
  Cr  Cr11      1.0  0.67348  0.61688  0.25  1.0000
  Cr  Cr12      1.0  0.33341  0.7272600000000001  0.75  1.0000
  H   H1        1.0  0.19236  0.8364000000000001  0.50118  1.0000
  H   H2        1.0  0.9017499999999998  0.9588  0.9408700000000001  1.0000
  H   H3        1.0  0.90268  0.05298  0.46915000000000007  1.0000
  H   H4        1.0  0.9026899999999998  0.05299  0.03086  1.0000
  H   H5        1.0  0.40176  0.45879  0.5591500000000003  1.0000
  H   H6        1.0  0.40175  0.45880000000000004  0.9408700000000001  1.0000
  H   H7        1.0  0.40268999999999994  0.55298  0.46916  1.0000
  H   H8        1.0  0.40268999999999994  0.55299  0.03086  1.0000
  H   H9        1.0  0.87995  0.7549900000000002  0.58122  1.0000
  H   H10       1.0  0.87996  0.75497  0.91877  1.0000
  H   H11       1.0  0.93867  0.16376000000000002  0.45368  1.0000
  H   H12       1.0  0.19233  0.8364000000000001  0.99882  1.0000
  H   H13       1.0  0.9386  0.16379  0.04633  1.0000
  H   H14       1.0  0.37993999999999994  0.255  0.5812300000000001  1.0000
  H   H15       1.0  0.37995  0.25496  0.91877  1.0000
  H   H16       1.0  0.43862999999999996  0.66378  0.4536700000000001  1.0000
  H   H17       1.0  0.4386  0.66379  0.04633  1.0000
  H   H18       1.0  0.93078  0.63251  0.49943000000000004  1.0000
  H   H19       1.0  0.9307999999999997  0.6325  0.00057  1.0000
  H   H20       1.0  0.86251  0.28007  0.53192  1.0000
  H   H21       1.0  0.8625599999999998  0.28015  0.96812  1.0000
  H   H22       1.0  0.43073  0.13251000000000002  0.49944  1.0000
  H   H23       1.0  0.27962  0.22526  0.46316000000000007  1.0000
  H   H24       1.0  0.43079  0.1325  0.00057  1.0000
  H   H25       1.0  0.36254999999999993  0.78012  0.5319  1.0000
  H   H26       1.0  0.3625599999999999  0.78016  0.9681100000000001  1.0000
  H   H27       1.0  0.17981999999999998  0.63851  0.54886  1.0000
  H   H28       1.0  0.17985  0.63852  0.95115  1.0000
  H   H29       1.0  0.00364  0.35786  0.43449000000000004  1.0000
  H   H30       1.0  0.00381  0.35787  0.0655  1.0000
  H   H31       1.0  0.67979  0.1385  0.54887  1.0000
  H   H32       1.0  0.67985  0.13852000000000003  0.95115  1.0000
  H   H33       1.0  0.50376  0.85787  0.4345  1.0000
  H   H34       1.0  0.27958  0.22517000000000004  0.03681  1.0000
  H   H35       1.0  0.50381  0.85787  0.0655  1.0000
  H   H36       1.0  0.24000999999999997  0.71787  0.42821000000000004  1.0000
  H   H37       1.0  0.23999999999999996  0.71789  0.0718  1.0000
  H   H38       1.0  0.20178  0.34978  0.54143  1.0000
  H   H39       1.0  0.20188  0.34971  0.95854  1.0000
  H   H40       1.0  0.73999  0.21785  0.42821000000000004  1.0000
  H   H41       1.0  0.73999  0.21789000000000003  0.0718  1.0000
  H   H42       1.0  0.70186  0.84973  0.54145  1.0000
  H   H43       1.0  0.70188  0.84971  0.95854  1.0000
  H   H44       1.0  0.74296  0.9909400000000002  0.42822  1.0000
  H   H45       1.0  0.69236  0.3363900000000001  0.50118  1.0000
  H   H46       1.0  0.74296  0.9909400000000002  0.07176  1.0000
  H   H47       1.0  0.7365499999999999  0.01737  0.55864  1.0000
  H   H48       1.0  0.7365399999999999  0.01738  0.9413500000000001  1.0000
  H   H49       1.0  0.24296  0.49093000000000003  0.42822  1.0000
  H   H50       1.0  0.24296  0.49094  0.07176  1.0000
  H   H51       1.0  0.23654999999999995  0.5173700000000001  0.55863  1.0000
  H   H52       1.0  0.23654  0.5173800000000001  0.9413500000000001  1.0000
  H   H53       1.0  0.55288  0.97622  0.36419  1.0000
  H   H54       1.0  0.55288  0.97623  0.13580000000000003  1.0000
  H   H55       1.0  0.55084  0.01025  0.62311  1.0000
  H   H56       1.0  0.69232  0.33640000000000003  0.99882  1.0000
  H   H57       1.0  0.55083  0.01026  0.8768800000000001  1.0000
  H   H58       1.0  0.05288  0.47622000000000003  0.36419  1.0000
  H   H59       1.0  0.05288  0.47623  0.13580000000000003  1.0000
  H   H60       1.0  0.05084  0.51025  0.62311  1.0000
  H   H61       1.0  0.05083  0.51026  0.8768800000000001  1.0000
  H   H62       1.0  0.09101  0.08463000000000001  0.41359  1.0000
  H   H63       1.0  0.09102  0.08464  0.08641  1.0000
  H   H64       1.0  0.08574999999999998  0.9035200000000001  0.5912800000000001  1.0000
  H   H65       1.0  0.08575  0.90353  0.90872  1.0000
  H   H66       1.0  0.59102  0.58463  0.41359  1.0000
  H   H67       1.0  0.7796  0.7252  0.46318  1.0000
  H   H68       1.0  0.59102  0.5846400000000002  0.08641  1.0000
  H   H69       1.0  0.5857499999999999  0.40352  0.5912800000000001  1.0000
  H   H70       1.0  0.58574  0.40353000000000006  0.90872  1.0000
  H   H71       1.0  0.77959  0.72517  0.03681  1.0000
  H   H72       1.0  0.9017599999999999  0.95879  0.5591500000000003  1.0000
  O   O1        1.0  0.57545  0.8288200000000001  0.66795  1.0000
  O   O2        1.0  0.41686  0.9428900000000001  0.8253200000000002  1.0000
  O   O3        1.0  0.41686  0.05711  0.32532  1.0000
  O   O4        1.0  0.41686  0.05711  0.17468  1.0000
  O   O5        1.0  0.91686  0.44289000000000006  0.67468  1.0000
  O   O6        1.0  0.91686  0.44289000000000006  0.8253200000000002  1.0000
  O   O7        1.0  0.91686  0.55711  0.32532  1.0000
  O   O8        1.0  0.91686  0.55711  0.17468  1.0000
  O   O9        1.0  0.21378999999999998  0.95368  0.66833  1.0000
  O   O10       1.0  0.21378999999999998  0.95368  0.83167  1.0000
  O   O11       1.0  0.21378999999999998  0.04632  0.33167  1.0000
  O   O12       1.0  0.57545  0.8288200000000001  0.8320500000000002  1.0000
  O   O13       1.0  0.21378999999999998  0.04632  0.16833  1.0000
  O   O14       1.0  0.71379  0.4536800000000001  0.66833  1.0000
  O   O15       1.0  0.71379  0.4536800000000001  0.83167  1.0000
  O   O16       1.0  0.71379  0.54632  0.33167  1.0000
  O   O17       1.0  0.71379  0.54632  0.16833  1.0000
  O   O18       1.0  0.12136  0.8178900000000001  0.6726600000000001  1.0000
  O   O19       1.0  0.12136  0.8178900000000001  0.82734  1.0000
  O   O20       1.0  0.12136  0.18211  0.32734  1.0000
  O   O21       1.0  0.12136  0.18211  0.17266  1.0000
  O   O22       1.0  0.62136  0.31789  0.6726600000000001  1.0000
  O   O23       1.0  0.57545  0.17118  0.33205  1.0000
  O   O24       1.0  0.62136  0.31789  0.82734  1.0000
  O   O25       1.0  0.62136  0.68211  0.32734  1.0000
  O   O26       1.0  0.62136  0.68211  0.17266  1.0000
  O   O27       1.0  0.20684999999999998  0.71137  0.66582  1.0000
  O   O28       1.0  0.20684999999999998  0.71137  0.83418  1.0000
  O   O29       1.0  0.20684999999999998  0.28863  0.33418  1.0000
  O   O30       1.0  0.20684999999999998  0.28863  0.16582  1.0000
  O   O31       1.0  0.7068499999999999  0.21137000000000003  0.66582  1.0000
  O   O32       1.0  0.7068499999999999  0.21137000000000003  0.83418  1.0000
  O   O33       1.0  0.7068499999999999  0.78863  0.33418  1.0000
  O   O34       1.0  0.57545  0.17118  0.16795000000000004  1.0000
  O   O35       1.0  0.7068499999999999  0.78863  0.16582  1.0000
  O   O36       1.0  0.45771  0.73319  0.6726300000000001  1.0000
  O   O37       1.0  0.45771  0.73319  0.82737  1.0000
  O   O38       1.0  0.45771  0.26681  0.32737000000000005  1.0000
  O   O39       1.0  0.45771  0.26681  0.17263000000000003  1.0000
  O   O40       1.0  0.9577099999999997  0.23319000000000004  0.6726300000000001  1.0000
  O   O41       1.0  0.9577099999999997  0.23319000000000004  0.82737  1.0000
  O   O42       1.0  0.9577099999999997  0.7668100000000001  0.32737000000000005  1.0000
  O   O43       1.0  0.9577099999999997  0.7668100000000001  0.17263000000000003  1.0000
  O   O44       1.0  0.33169  0.83168  0.75  1.0000
  O   O45       1.0  0.07544999999999999  0.32882  0.66795  1.0000
  O   O46       1.0  0.33169  0.16832  0.25  1.0000
  O   O47       1.0  0.83169  0.33168  0.75  1.0000
  O   O48       1.0  0.83169  0.66832  0.25  1.0000
  O   O49       1.0  0.07544999999999999  0.32882  0.8320500000000002  1.0000
  O   O50       1.0  0.07544999999999999  0.67118  0.33205  1.0000
  O   O51       1.0  0.07544999999999999  0.67118  0.16795000000000004  1.0000
  O   O52       1.0  0.41686  0.9428900000000001  0.67468  1.0000
