data_image0
_chemical_formula_structural       Br5C60Cr6F4H33O26
_chemical_formula_sum              "Br5 C60 Cr6 F4 H33 O26"
_cell_length_a       10.95679
_cell_length_b       11.00041
_cell_length_c       18.83122
_cell_angle_alpha    89.94598999999998
_cell_angle_beta     90.02168
_cell_angle_gamma    60.15127

_space_group_name_H-M_alt    "P 1"
_space_group_IT_number       1

loop_
  _space_group_symop_operation_xyz
  'x, y, z'

loop_
  _atom_site_type_symbol
  _atom_site_label
  _atom_site_symmetry_multiplicity
  _atom_site_fract_x
  _atom_site_fract_y
  _atom_site_fract_z
  _atom_site_occupancy
  Br  Br1       1.0  0.69996  0.41351  0.13166  1.0000
  Br  Br2       1.0  0.40232000000000007  0.9230400000000001  0.67758  1.0000
  Br  Br3       1.0  0.07113999999999997  0.46495000000000003  0.35919  1.0000
  Br  Br4       1.0  0.37958000000000003  0.73284  0.15554  1.0000
  Br  Br5       1.0  0.17156000000000002  0.029490000000000002  0.33667  1.0000
  C   C1        1.0  0.23446000000000003  0.64723  0.60879  1.0000
  C   C2        1.0  0.5901099999999999  0.11944  0.70556  1.0000
  C   C3        1.0  0.58782  0.12668  0.77885  1.0000
  C   C4        1.0  0.6536300000000003  0.62202  0.601  1.0000
  C   C5        1.0  0.87963  0.20453000000000002  0.78123  1.0000
  C   C6        1.0  0.8844  0.20093  0.70079  1.0000
  C   C7        1.0  0.68589  0.14193  0.66741  1.0000
  C   C8        1.0  0.15216000000000005  0.68834  0.82931  1.0000
  C   C9        1.0  0.16424000000000002  0.57212  0.79367  1.0000
  C   C10       1.0  0.17731000000000005  0.56298  0.7201199999999999  1.0000
  C   C11       1.0  0.1414300000000001  0.79654  0.71497  1.0000
  C   C12       1.0  0.59708  0.61748  0.8017899999999999  1.0000
  C   C13       1.0  0.13625  0.80253  0.78872  1.0000
  C   C14       1.0  0.27334  0.42327  0.80493  1.0000
  C   C15       1.0  0.29293  0.41562  0.7254  1.0000
  C   C16       1.0  0.63215  0.22251  0.6010699999999999  1.0000
  C   C17       1.0  0.17228  0.67207  0.6797  1.0000
  C   C18       1.0  0.7059600000000001  0.70441  0.17998  1.0000
  C   C19       1.0  0.7923800000000001  0.5773  0.21366  1.0000
  C   C20       1.0  0.7739599999999999  0.5581500000000001  0.28314  1.0000
  C   C21       1.0  0.5902000000000001  0.79842  0.29379  1.0000
  C   C22       1.0  0.6081099999999999  0.8181100000000001  0.22131  1.0000
  C   C23       1.0  0.6985699999999999  0.6744800000000001  0.81216  1.0000
  C   C24       1.0  0.8321099999999999  0.42945  0.19474  1.0000
  C   C25       1.0  0.8083000000000001  0.40990000000000004  0.27206  1.0000
  C   C26       1.0  0.67026  0.66437  0.32415999999999995  1.0000
  C   C27       1.0  0.6669  0.13166  0.18046  1.0000
  C   C28       1.0  0.2188  0.65144  0.40277  1.0000
  C   C29       1.0  0.5518  0.14381  0.21657999999999997  1.0000
  C   C30       1.0  0.54418  0.15554  0.28881  1.0000
  C   C31       1.0  0.77843  0.12285  0.29382  1.0000
  C   C32       1.0  0.78609  0.10941  0.22008  1.0000
  C   C33       1.0  0.39953000000000005  0.24276  0.20512  1.0000
  C   C34       1.0  0.66809  0.64889  0.67643  1.0000
  C   C35       1.0  0.38947000000000004  0.25764  0.28499  1.0000
  C   C36       1.0  0.65159  0.15873  0.32782  1.0000
  C   C37       1.0  0.10873000000000003  0.69431  0.19034  1.0000
  C   C38       1.0  0.12021  0.79903  0.22569  1.0000
  C   C39       1.0  0.13753000000000004  0.79497  0.29708  1.0000
  C   C40       1.0  0.64344  0.62402  0.39316  1.0000
  C   C41       1.0  0.10031  0.59596  0.30463  1.0000
  C   C42       1.0  0.08668999999999999  0.59879  0.23035  1.0000
  C   C43       1.0  0.21555999999999997  0.85675  0.21138  1.0000
  C   C44       1.0  0.24000000000000005  0.84862  0.29074  1.0000
  C   C45       1.0  0.8268000000000001  0.57331  0.69656  1.0000
  C   C46       1.0  0.14225999999999997  0.68515  0.33684  1.0000
  C   C47       1.0  0.70457  0.09587  0.8938  1.0000
  C   C48       1.0  0.7225900000000001  0.6878800000000002  0.8884199999999999  1.0000
  C   C49       1.0  0.1118799999999999  0.7106900000000002  0.9038499999999999  1.0000
  C   C50       1.0  0.6784  0.1004  0.10575  1.0000
  C   C51       1.0  0.73111  0.71613  0.10532  1.0000
  C   C52       1.0  0.61744  0.22739  0.39591  1.0000
  C   C53       1.0  0.08328999999999998  0.7144700000000002  0.11517  1.0000
  C   C54       1.0  0.63644  0.81865  0.7738399999999999  1.0000
  C   C55       1.0  0.6056900000000001  0.80687  0.69464  1.0000
  C   C56       1.0  0.58899  0.59054  0.72218  1.0000
  C   C57       1.0  0.84229  0.57543  0.7766  1.0000
  C   C58       1.0  0.69712  0.12873  0.81752  1.0000
  C   C59       1.0  0.81262  0.11477000000000001  0.77862  1.0000
  C   C60       1.0  0.8068300000000002  0.12227  0.70415  1.0000
  Cr  Cr1       1.0  0.39296  0.39792  0.50224  1.0000
  Cr  Cr2       1.0  0.3983400000000001  0.70848  0.50125  1.0000
  Cr  Cr3       1.0  0.7086700000000002  0.39357  0.49646  1.0000
  Cr  Cr4       1.0  0.9376499999999998  0.9385400000000002  0.00761  1.0000
  Cr  Cr5       1.0  0.62533  0.93737  0.99452  1.0000
  Cr  Cr6       1.0  0.93794  0.62523  0.00119  1.0000
  F   F1        1.0  0.011899999999999997  0.13875  0.81154  1.0000
  F   F2        1.0  0.41967999999999994  0.40395  0.70565  1.0000
  F   F3        1.0  0.26072  0.32300000000000006  0.69213  1.0000
  F   F4        1.0  0.14412  0.99196  0.18471  1.0000
  H   H1        1.0  0.7149100000000003  0.8543700000000001  0.77742  1.0000
  H   H2        1.0  0.13465999999999992  0.8849800000000001  0.68636  1.0000
  H   H3        1.0  0.53872  0.89712  0.80095  1.0000
  H   H4        1.0  0.12119999999999997  0.8964200000000001  0.81415  1.0000
  H   H5        1.0  0.22726999999999997  0.35984  0.8250799999999999  1.0000
  H   H6        1.0  0.3659400000000002  0.41136  0.83517  1.0000
  H   H7        1.0  0.50948  0.8841300000000001  0.32425  1.0000
  H   H8        1.0  0.53977  0.9177900000000001  0.19653  1.0000
  H   H9        1.0  0.94416  0.36591  0.17844  1.0000
  H   H10       1.0  0.7153400000000002  0.39701  0.28172  1.0000
  H   H11       1.0  0.9060800000000001  0.33331  0.29991  1.0000
  H   H12       1.0  0.6326899999999999  0.4771500000000001  0.71351  1.0000
  H   H13       1.0  0.8656400000000002  0.11861000000000001  0.32286  1.0000
  H   H14       1.0  0.88271  0.08783  0.1941  1.0000
  H   H15       1.0  0.34369  0.18982000000000002  0.1834  1.0000
  H   H16       1.0  0.37909000000000004  0.34017  0.17705  1.0000
  H   H17       1.0  0.36353  0.36400000000000005  0.30283  1.0000
  H   H18       1.0  0.3269200000000001  0.21424  0.30938  1.0000
  H   H19       1.0  0.06353999999999992  0.5249800000000001  0.20433  1.0000
  H   H20       1.0  0.65781  0.8508400000000002  0.66096  1.0000
  H   H21       1.0  0.34889999999999993  0.76889  0.30601  1.0000
  H   H22       1.0  0.9162  0.61356  0.78852  1.0000
  H   H23       1.0  0.8886  0.46729  0.79805  1.0000
  H   H24       1.0  0.8780800000000001  0.62735  0.67056  1.0000
  H   H25       1.0  0.6316099999999999  0.5200600000000001  0.83294  1.0000
  H   H26       1.0  0.4905700000000001  0.69535  0.82153  1.0000
  H   H27       1.0  0.47659  0.63984  0.70621  1.0000
  H   H28       1.0  0.88639  0.46295  0.67883  1.0000
  H   H29       1.0  0.5018  0.12063  0.67949  1.0000
  H   H30       1.0  0.49922  0.12782  0.80487  1.0000
  H   H31       1.0  0.80919  0.30884  0.8041999999999999  1.0000
  H   H32       1.0  0.8237200000000001  0.30348  0.67505  1.0000
  H   H33       1.0  0.9921200000000002  0.13598  0.67897  1.0000
  O   O1        1.0  0.50738  0.2557  0.58144  1.0000
  O   O2        1.0  0.83717  0.5934100000000001  0.9152500000000001  1.0000
  O   O3        1.0  0.06520000000000001  0.63553  0.9315699999999999  1.0000
  O   O4        1.0  0.2803200000000001  0.52735  0.57893  1.0000
  O   O5        1.0  0.06825999999999995  0.8288900000000001  0.09184  1.0000
  O   O6        1.0  0.79887  0.05741  0.07934  1.0000
  O   O7        1.0  0.58493  0.08035000000000002  0.07678  1.0000
  O   O8        1.0  0.62696  0.8096500000000001  0.06706  1.0000
  O   O9        1.0  0.81604  0.5966100000000001  0.07650999999999998  1.0000
  O   O10       1.0  0.045609999999999984  0.6385  0.08106  1.0000
  O   O11       1.0  0.83364  0.83371  0.0011  1.0000
  O   O12       1.0  0.5244799999999998  0.69581  0.42404  1.0000
  O   O13       1.0  0.26050999999999996  0.73959  0.58459  1.0000
  O   O14       1.0  0.5323000000000002  0.69508  0.57382  1.0000
  O   O15       1.0  0.74484  0.5035  0.57637  1.0000
  O   O16       1.0  0.69912  0.27656  0.57196  1.0000
  O   O17       1.0  0.49894  0.2565  0.41986  1.0000
  O   O18       1.0  0.2725  0.52808  0.4291499999999999  1.0000
  O   O19       1.0  0.25205999999999995  0.74038  0.42301  1.0000
  O   O20       1.0  0.7363900000000001  0.50429  0.41479  1.0000
  O   O21       1.0  0.6913000000000001  0.27729  0.42216999999999993  1.0000
  O   O22       1.0  0.4999900000000002  0.49999000000000005  0.4999799999999999  1.0000
  O   O23       1.0  0.08939999999999992  0.8256900000000001  0.9305699999999999  1.0000
  O   O24       1.0  0.8184600000000001  0.05444  0.9298500000000001  1.0000
  O   O25       1.0  0.60606  0.07715  0.91551  1.0000
  O   O26       1.0  0.6465500000000002  0.80668  0.91757  1.0000
