data_image0
_chemical_formula_structural       O8C4O8C4O8C4O8C4O8C4O8C4Cr12O4C16H12C4H4C4H4C8H4C4H4C20H4C12H4C9NCNCNCNCNCNCNCNCHOCHOCHOCHOCHOCHOCHOCHO
_chemical_formula_sum              "O60 C116 Cr12 H44 N8"
_cell_length_a       18.94262
_cell_length_b       10.919739999999997
_cell_length_c       18.81153
_cell_angle_alpha    90.21419
_cell_angle_beta     89.97601
_cell_angle_gamma    90.14873

_space_group_name_H-M_alt    "P 1"
_space_group_IT_number       1

loop_
  _space_group_symop_operation_xyz
  'x, y, z'

loop_
  _atom_site_type_symbol
  _atom_site_label
  _atom_site_symmetry_multiplicity
  _atom_site_fract_x
  _atom_site_fract_y
  _atom_site_fract_z
  _atom_site_occupancy
  O   O1        1.0  0.78751  0.04261  0.67041  1.0000
  O   O2        1.0  0.21249000000000004  0.04261  0.32959  1.0000
  O   O3        1.0  0.28751  0.5426099999999999  0.67041  1.0000
  O   O4        1.0  0.71249  0.5426099999999999  0.32959  1.0000
  O   O5        1.0  0.76567  0.29209  0.67509  1.0000
  O   O6        1.0  0.23433  0.29209  0.32490999999999987  1.0000
  O   O7        1.0  0.26567  0.79209  0.67509  1.0000
  O   O8        1.0  0.73433  0.79209  0.32490999999999987  1.0000
  C   C1        1.0  0.73101  0.37865  0.64671  1.0000
  C   C2        1.0  0.2722  0.37186  0.35649  1.0000
  C   C3        1.0  0.23048  0.87698  0.6460999999999998  1.0000
  C   C4        1.0  0.76895  0.8790599999999998  0.35321  1.0000
  O   O9        1.0  0.67022  0.40902  0.66856  1.0000
  O   O10       1.0  0.32978  0.40902  0.33143999999999996  1.0000
  O   O11       1.0  0.17022  0.90902  0.66856  1.0000
  O   O12       1.0  0.82978  0.90902  0.33143999999999996  1.0000
  O   O13       1.0  0.55658  0.2515899999999999  0.67498  1.0000
  O   O14       1.0  0.4434199999999999  0.2515899999999999  0.32502  1.0000
  O   O15       1.0  0.05658  0.7515899999999999  0.67498  1.0000
  O   O16       1.0  0.9434199999999999  0.7515899999999999  0.32502  1.0000
  C   C5        1.0  0.53104  0.15536999999999998  0.64716  1.0000
  C   C6        1.0  0.46124000000000004  0.15418999999999997  0.3571999999999999  1.0000
  C   C7        1.0  0.03658  0.6541199999999999  0.6437399999999999  1.0000
  C   C8        1.0  0.9688099999999998  0.65568  0.35295999999999994  1.0000
  O   O17       1.0  0.54589  0.04967  0.6700299999999998  1.0000
  O   O18       1.0  0.45410999999999996  0.04967  0.32997  1.0000
  O   O19       1.0  0.04589  0.54967  0.6700299999999998  1.0000
  O   O20       1.0  0.95411  0.54967  0.32997  1.0000
  O   O21       1.0  0.68134  0.9578599999999999  0.6765  1.0000
  O   O22       1.0  0.31866  0.9578599999999999  0.3235  1.0000
  O   O23       1.0  0.18134  0.45786  0.6765  1.0000
  O   O24       1.0  0.81866  0.45786  0.3235  1.0000
  C   C9        1.0  0.74008  0.97426  0.64521  1.0000
  C   C10       1.0  0.25953  0.9736399999999997  0.35426  1.0000
  C   C11       1.0  0.24205000000000002  0.46640999999999994  0.6484299999999997  1.0000
  C   C12       1.0  0.75994  0.47476  0.35481  1.0000
  O   O25       1.0  0.78738  0.04401  0.83094  1.0000
  O   O26       1.0  0.21262000000000003  0.04401  0.16906  1.0000
  O   O27       1.0  0.28738  0.54401  0.83094  1.0000
  O   O28       1.0  0.71262  0.54401  0.16906  1.0000
  O   O29       1.0  0.76554  0.29339  0.82391  1.0000
  O   O30       1.0  0.23446  0.29339  0.17608999999999997  1.0000
  O   O31       1.0  0.26554  0.7933899999999999  0.82391  1.0000
  O   O32       1.0  0.73446  0.7933899999999999  0.17608999999999997  1.0000
  C   C13       1.0  0.73074  0.38118  0.85111  1.0000
  C   C14       1.0  0.26976  0.37949999999999995  0.14812  1.0000
  C   C15       1.0  0.22959000000000002  0.8782599999999999  0.85238  1.0000
  C   C16       1.0  0.76975  0.87946  0.14813  1.0000
  O   O33       1.0  0.67009  0.41041  0.82909  1.0000
  O   O34       1.0  0.32991  0.41041  0.17090999999999998  1.0000
  O   O35       1.0  0.17009  0.9104099999999998  0.82909  1.0000
  O   O36       1.0  0.82991  0.9104099999999998  0.17090999999999998  1.0000
  O   O37       1.0  0.55645  0.25289  0.8237899999999998  1.0000
  O   O38       1.0  0.44355000000000006  0.25289  0.17621  1.0000
  O   O39       1.0  0.05644999999999999  0.7528899999999998  0.8237899999999998  1.0000
  O   O40       1.0  0.9435499999999999  0.7528899999999998  0.17621  1.0000
  C   C17       1.0  0.53025  0.15761  0.85318  1.0000
  C   C18       1.0  0.46985  0.15745  0.14691  1.0000
  C   C19       1.0  0.02975  0.65697  0.8529199999999999  1.0000
  C   C20       1.0  0.96983  0.65717  0.14676  1.0000
  O   O41       1.0  0.54575  0.05107  0.8305599999999999  1.0000
  O   O42       1.0  0.45425  0.05107  0.16944  1.0000
  O   O43       1.0  0.04575  0.55107  0.8305599999999999  1.0000
  O   O44       1.0  0.95425  0.55107  0.16944  1.0000
  O   O45       1.0  0.68121  0.9591499999999998  0.8253199999999999  1.0000
  O   O46       1.0  0.31879  0.9591499999999998  0.17468  1.0000
  O   O47       1.0  0.18121  0.45914999999999995  0.8253199999999999  1.0000
  O   O48       1.0  0.81879  0.45914999999999995  0.17468  1.0000
  C   C21       1.0  0.74043  0.9743799999999998  0.8556099999999999  1.0000
  C   C22       1.0  0.25895  0.97159  0.14562  1.0000
  C   C23       1.0  0.24059  0.47388999999999987  0.85549  1.0000
  C   C24       1.0  0.77217  0.5198699999999999  0.13839  1.0000
  Cr  Cr1       1.0  0.77195  0.16948  0.7501  1.0000
  Cr  Cr2       1.0  0.22805  0.16948  0.24989999999999998  1.0000
  Cr  Cr3       1.0  0.27195  0.66948  0.7501  1.0000
  Cr  Cr4       1.0  0.72805  0.66948  0.24989999999999998  1.0000
  Cr  Cr5       1.0  0.61493  0.32334  0.74917  1.0000
  Cr  Cr6       1.0  0.38507  0.32334  0.25083  1.0000
  Cr  Cr7       1.0  0.11493  0.8233399999999998  0.74917  1.0000
  Cr  Cr8       1.0  0.88507  0.8233399999999998  0.25083  1.0000
  Cr  Cr9       1.0  0.61659  0.01062  0.7506099999999999  1.0000
  Cr  Cr10      1.0  0.38341  0.01062  0.24939  1.0000
  Cr  Cr11      1.0  0.11659  0.51062  0.7506099999999999  1.0000
  Cr  Cr12      1.0  0.8834100000000001  0.51062  0.24939  1.0000
  O   O49       1.0  0.66782  0.16780999999999996  0.7499599999999998  1.0000
  O   O50       1.0  0.33218  0.16780999999999993  0.2500399999999999  1.0000
  O   O51       1.0  0.16782  0.6678099999999999  0.7499599999999998  1.0000
  O   O52       1.0  0.83218  0.6678099999999999  0.2500399999999999  1.0000
  C   C25       1.0  0.47258  0.15934999999999996  0.43333  1.0000
  C   C26       1.0  0.49283999999999994  0.16566  0.58057  1.0000
  C   C27       1.0  0.006  0.6654799999999998  0.42018  1.0000
  C   C28       1.0  0.02278  0.65875  0.568  1.0000
  C   C29       1.0  0.48514  0.27040999999999993  0.4677299999999999  1.0000
  C   C30       1.0  0.49629  0.27333  0.54031  1.0000
  C   C31       1.0  0.00414  0.7735499999999998  0.46062  1.0000
  C   C32       1.0  0.01401  0.7704899999999998  0.53349  1.0000
  C   C33       1.0  0.46543  0.0596  0.54841  1.0000
  C   C34       1.0  0.45614  0.05606999999999999  0.4750499999999999  1.0000
  C   C35       1.0  0.03578  0.5536499999999999  0.5264  1.0000
  C   C36       1.0  0.02926  0.55769  0.45294999999999996  1.0000
  C   C37       1.0  0.54126  0.3629399999999999  0.45344999999999996  1.0000
  C   C38       1.0  0.55444  0.3651299999999999  0.5329  1.0000
  C   C39       1.0  0.94783  0.8683999999999998  0.46706  1.0000
  C   C40       1.0  0.9595499999999999  0.8661799999999997  0.54672  1.0000
  H   H1        1.0  0.45839  0.9758699999999998  0.57834  1.0000
  H   H2        1.0  0.43911  0.97079  0.45094999999999996  1.0000
  H   H3        1.0  0.04849  0.46678  0.55053  1.0000
  H   H4        1.0  0.03461  0.4730199999999999  0.42324999999999996  1.0000
  H   H5        1.0  0.89522  0.8320899999999999  0.4515799999999999  1.0000
  H   H6        1.0  0.98301  0.9524099999999999  0.56774  1.0000
  H   H7        1.0  0.51919  0.4501899999999999  0.43298  1.0000
  H   H8        1.0  0.60659  0.3263  0.54738  1.0000
  H   H9        1.0  0.58618  0.32512  0.4222899999999999  1.0000
  H   H10       1.0  0.54124  0.45429999999999987  0.55823  1.0000
  H   H11       1.0  0.96325  0.95661  0.44209999999999994  1.0000
  H   H12       1.0  0.9133100000000001  0.83114  0.577  1.0000
  C   C41       1.0  0.6958  0.8703899999999999  0.5361599999999999  1.0000
  C   C42       1.0  0.29722  0.8571799999999999  0.46061  1.0000
  C   C43       1.0  0.19585  0.36599  0.53993  1.0000
  C   C44       1.0  0.80346  0.3695699999999999  0.46324999999999994  1.0000
  H   H13       1.0  0.65707  0.8194799999999999  0.56652  1.0000
  H   H14       1.0  0.33184  0.8002599999999997  0.42879999999999996  1.0000
  H   H15       1.0  0.14701  0.34151  0.56617  1.0000
  H   H16       1.0  0.84167  0.31815  0.43249999999999994  1.0000
  C   C45       1.0  0.69739  0.8582199999999999  0.46256  1.0000
  C   C46       1.0  0.29536  0.8423199999999998  0.53391  1.0000
  C   C47       1.0  0.19996  0.35684999999999995  0.46633  1.0000
  C   C48       1.0  0.80189  0.3568799999999999  0.5368  1.0000
  H   H17       1.0  0.66184  0.79391  0.4372  1.0000
  H   H18       1.0  0.32606  0.7693799999999998  0.55743  1.0000
  H   H19       1.0  0.1553  0.32132999999999995  0.43675  1.0000
  H   H20       1.0  0.83694  0.29187  0.56168  1.0000
  C   C49       1.0  0.74801  0.9228599999999999  0.4229399999999999  1.0000
  C   C50       1.0  0.2502  0.9156299999999998  0.57536  1.0000
  C   C51       1.0  0.26159  0.39467  0.43165  1.0000
  C   C52       1.0  0.75196  0.42212999999999995  0.57697  1.0000
  C   C53       1.0  0.79137  0.00916  0.45624999999999993  1.0000
  C   C54       1.0  0.21073  0.008429999999999998  0.54385  1.0000
  C   C55       1.0  0.32018  0.43445999999999996  0.4714  1.0000
  C   C56       1.0  0.70924  0.50933  0.54423  1.0000
  H   H21       1.0  0.82976  0.06225  0.42665999999999993  1.0000
  H   H22       1.0  0.17606  0.06666  0.57487  1.0000
  H   H23       1.0  0.36982  0.45939999999999986  0.44669  1.0000
  H   H24       1.0  0.6714  0.56295  0.5742399999999999  1.0000
  C   C57       1.0  0.7919  0.017329999999999998  0.52911  1.0000
  C   C58       1.0  0.21113  0.02082  0.47124999999999995  1.0000
  C   C59       1.0  0.31653  0.4411  0.5440899999999999  1.0000
  C   C60       1.0  0.70878  0.5182799999999999  0.47138  1.0000
  H   H25       1.0  0.82925  0.07985  0.55328  1.0000
  H   H26       1.0  0.1787  0.09211  0.44849999999999995  1.0000
  H   H27       1.0  0.36203  0.4758499999999999  0.5727499999999998  1.0000
  H   H28       1.0  0.67213  0.58187  0.4476299999999999  1.0000
  C   C61       1.0  0.7451  0.9466899999999998  0.5698999999999999  1.0000
  C   C62       1.0  0.25344  0.94426  0.42895  1.0000
  C   C63       1.0  0.25308  0.41423  0.57846  1.0000
  C   C64       1.0  0.75483  0.44705999999999996  0.43005  1.0000
  C   C65       1.0  0.48954  0.05764  0.9635  1.0000
  C   C66       1.0  0.50755  0.05673999999999999  0.035699999999999996  1.0000
  C   C67       1.0  0.9927700000000002  0.5512799999999999  0.9629499999999998  1.0000
  C   C68       1.0  0.006370000000000001  0.55212  0.03606  1.0000
  C   C69       1.0  0.50131  0.16668  0.07477  1.0000
  C   C70       1.0  0.49884  0.16760999999999995  0.92532  1.0000
  C   C71       1.0  0.0009699999999999999  0.66391  0.07422  1.0000
  C   C72       1.0  0.9973300000000002  0.6628899999999999  0.92491  1.0000
  C   C73       1.0  0.5021  0.2803  0.03835  1.0000
  C   C74       1.0  0.50106  0.28078  0.96303  1.0000
  C   C75       1.0  0.00284  0.77652  0.03692  1.0000
  C   C76       1.0  0.9937999999999999  0.77562  0.9619799999999998  1.0000
  C   C77       1.0  0.78203  0.03161  0.9729399999999999  1.0000
  C   C78       1.0  0.2857  0.022839999999999996  0.02346  1.0000
  C   C79       1.0  0.28565  0.52683  0.97218  1.0000
  C   C80       1.0  0.79661  0.55119  0.011999999999999999  1.0000
  H   H29       1.0  0.80822  0.11022  0.94949  1.0000
  H   H30       1.0  0.31398  0.10272  0.04308  1.0000
  H   H31       1.0  0.31402  0.6029  0.9484599999999999  1.0000
  H   H32       1.0  0.82672  0.63235  0.026219999999999993  1.0000
  C   C81       1.0  0.78438  0.019399999999999994  0.045699999999999984  1.0000
  C   C82       1.0  0.27874  0.004709999999999998  0.9506699999999999  1.0000
  C   C83       1.0  0.28717  0.5163499999999999  0.044969999999999996  1.0000
  C   C84       1.0  0.78699  0.5206  0.94055  1.0000
  C   C85       1.0  0.75065  0.91835  0.07717  1.0000
  C   C86       1.0  0.24187  0.90155  0.9266299999999998  1.0000
  C   C87       1.0  0.25094  0.4185299999999999  0.07709  1.0000
  C   C88       1.0  0.7474  0.4158299999999999  0.92335  1.0000
  C   C89       1.0  0.71071  0.83672  0.0353  1.0000
  C   C90       1.0  0.2107  0.8192699999999999  0.97468  1.0000
  C   C91       1.0  0.20889  0.33927  0.03574  1.0000
  C   C92       1.0  0.71727  0.3435599999999999  0.9766899999999998  1.0000
  H   H33       1.0  0.68496  0.75797  0.05901  1.0000
  H   H34       1.0  0.18099  0.7409299999999999  0.95513  1.0000
  H   H35       1.0  0.18117  0.263  0.05994  1.0000
  H   H36       1.0  0.68587  0.2637  0.9626  1.0000
  C   C93       1.0  0.70779  0.85004  0.96209  1.0000
  C   C94       1.0  0.21619000000000002  0.83914  0.04741  1.0000
  C   C95       1.0  0.20622  0.3517  0.96245  1.0000
  C   C96       1.0  0.72533  0.37531  0.04762  1.0000
  C   C97       1.0  0.74584  0.94596  0.9304799999999999  1.0000
  C   C98       1.0  0.25438  0.9406799999999998  0.07143  1.0000
  C   C99       1.0  0.24660000000000004  0.44425  0.9302199999999999  1.0000
  C   C100      1.0  0.76519  0.47990999999999995  0.06526  1.0000
  C   C101      1.0  0.82418  0.10943  0.08583  1.0000
  N   N1        1.0  0.85623  0.18137  0.11771  1.0000
  C   C102      1.0  0.30799  0.0933  0.90194  1.0000
  N   N2        1.0  0.33131  0.16433999999999999  0.8628599999999998  1.0000
  C   C103      1.0  0.32768  0.60613  0.08467  1.0000
  N   N3        1.0  0.36008  0.67802  0.11622999999999999  1.0000
  C   C104      1.0  0.81541  0.5994999999999999  0.8861099999999998  1.0000
  N   N4        1.0  0.83802  0.66292  0.84247  1.0000
  C   C105      1.0  0.66734  0.7624899999999999  0.9210199999999998  1.0000
  N   N5        1.0  0.63483  0.6923799999999999  0.8882599999999999  1.0000
  C   C106      1.0  0.18292  0.75558  0.09648999999999999  1.0000
  N   N6        1.0  0.15677  0.6887499999999999  0.13622  1.0000
  C   C107      1.0  0.16432  0.26555  0.92189  1.0000
  N   N7        1.0  0.13085  0.19627999999999998  0.88949  1.0000
  C   C108      1.0  0.69172  0.30037  0.10111  1.0000
  N   N8        1.0  0.66494  0.24017999999999998  0.14390999999999998  1.0000
  C   C109      1.0  0.45458999999999994  0.94941  0.92932  1.0000
  H   H37       1.0  0.44359000000000004  0.9482599999999999  0.8728099999999999  1.0000
  O   O53       1.0  0.43155  0.8646399999999997  0.96465  1.0000
  C   C110      1.0  0.53956  0.9462899999999999  0.06947  1.0000
  H   H38       1.0  0.55921  0.9511399999999999  0.12357999999999998  1.0000
  O   O54       1.0  0.54865  0.85116  0.036569999999999984  1.0000
  C   C111      1.0  0.97026  0.43676  0.92513  1.0000
  H   H39       1.0  0.93414  0.4436599999999999  0.8805699999999999  1.0000
  O   O55       1.0  0.99392  0.33615  0.9397399999999999  1.0000
  C   C112      1.0  0.027799999999999995  0.43741  0.0729  1.0000
  H   H40       1.0  0.0005999999999999998  0.35151999999999994  0.06363  1.0000
  O   O56       1.0  0.07563  0.4396  0.11639999999999999  1.0000
  C   C113      1.0  0.50806  0.3965599999999999  0.07977  1.0000
  H   H41       1.0  0.53768  0.39786999999999995  0.12914  1.0000
  O   O57       1.0  0.47839999999999994  0.49006  0.06098  1.0000
  C   C114      1.0  0.50059  0.39918999999999993  0.92434  1.0000
  H   H42       1.0  0.53524  0.47339  0.94067  1.0000
  O   O58       1.0  0.46016  0.41530999999999996  0.87471  1.0000
  C   C115      1.0  0.02581  0.8901599999999998  0.07513  1.0000
  H   H43       1.0  0.0248  0.8960899999999999  0.1325  1.0000
  O   O59       1.0  0.05272  0.9756099999999998  0.043269999999999996  1.0000
  C   C116      1.0  0.96972  0.88694  0.92291  1.0000
  H   H44       1.0  0.9668399999999999  0.88747  0.8654499999999999  1.0000
  O   O60       1.0  0.9467999999999999  0.97644  0.95428  1.0000
