data_image0
_chemical_formula_structural       C49Cr6H26O32
_chemical_formula_sum              "C49 Cr6 H26 O32"
_cell_length_a       10.67685
_cell_length_b       10.67737
_cell_length_c       16.87768
_cell_angle_alpha    99.08413
_cell_angle_beta     98.65063
_cell_angle_gamma    61.32331

_symmetry_space_group_name_H-M    'P 1'
_symmetry_Int_Tables_number       1

loop_
  _symmetry_equiv_pos_as_xyz
  'x,y,z'

loop_
  _atom_site_type_symbol
  _atom_site_label
  _atom_site_symmetry_multiplicity
  _atom_site_fract_x
  _atom_site_fract_y
  _atom_site_fract_z
  _atom_site_occupancy
  C   C1        1.0  0.35577  0.77316  0.398  1.0000
  C   C2        1.0  0.40007000000000004  0.68382  0.24820000000000003  1.0000
  C   C3        1.0  0.35115  0.80552  0.31739000000000006  1.0000
  C   C4        1.0  0.4056699999999999  0.37324  0.35713  1.0000
  C   C5        1.0  0.4240599999999999  0.8769900000000002  0.2844  1.0000
  C   C6        1.0  0.2816  0.9661199999999999  0.23628000000000002  1.0000
  C   C7        1.0  0.20987000000000017  0.89111  0.26919  1.0000
  C   C8        1.0  0.25743999999999995  0.77085  0.19939  1.0000
  C   C9        1.0  0.32907  0.84485  0.16702000000000006  1.0000
  C   C10       1.0  0.4636000000000001  0.27379  0.77991  1.0000
  C   C11       1.0  0.39543999999999996  0.41546  0.73969  1.0000
  C   C12       1.0  0.74336  0.29213  0.23881000000000005  1.0000
  C   C13       1.0  0.34415  0.34073  0.6661  1.0000
  C   C14       1.0  0.41330000000000006  0.20007000000000003  0.70512  1.0000
  C   C15       1.0  0.2694  0.25169  0.73944  1.0000
  C   C16       1.0  0.7199200000000001  0.40809000000000006  0.38984  1.0000
  C   C17       1.0  0.20136000000000007  0.39232999999999996  0.70017  1.0000
  C   C18       1.0  0.2520000000000001  0.46469  0.77514  1.0000
  C   C19       1.0  0.32039000000000006  0.32422  0.8146  1.0000
  C   C20       1.0  0.80908  0.34637999999999997  0.71121  1.0000
  C   C21       1.0  0.8348600000000003  0.31883  0.77968  1.0000
  C   C22       1.0  0.36001000000000005  0.76051  0.71493  1.0000
  C   C23       1.0  0.7852300000000001  0.3677  0.31484  1.0000
  C   C24       1.0  0.32933  0.80575  0.7831  1.0000
  C   C25       1.0  0.95475  0.28652  0.10291  1.0000
  C   C26       1.0  0.32161  0.30274  0.11931  1.0000
  C   C27       1.0  0.2967  0.887  0.08662  1.0000
  C   C28       1.0  0.38011000000000006  0.71453  0.63132  1.0000
  C   C29       1.0  0.88027  0.3013  0.8622  1.0000
  C   C30       1.0  0.30901000000000006  0.29485  0.89283  1.0000
  C   C31       1.0  0.28404  0.8772500000000001  0.86072  1.0000
  C   C32       1.0  0.36962999999999996  0.34802  0.58677  1.0000
  C   C33       1.0  0.7700100000000005  0.38196  0.63062  1.0000
  C   C34       1.0  0.9443300000000001  0.27276  0.30418  1.0000
  C   C35       1.0  0.37335  0.36047  0.27264  1.0000
  C   C36       1.0  0.3477800000000001  0.34313000000000005  0.20157  1.0000
  C   C37       1.0  0.9046  0.1952  0.22709  1.0000
  C   C38       1.0  0.20627  0.15175  0.74107  1.0000
  C   C39       1.0  0.16075000000000003  0.10211  0.65715  1.0000
  C   C40       1.0  0.06329000000000007  0.46138  0.64891  1.0000
  C   C41       1.0  0.16114999999999996  0.6111500000000001  0.81481  1.0000
  C   C42       1.0  0.05387999999999998  0.2086  0.37278  1.0000
  C   C43       1.0  0.5234500000000002  0.93064  0.3344  1.0000
  C   C44       1.0  0.6024800000000001  0.9665199999999999  0.28068  1.0000
  C   C45       1.0  0.9413100000000002  0.38473  0.25561  1.0000
  C   C46       1.0  0.78075  0.48062000000000005  0.26706  1.0000
  C   C47       1.0  0.7387700000000001  0.40507  0.18996  1.0000
  C   C48       1.0  0.8985900000000001  0.30955  0.17958  1.0000
  C   C49       1.0  0.4716500000000001  0.7578  0.21379  1.0000
  Cr  Cr1       1.0  0.60834  0.61104  0.52043  1.0000
  Cr  Cr2       1.0  0.28765  0.60112  0.48934999999999995  1.0000
  Cr  Cr3       1.0  0.60404  0.28787  0.49028  1.0000
  Cr  Cr4       1.0  0.05402000000000003  0.05270000000000001  0.97085  1.0000
  Cr  Cr5       1.0  0.059230000000000005  0.37512  0.99339  1.0000
  Cr  Cr6       1.0  0.37495000000000006  0.06119999999999999  0.99234  1.0000
  H   H1        1.0  0.662  0.25429  0.23387  1.0000
  H   H2        1.0  0.7339800000000001  0.59637  0.28828  1.0000
  H   H3        1.0  0.65629  0.45674  0.1406  1.0000
  H   H4        1.0  0.4502400000000003  0.56798  0.25577  1.0000
  H   H5        1.0  0.57301  0.70907  0.18449  1.0000
  H   H6        1.0  0.07328000000000001  0.19363  0.62721  1.0000
  H   H7        1.0  0.2529  0.04762999999999999  0.61946  1.0000
  H   H8        1.0  0.11990000000000003  0.026060000000000003  0.66228  1.0000
  H   H9        1.0  0.29112  0.058019999999999974  0.76972  1.0000
  H   H10       1.0  0.115  0.20491  0.77856  1.0000
  H   H11       1.0  0.9619500000000002  0.47016  0.53756  1.0000
  H   H12       1.0  0.23433000000000004  0.08217  0.22909  1.0000
  H   H13       1.0  0.07667999999999997  0.7328  0.91635  1.0000
  H   H14       1.0  0.23322999999999994  0.19332  0.43911  1.0000
  H   H15       1.0  0.67303  0.8688299999999999  0.24342  1.0000
  H   H16       1.0  0.52489  0.04799  0.24045  1.0000
  H   H17       1.0  0.671  0.008859999999999991  0.31843  1.0000
  H   H18       1.0  0.4595099999999999  0.026370000000000015  0.37484  1.0000
  H   H19       1.0  0.6038800000000001  0.84595  0.37212  1.0000
  H   H20       1.0  0.10563999999999994  0.93715  0.29501  1.0000
  H   H21       1.0  0.19013999999999998  0.72601  0.1626  1.0000
  H   H22       1.0  0.45028000000000007  0.48018  0.73716  1.0000
  H   H23       1.0  0.5705100000000001  0.22671000000000002  0.81419  1.0000
  H   H24       1.0  0.47804  0.09179  0.67449  1.0000
  H   H25       1.0  0.95081  0.0804  0.2041  1.0000
  H   H26       1.0  0.023950000000000006  0.42109  0.26027  1.0000
  O   O1        1.0  0.7512200000000001  0.49923  0.43517  1.0000
  O   O2        1.0  0.41299  0.18075  0.09161  1.0000
  O   O3        1.0  0.36662000000000017  0.9431299999999999  0.06576  1.0000
  O   O4        1.0  0.4772199999999999  0.7276  0.43687  1.0000
  O   O5        1.0  0.16050999999999999  0.9063300000000001  0.87921  1.0000
  O   O6        1.0  0.9301900000000002  0.17905  0.88945  1.0000
  O   O7        1.0  0.90914  0.39817  0.89671  1.0000
  O   O8        1.0  0.18618999999999997  0.36346  0.91883  1.0000
  O   O9        1.0  0.4016700000000001  0.1732  0.91331  1.0000
  O   O10       1.0  0.35612000000000016  0.93613  0.9004700000000002  1.0000
  O   O11       1.0  0.16274000000000002  0.16301000000000002  0.9855300000000001  1.0000
  O   O12       1.0  0.29788  0.46907999999999994  0.56005  1.0000
  O   O13       1.0  0.2586500000000003  0.74512  0.41147  1.0000
  O   O14       1.0  0.29707  0.46723999999999993  0.39596  1.0000
  O   O15       1.0  0.48883  0.25261  0.38779  1.0000
  O   O16       1.0  0.7244000000000002  0.30239  0.42098  1.0000
  O   O17       1.0  0.7521  0.50121  0.61219  1.0000
  O   O18       1.0  0.47804  0.72944  0.60097  1.0000
  O   O19       1.0  0.25953000000000004  0.74711  0.58849  1.0000
  O   O20       1.0  0.9620000000000002  0.5689799999999999  0.67612  1.0000
  O   O21       1.0  0.054459999999999995  0.40681  0.56859  1.0000
  O   O22       1.0  0.09758999999999998  0.71241  0.7741  1.0000
  O   O23       1.0  0.48972000000000004  0.25459  0.56481  1.0000
  O   O24       1.0  0.14702  0.63099  0.89743  1.0000
  O   O25       1.0  0.04098000000000001  0.13159  0.41387  1.0000
  O   O26       1.0  0.16834  0.2402  0.39056  1.0000
  O   O27       1.0  0.7252200000000002  0.30423  0.58508  1.0000
  O   O28       1.0  0.50001  0.50001  0.50002  1.0000
  O   O29       1.0  0.17183  0.91388  0.05751  1.0000
  O   O30       1.0  0.9406900000000001  0.18605  0.05473  1.0000
  O   O31       1.0  0.9204700000000002  0.40572  0.07501  1.0000
  O   O32       1.0  0.19669  0.37046  0.08412  1.0000
