data_image0
_chemical_formula_structural       O8C4O8C4O4V4C36H4C14H5C6H5C6H5C6H17
_chemical_formula_sum              "O20 C76 V4 H36"
_cell_length_a       23.21522
_cell_length_b       7.29439
_cell_length_c       15.09938
_cell_angle_alpha    89.9999
_cell_angle_beta     108.12042
_cell_angle_gamma    90.00003000000001

_space_group_name_H-M_alt    "P 1"
_space_group_IT_number       1

loop_
  _space_group_symop_operation_xyz
  'x, y, z'

loop_
  _atom_site_type_symbol
  _atom_site_label
  _atom_site_symmetry_multiplicity
  _atom_site_fract_x
  _atom_site_fract_y
  _atom_site_fract_z
  _atom_site_occupancy
  O   O1        1.0  0.711  0.64861  0.3411700000000001  1.0000
  O   O2        1.0  0.289  0.35139  0.6588300000000002  1.0000
  O   O3        1.0  0.789  0.14861  0.15883000000000005  1.0000
  O   O4        1.0  0.211  0.8513900000000001  0.84117  1.0000
  O   O5        1.0  0.8296499999999998  0.32203000000000004  0.3366500000000001  1.0000
  O   O6        1.0  0.17035000000000003  0.6779700000000002  0.6633500000000002  1.0000
  O   O7        1.0  0.67035  0.82203  0.16335000000000005  1.0000
  O   O8        1.0  0.32965  0.17797  0.83665  1.0000
  C   C1        1.0  0.8542699999999999  0.48579000000000006  0.35687  1.0000
  C   C2        1.0  0.14573  0.51417  0.64313  1.0000
  C   C3        1.0  0.64573  0.98579  0.14313000000000006  1.0000
  C   C4        1.0  0.35427  0.014170000000000004  0.8568700000000002  1.0000
  O   O9        1.0  0.7139499999999999  0.31928  0.3520700000000001  1.0000
  O   O10       1.0  0.28605  0.6807200000000002  0.64793  1.0000
  O   O11       1.0  0.7860499999999999  0.81928  0.14793  1.0000
  O   O12       1.0  0.21395  0.18072  0.8520700000000002  1.0000
  O   O13       1.0  0.67247  0.14287  0.17436000000000004  1.0000
  O   O14       1.0  0.32753  0.85713  0.82564  1.0000
  O   O15       1.0  0.82753  0.6428700000000003  0.3256400000000001  1.0000
  O   O16       1.0  0.17247000000000004  0.35713  0.6743600000000002  1.0000
  C   C5        1.0  0.70188  0.4875200000000001  0.37618  1.0000
  C   C6        1.0  0.29783  0.51263  0.62347  1.0000
  C   C7        1.0  0.79812  0.9875200000000002  0.12382  1.0000
  C   C8        1.0  0.20217000000000002  0.01263  0.8765300000000001  1.0000
  O   O17       1.0  0.7365299999999998  0.4786500000000001  0.19168  1.0000
  O   O18       1.0  0.2634699999999999  0.52135  0.80832  1.0000
  O   O19       1.0  0.7634699999999999  0.97865  0.30832  1.0000
  O   O20       1.0  0.23653  0.02135  0.6916800000000001  1.0000
  V   V1        1.0  0.7525  0.20617  0.26082  1.0000
  V   V2        1.0  0.24749999999999997  0.7938300000000003  0.7391800000000001  1.0000
  V   V3        1.0  0.7475  0.70617  0.23918000000000006  1.0000
  V   V4        1.0  0.2525  0.29383  0.76082  1.0000
  C   C9        1.0  0.82775  0.99663  0.051770000000000004  1.0000
  C   C10       1.0  0.17324000000000003  0.007480000000000001  0.9495200000000003  1.0000
  C   C11       1.0  0.6722499999999999  0.4966200000000001  0.44823000000000013  1.0000
  C   C12       1.0  0.32675999999999994  0.50748  0.55048  1.0000
  C   C13       1.0  0.8222699999999997  0.0268  0.8904800000000003  1.0000
  C   C14       1.0  0.17866999999999994  0.04900000000000001  0.11028000000000003  1.0000
  C   C15       1.0  0.67773  0.5268  0.60952  1.0000
  C   C16       1.0  0.32133000000000006  0.5490600000000002  0.3897200000000001  1.0000
  C   C17       1.0  0.79354  0.01318  0.9584300000000002  1.0000
  C   C18       1.0  0.20727  0.03678  0.042110000000000015  1.0000
  C   C19       1.0  0.70646  0.51318  0.54157  1.0000
  C   C20       1.0  0.29273  0.53684  0.45789000000000013  1.0000
  C   C21       1.0  0.8908399999999999  0.99451  0.07765000000000001  1.0000
  C   C22       1.0  0.11037999999999999  0.9928200000000003  0.9246  1.0000
  C   C23       1.0  0.6091599999999998  0.49451  0.42235  1.0000
  C   C24       1.0  0.3896100000000001  0.4927900000000001  0.5754000000000002  1.0000
  C   C25       1.0  0.92157  0.01376  0.01062  1.0000
  C   C26       1.0  0.07960000000000006  0.015510000000000003  0.9913600000000002  1.0000
  C   C27       1.0  0.57843  0.51376  0.48937000000000014  1.0000
  C   C28       1.0  0.42039999999999994  0.51551  0.50864  1.0000
  C   C29       1.0  0.88616  0.02466000000000001  0.9149200000000002  1.0000
  C   C30       1.0  0.11492999999999999  0.03709  0.08656  1.0000
  C   C31       1.0  0.6138399999999999  0.52466  0.58508  1.0000
  C   C32       1.0  0.38505999999999996  0.53711  0.41344  1.0000
  C   C33       1.0  0.98619  0.022700000000000005  0.0362  1.0000
  C   C34       1.0  0.01496000000000004  0.02019  0.9657600000000002  1.0000
  C   C35       1.0  0.51381  0.52269  0.4638000000000001  1.0000
  C   C36       1.0  0.48503999999999997  0.52019  0.5342400000000003  1.0000
  C   C37       1.0  0.97842  0.03271000000000001  0.8717700000000003  1.0000
  C   C38       1.0  0.02267000000000001  0.04299  0.12987000000000007  1.0000
  C   C39       1.0  0.52158  0.5327100000000001  0.6282200000000001  1.0000
  C   C40       1.0  0.47732  0.5429800000000001  0.37012  1.0000
  C   C41       1.0  0.91531  0.03775000000000001  0.8460800000000003  1.0000
  C   C42       1.0  0.08575000000000002  0.052960000000000014  0.15530000000000002  1.0000
  C   C43       1.0  0.58469  0.5377500000000001  0.65392  1.0000
  C   C44       1.0  0.41424  0.5529700000000001  0.3447  1.0000
  H   H1        1.0  0.08696000000000005  0.96491  0.8522200000000002  1.0000
  H   H2        1.0  0.91442  0.97442  0.15068000000000006  1.0000
  H   H3        1.0  0.41303999999999996  0.46483000000000013  0.64778  1.0000
  H   H4        1.0  0.58558  0.4744200000000001  0.34931  1.0000
  C   C45       1.0  0.4167599999999999  0.006850000000000002  0.91882  1.0000
  C   C46       1.0  0.58324  0.9929400000000002  0.08119  1.0000
  C   C47       1.0  0.08324000000000005  0.5068500000000001  0.5811800000000003  1.0000
  C   C48       1.0  0.91676  0.49294  0.4188100000000001  1.0000
  C   C49       1.0  0.46913999999999995  0.00218  0.97001  1.0000
  C   C50       1.0  0.53086  0.9974000000000002  0.030000000000000006  1.0000
  C   C51       1.0  0.030870000000000005  0.50218  0.52999  1.0000
  C   C52       1.0  0.9691399999999998  0.4974  0.4700000000000001  1.0000
  C   C53       1.0  0.8815899999999998  0.06192  0.74589  1.0000
  C   C54       1.0  0.8859  0.22835  0.7015600000000002  1.0000
  C   C55       1.0  0.8557099999999999  0.25081000000000003  0.6065  1.0000
  C   C56       1.0  0.82112  0.10748000000000003  0.55519  1.0000
  C   C57       1.0  0.81693  0.94108  0.59864  1.0000
  C   C58       1.0  0.8472299999999999  0.91764  0.6937100000000003  1.0000
  H   H5        1.0  0.91265  0.34035  0.7406500000000003  1.0000
  H   H6        1.0  0.85916  0.37924000000000013  0.57261  1.0000
  H   H7        1.0  0.79777  0.12511  0.4817400000000001  1.0000
  H   H8        1.0  0.7904199999999999  0.8302900000000002  0.55839  1.0000
  H   H9        1.0  0.8440699999999999  0.7876400000000002  0.7265800000000001  1.0000
  C   C59       1.0  0.11940999999999999  0.08616000000000003  0.25489000000000006  1.0000
  C   C60       1.0  0.11262999999999998  0.25398  0.29623  1.0000
  C   C61       1.0  0.14326000000000003  0.28549  0.3904400000000001  1.0000
  C   C62       1.0  0.18075  0.14986  0.4439500000000001  1.0000
  C   C63       1.0  0.18740999999999997  0.98203  0.40354  1.0000
  C   C64       1.0  0.15665999999999994  0.94952  0.30933  1.0000
  H   H10       1.0  0.08375  0.36027  0.2554  1.0000
  H   H11       1.0  0.13799  0.41514  0.4219400000000001  1.0000
  H   H12       1.0  0.20451  0.17475  0.51672  1.0000
  H   H13       1.0  0.21628000000000003  0.8772400000000002  0.44540000000000013  1.0000
  H   H14       1.0  0.16186  0.81856  0.27882000000000007  1.0000
  C   C65       1.0  0.6184  0.5619200000000002  0.7541100000000002  1.0000
  C   C66       1.0  0.6140899999999999  0.72835  0.79844  1.0000
  C   C67       1.0  0.64429  0.7508000000000002  0.8935000000000002  1.0000
  C   C68       1.0  0.67888  0.6074800000000002  0.9448000000000002  1.0000
  C   C69       1.0  0.6830699999999998  0.44108  0.9013600000000003  1.0000
  C   C70       1.0  0.6527699999999999  0.4176400000000001  0.80629  1.0000
  H   H15       1.0  0.58734  0.84035  0.75935  1.0000
  H   H16       1.0  0.64083  0.8792400000000002  0.9273900000000002  1.0000
  H   H17       1.0  0.70223  0.6251100000000003  0.01825  1.0000
  H   H18       1.0  0.70959  0.3303  0.9416100000000002  1.0000
  H   H19       1.0  0.65593  0.28765  0.7734100000000003  1.0000
  C   C71       1.0  0.38058999999999993  0.58613  0.24511  1.0000
  C   C72       1.0  0.38737999999999995  0.7539000000000002  0.20373000000000005  1.0000
  C   C73       1.0  0.35675  0.78538  0.10952000000000003  1.0000
  C   C74       1.0  0.31925  0.6497600000000002  0.05605  1.0000
  C   C75       1.0  0.31256999999999996  0.48198  0.09648000000000002  1.0000
  C   C76       1.0  0.34331  0.4495  0.19069  1.0000
  H   H20       1.0  0.41627999999999993  0.8601800000000002  0.24454000000000006  1.0000
  H   H21       1.0  0.36203  0.91499  0.07802000000000003  1.0000
  H   H22       1.0  0.29547999999999996  0.6746200000000002  0.9832700000000001  1.0000
  H   H23       1.0  0.28367999999999993  0.3772000000000001  0.054640000000000015  1.0000
  H   H24       1.0  0.33811  0.31858  0.22122  1.0000
  H   H25       1.0  0.25601999999999997  0.05136000000000002  0.06153  1.0000
  H   H26       1.0  0.74455  0.01555  0.93814  1.0000
  H   H27       1.0  0.24397999999999997  0.55145  0.43847000000000014  1.0000
  H   H28       1.0  0.7554499999999998  0.51555  0.5618600000000002  1.0000
  H   H29       1.0  0.79387  0.04023  0.8188800000000002  1.0000
  H   H30       1.0  0.20697  0.07207  0.18122  1.0000
  H   H31       1.0  0.70613  0.5402300000000001  0.68112  1.0000
  H   H32       1.0  0.29303  0.57216  0.31878  1.0000
  H   H33       1.0  0.9977899999999998  0.04743000000000001  0.81592  1.0000
  H   H34       1.0  0.0032000000000000114  0.06032000000000001  0.18546000000000007  1.0000
  H   H35       1.0  0.5022  0.5474500000000001  0.68407  1.0000
  H   H36       1.0  0.49679  0.5603100000000002  0.3145300000000001  1.0000
