data_image0
_chemical_formula_structural       C148Cu12O48F44OCH2CH3OCH2CH3OCH2CH3OCH2CH3OCH2CH3OCH2CH3OCH2CH3OCH2CH3OCH2CH3OCH2CH3OCH2CH3OCH2CH3OCH2CH3OCH2CH3OCH2CH3OCH2CH3
_chemical_formula_sum              "C180 Cu12 O64 F44 H80"
_cell_length_a       27.94273
_cell_length_b       18.73676
_cell_length_c       16.80709
_cell_angle_alpha    89.9998
_cell_angle_beta     63.09488
_cell_angle_gamma    89.99992

_space_group_name_H-M_alt    "P 1"
_space_group_IT_number       1

loop_
  _space_group_symop_operation_xyz
  'x, y, z'

loop_
  _atom_site_type_symbol
  _atom_site_label
  _atom_site_symmetry_multiplicity
  _atom_site_fract_x
  _atom_site_fract_y
  _atom_site_fract_z
  _atom_site_occupancy
  C   C1        1.0  0.2938799999999999  0.72639  0.33002  1.0000
  C   C2        1.0  0.7049200000000001  0.27125  0.6705299999999997  1.0000
  C   C3        1.0  0.70612  0.72639  0.6699799999999998  1.0000
  C   C4        1.0  0.29508  0.27125  0.32947  1.0000
  C   C5        1.0  0.79387  0.22638  0.3300299999999999  1.0000
  C   C6        1.0  0.2049200000000001  0.7712499999999999  0.6705299999999997  1.0000
  C   C7        1.0  0.20612000000000003  0.22639  0.6699799999999998  1.0000
  C   C8        1.0  0.79508  0.7712499999999999  0.32947  1.0000
  C   C9        1.0  0.5600999999999998  0.8789  0.4650699999999999  1.0000
  C   C10       1.0  0.46449000000000007  0.12815  0.45339  1.0000
  C   C11       1.0  0.43989  0.8789  0.5349399999999997  1.0000
  C   C12       1.0  0.5355  0.12815  0.5466399999999998  1.0000
  C   C13       1.0  0.06011000000000004  0.3789  0.46505999999999986  1.0000
  C   C14       1.0  0.9644900000000001  0.62815  0.45337  1.0000
  C   C15       1.0  0.93989  0.3789  0.5349399999999997  1.0000
  C   C16       1.0  0.03551000000000006  0.62815  0.5466299999999997  1.0000
  C   C17       1.0  0.20708000000000004  0.7433699999999999  0.9637499999999998  1.0000
  C   C18       1.0  0.76739  0.20908  0.05504999999999999  1.0000
  C   C19       1.0  0.79292  0.7433699999999999  0.036249999999999984  1.0000
  C   C20       1.0  0.23260000000000006  0.20909999999999995  0.9449699999999998  1.0000
  C   C21       1.0  0.7070700000000001  0.24336  0.9637599999999997  1.0000
  C   C22       1.0  0.2674  0.7091  0.05502999999999999  1.0000
  C   C23       1.0  0.29292  0.24336999999999998  0.036249999999999984  1.0000
  C   C24       1.0  0.7326000000000003  0.7091  0.9449699999999998  1.0000
  C   C25       1.0  0.23651000000000003  0.79632  0.9819  1.0000
  C   C26       1.0  0.73841  0.15577  0.03664999999999999  1.0000
  C   C27       1.0  0.76349  0.79632  0.018099999999999995  1.0000
  C   C28       1.0  0.26156  0.15578  0.96338  1.0000
  C   C29       1.0  0.73652  0.29631  0.9819  1.0000
  C   C30       1.0  0.23843  0.65578  0.036629999999999996  1.0000
  C   C31       1.0  0.26349  0.29632  0.018099999999999995  1.0000
  C   C32       1.0  0.76157  0.65578  0.96338  1.0000
  C   C33       1.0  0.26597  0.77943  0.02782  1.0000
  C   C34       1.0  0.7076700000000002  0.17302  0.9925799999999998  1.0000
  C   C35       1.0  0.7340300000000001  0.77943  0.9721799999999998  1.0000
  C   C36       1.0  0.2923  0.17302  0.00745  1.0000
  C   C37       1.0  0.76597  0.27942  0.02782  1.0000
  C   C38       1.0  0.20768999999999999  0.67302  0.99256  1.0000
  C   C39       1.0  0.2340300000000001  0.27944  0.9721699999999998  1.0000
  C   C40       1.0  0.79231  0.67302  0.00744  1.0000
  C   C41       1.0  0.13579  0.81426  0.95037  1.0000
  C   C42       1.0  0.84803  0.15732  0.060369999999999986  1.0000
  C   C43       1.0  0.86421  0.81426  0.04963  1.0000
  C   C44       1.0  0.15196999999999997  0.15732999999999997  0.93963  1.0000
  C   C45       1.0  0.63579  0.31425999999999993  0.95037  1.0000
  C   C46       1.0  0.34803  0.65733  0.060369999999999986  1.0000
  C   C47       1.0  0.36421  0.31425999999999993  0.04963  1.0000
  C   C48       1.0  0.65197  0.65733  0.93963  1.0000
  C   C49       1.0  0.11790000000000002  0.85112  0.8957299999999998  1.0000
  C   C50       1.0  0.87993  0.14557  0.10462999999999997  1.0000
  C   C51       1.0  0.8821  0.85112  0.10426999999999997  1.0000
  C   C52       1.0  0.1200700000000001  0.14557  0.8953699999999998  1.0000
  C   C53       1.0  0.6179  0.35112  0.8957299999999998  1.0000
  C   C54       1.0  0.37993000000000005  0.64557  0.10462999999999997  1.0000
  C   C55       1.0  0.3821  0.35112  0.10426999999999997  1.0000
  C   C56       1.0  0.6200700000000002  0.64557  0.8953699999999998  1.0000
  C   C57       1.0  0.14480000000000004  0.84117  0.8031499999999998  1.0000
  C   C58       1.0  0.8648399999999999  0.17623  0.18879  1.0000
  C   C59       1.0  0.8552000000000001  0.84117  0.19685  1.0000
  C   C60       1.0  0.13516  0.17624  0.81121  1.0000
  C   C61       1.0  0.6448  0.34117  0.8031499999999998  1.0000
  C   C62       1.0  0.36484  0.6762399999999998  0.18879  1.0000
  C   C63       1.0  0.3552  0.34117  0.19685  1.0000
  C   C64       1.0  0.63516  0.6762399999999998  0.81121  1.0000
  C   C65       1.0  0.18067000000000008  0.78387  0.7674099999999998  1.0000
  C   C66       1.0  0.81349  0.20633999999999994  0.23559999999999995  1.0000
  C   C67       1.0  0.81933  0.78387  0.23258999999999994  1.0000
  C   C68       1.0  0.18650000000000003  0.20636  0.7644099999999998  1.0000
  C   C69       1.0  0.68067  0.28387  0.7674099999999998  1.0000
  C   C70       1.0  0.3135  0.70636  0.23558999999999994  1.0000
  C   C71       1.0  0.31933000000000006  0.28387  0.23258999999999994  1.0000
  C   C72       1.0  0.6865  0.70636  0.7644099999999998  1.0000
  C   C73       1.0  0.19534000000000004  0.7426999999999999  0.8239499999999997  1.0000
  C   C74       1.0  0.77967  0.21250999999999995  0.19334999999999994  1.0000
  C   C75       1.0  0.80466  0.7426999999999999  0.17604999999999996  1.0000
  C   C76       1.0  0.22032  0.21255  0.80666  1.0000
  C   C77       1.0  0.69534  0.2427  0.8239599999999999  1.0000
  C   C78       1.0  0.27968  0.71254  0.19334  1.0000
  C   C79       1.0  0.30467  0.2427  0.17604999999999996  1.0000
  C   C80       1.0  0.72032  0.71254  0.80666  1.0000
  C   C81       1.0  0.17711000000000005  0.76375  0.9134099999999998  1.0000
  C   C82       1.0  0.79884  0.19249  0.10370999999999997  1.0000
  C   C83       1.0  0.82289  0.76375  0.08659  1.0000
  C   C84       1.0  0.20115  0.19251  0.8963  1.0000
  C   C85       1.0  0.67711  0.26375  0.9134199999999998  1.0000
  C   C86       1.0  0.29885000000000006  0.69251  0.10369999999999997  1.0000
  C   C87       1.0  0.32289  0.26376  0.08659  1.0000
  C   C88       1.0  0.70115  0.69251  0.8963  1.0000
  C   C89       1.0  0.19646999999999995  0.63199  0.52845  1.0000
  C   C90       1.0  0.8001  0.3692  0.48409999999999986  1.0000
  C   C91       1.0  0.80353  0.63199  0.4715599999999999  1.0000
  C   C92       1.0  0.19990000000000008  0.3692  0.5158999999999998  1.0000
  C   C93       1.0  0.6964700000000001  0.13199  0.52845  1.0000
  C   C94       1.0  0.3000999999999999  0.8691999999999999  0.48409999999999986  1.0000
  C   C95       1.0  0.3035300000000001  0.13199  0.4715599999999999  1.0000
  C   C96       1.0  0.6999000000000001  0.8691999999999999  0.5158999999999998  1.0000
  C   C97       1.0  0.92586  0.9037699999999999  0.06684999999999998  1.0000
  C   C98       1.0  0.07373000000000003  0.09687  0.93364  1.0000
  C   C99       1.0  0.0741400000000001  0.9037699999999999  0.9331499999999998  1.0000
  C   C100      1.0  0.92627  0.09687  0.06635999999999997  1.0000
  C   C101      1.0  0.42586000000000007  0.40377  0.06684999999999998  1.0000
  C   C102      1.0  0.57373  0.59687  0.93364  1.0000
  C   C103      1.0  0.57414  0.40377  0.9331499999999998  1.0000
  C   C104      1.0  0.42627  0.59687  0.06635999999999997  1.0000
  C   C105      1.0  0.048080000000000005  0.50316  0.50744  1.0000
  C   C106      1.0  0.95192  0.50316  0.4925599999999999  1.0000
  C   C107      1.0  0.54808  0.00316  0.5074499999999998  1.0000
  C   C108      1.0  0.45192000000000004  0.00316  0.49257  1.0000
  C   C109      1.0  0.021290000000000003  0.56801  0.51202  1.0000
  C   C110      1.0  0.97354  0.43873999999999996  0.50502  1.0000
  C   C111      1.0  0.97871  0.56801  0.4879799999999999  1.0000
  C   C112      1.0  0.026460000000000032  0.43873999999999996  0.49497999999999986  1.0000
  C   C113      1.0  0.52129  0.06800999999999999  0.51203  1.0000
  C   C114      1.0  0.47354  0.93873  0.50502  1.0000
  C   C115      1.0  0.4787000000000001  0.06800999999999999  0.48799  1.0000
  C   C116      1.0  0.5264600000000003  0.93873  0.4949899999999999  1.0000
  C   C117      1.0  0.12731  0.43916  0.49639  1.0000
  C   C118      1.0  0.8859599999999999  0.56538  0.45967999999999987  1.0000
  C   C119      1.0  0.87269  0.43916  0.50362  1.0000
  C   C120      1.0  0.11404000000000003  0.56538  0.5403199999999999  1.0000
  C   C121      1.0  0.62731  0.93916  0.49639  1.0000
  C   C122      1.0  0.38596  0.06538  0.45969  1.0000
  C   C123      1.0  0.37269000000000013  0.93915  0.50362  1.0000
  C   C124      1.0  0.61404  0.06538  0.5403199999999999  1.0000
  C   C125      1.0  0.17236  0.43677999999999995  0.51514  1.0000
  C   C126      1.0  0.83475  0.56546  0.4603399999999999  1.0000
  C   C127      1.0  0.82764  0.43677999999999995  0.4848599999999999  1.0000
  C   C128      1.0  0.16525  0.56546  0.53966  1.0000
  C   C129      1.0  0.67236  0.93678  0.51514  1.0000
  C   C130      1.0  0.3347500000000001  0.06546  0.46035  1.0000
  C   C131      1.0  0.32764000000000004  0.93678  0.4848599999999999  1.0000
  C   C132      1.0  0.6652500000000002  0.06546  0.53966  1.0000
  C   C133      1.0  0.19074000000000002  0.50039  0.5358599999999998  1.0000
  C   C134      1.0  0.80926  0.50039  0.46414  1.0000
  C   C135      1.0  0.69074  0.00039  0.5358599999999998  1.0000
  C   C136      1.0  0.30927  0.00039  0.46414  1.0000
  C   C137      1.0  0.09645000000000001  0.50248  0.5153  1.0000
  C   C138      1.0  0.90355  0.50248  0.48469999999999996  1.0000
  C   C139      1.0  0.59645  0.00248  0.51531  1.0000
  C   C140      1.0  0.40354  0.00248  0.48469999999999996  1.0000
  C   C141      1.0  0.61166  0.8816499999999999  0.45830999999999994  1.0000
  C   C142      1.0  0.4208700000000001  0.12518  0.4340599999999999  1.0000
  C   C143      1.0  0.38833  0.8816499999999999  0.5417  1.0000
  C   C144      1.0  0.57913  0.12518  0.5659599999999998  1.0000
  C   C145      1.0  0.11166000000000004  0.38165  0.4582999999999999  1.0000
  C   C146      1.0  0.92087  0.62518  0.4340499999999999  1.0000
  C   C147      1.0  0.8883399999999998  0.38165  0.5417  1.0000
  C   C148      1.0  0.07913  0.62518  0.56595  1.0000
  Cu  Cu1       1.0  0.20992000000000002  0.7852899999999999  0.4950699999999999  1.0000
  Cu  Cu2       1.0  0.79008  0.21470999999999998  0.5049299999999998  1.0000
  Cu  Cu3       1.0  0.79008  0.7852899999999999  0.5049299999999998  1.0000
  Cu  Cu4       1.0  0.20992  0.21470999999999998  0.4950699999999999  1.0000
  Cu  Cu5       1.0  0.70992  0.28529  0.4950699999999999  1.0000
  Cu  Cu6       1.0  0.2900800000000001  0.71471  0.5049299999999998  1.0000
  Cu  Cu7       1.0  0.2900800000000001  0.28529  0.5049299999999998  1.0000
  Cu  Cu8       1.0  0.70992  0.71471  0.4950699999999999  1.0000
  Cu  Cu9       1.0  0.49524000000000007  0.5  0.9241499999999998  1.0000
  Cu  Cu10      1.0  0.50476  0.5  0.07584999999999997  1.0000
  Cu  Cu11      1.0  0.9952400000000001  7.233122031814474e-22  0.9241499999999998  1.0000
  Cu  Cu12      1.0  0.004760000000000008  6.781051904826069e-23  0.07584999999999997  1.0000
  O   O1        1.0  0.25504000000000004  0.86959  0.4784799999999999  1.0000
  O   O2        1.0  0.74496  0.13041  0.52152  1.0000
  O   O3        1.0  0.74496  0.86959  0.52152  1.0000
  O   O4        1.0  0.25504000000000004  0.13041  0.4784799999999999  1.0000
  O   O5        1.0  0.75504  0.3695899999999999  0.4784799999999999  1.0000
  O   O6        1.0  0.24496  0.63041  0.52152  1.0000
  O   O7        1.0  0.24495999999999998  0.3695899999999999  0.52152  1.0000
  O   O8        1.0  0.75504  0.63041  0.4784799999999999  1.0000
  O   O9        1.0  0.18205000000000005  0.79655  0.6244399999999998  1.0000
  O   O10       1.0  0.81795  0.20345  0.37556  1.0000
  O   O11       1.0  0.81795  0.79655  0.37556  1.0000
  O   O12       1.0  0.18205000000000005  0.20345  0.6244399999999998  1.0000
  O   O13       1.0  0.68205  0.29655  0.6244399999999998  1.0000
  O   O14       1.0  0.31795  0.7034499999999999  0.37556  1.0000
  O   O15       1.0  0.31795  0.29655  0.37556  1.0000
  O   O16       1.0  0.6820500000000002  0.7034499999999999  0.6244399999999998  1.0000
  O   O17       1.0  0.25053  0.76333  0.36720999999999987  1.0000
  O   O18       1.0  0.74947  0.23666999999999996  0.6327899999999997  1.0000
  O   O19       1.0  0.74947  0.76333  0.6327899999999997  1.0000
  O   O20       1.0  0.25053  0.23666999999999996  0.36720999999999987  1.0000
  O   O21       1.0  0.7505300000000001  0.26333  0.36720999999999987  1.0000
  O   O22       1.0  0.24947000000000003  0.73667  0.6327899999999997  1.0000
  O   O23       1.0  0.24947000000000003  0.26333  0.6327899999999997  1.0000
  O   O24       1.0  0.7505300000000001  0.73667  0.36720999999999987  1.0000
  O   O25       1.0  0.17726  0.69003  0.51371  1.0000
  O   O26       1.0  0.8227399999999999  0.30997  0.4862899999999999  1.0000
  O   O27       1.0  0.8227399999999999  0.69003  0.4862899999999999  1.0000
  O   O28       1.0  0.17726000000000003  0.30997  0.51371  1.0000
  O   O29       1.0  0.67726  0.19003  0.51371  1.0000
  O   O30       1.0  0.32274  0.80997  0.4862899999999999  1.0000
  O   O31       1.0  0.32274  0.19003  0.4862899999999999  1.0000
  O   O32       1.0  0.67726  0.80997  0.51371  1.0000
  O   O33       1.0  0.051640000000000026  0.92688  0.88509  1.0000
  O   O34       1.0  0.94836  0.07312  0.11490999999999997  1.0000
  O   O35       1.0  0.9483600000000002  0.92688  0.11490999999999997  1.0000
  O   O36       1.0  0.05163999999999998  0.07312  0.88509  1.0000
  O   O37       1.0  0.5516400000000001  0.42688  0.88509  1.0000
  O   O38       1.0  0.44836  0.57312  0.11490999999999997  1.0000
  O   O39       1.0  0.44836  0.42688  0.11490999999999997  1.0000
  O   O40       1.0  0.55164  0.57312  0.88509  1.0000
  O   O41       1.0  0.9406200000000001  0.9265599999999999  0.9867599999999997  1.0000
  O   O42       1.0  0.05938  0.07344  0.013239999999999997  1.0000
  O   O43       1.0  0.05938  0.9265599999999999  0.013239999999999997  1.0000
  O   O44       1.0  0.94062  0.07344  0.9867599999999997  1.0000
  O   O45       1.0  0.4406200000000001  0.42656  0.9867599999999997  1.0000
  O   O46       1.0  0.55938  0.57344  0.013239999999999997  1.0000
  O   O47       1.0  0.55938  0.42656  0.013239999999999997  1.0000
  O   O48       1.0  0.44062000000000007  0.57344  0.9867599999999997  1.0000
  F   F1        1.0  0.23451999999999998  0.49946  0.55121  1.0000
  F   F2        1.0  0.76548  0.49946  0.4487899999999999  1.0000
  F   F3        1.0  0.73452  0.99946  0.5511999999999999  1.0000
  F   F4        1.0  0.26549000000000006  0.99946  0.4487899999999999  1.0000
  F   F5        1.0  0.64752  0.83296  0.40397  1.0000
  F   F6        1.0  0.4167800000000001  0.17777  0.3818699999999999  1.0000
  F   F7        1.0  0.35247000000000006  0.83296  0.5960399999999999  1.0000
  F   F8        1.0  0.5832200000000002  0.17778  0.6181299999999998  1.0000
  F   F9        1.0  0.14752  0.3329599999999999  0.4039599999999999  1.0000
  F   F10       1.0  0.91678  0.67777  0.38186  1.0000
  F   F11       1.0  0.8524800000000001  0.3329599999999999  0.5960399999999999  1.0000
  F   F12       1.0  0.08322  0.67777  0.61814  1.0000
  F   F13       1.0  0.54631  0.82168  0.43023  1.0000
  F   F14       1.0  0.4964700000000001  0.18678  0.4274699999999999  1.0000
  F   F15       1.0  0.45369  0.82167  0.56977  1.0000
  F   F16       1.0  0.50351  0.18677  0.5725799999999998  1.0000
  F   F17       1.0  0.04630999999999998  0.32167999999999997  0.43023  1.0000
  F   F18       1.0  0.99648  0.68678  0.42744  1.0000
  F   F19       1.0  0.9536900000000001  0.32167999999999997  0.56977  1.0000
  F   F20       1.0  0.0035099999999999936  0.68678  0.57256  1.0000
  F   F21       1.0  0.17748000000000008  0.62159  0.9805899999999997  1.0000
  F   F22       1.0  0.79387  0.33158  0.04474  1.0000
  F   F23       1.0  0.82251  0.62159  0.01941  1.0000
  F   F24       1.0  0.20614000000000002  0.33161  0.9552499999999999  1.0000
  F   F25       1.0  0.67746  0.12159  0.98062  1.0000
  F   F26       1.0  0.29386  0.8315999999999999  0.04474  1.0000
  F   F27       1.0  0.32251  0.12157999999999998  0.01942  1.0000
  F   F28       1.0  0.7061400000000002  0.8315999999999999  0.9552499999999999  1.0000
  F   F29       1.0  0.23711000000000004  0.86454  0.9541099999999999  1.0000
  F   F30       1.0  0.7391  0.08745  0.06301  1.0000
  F   F31       1.0  0.76289  0.86454  0.04587999999999998  1.0000
  F   F32       1.0  0.26087000000000005  0.08746  0.9370299999999998  1.0000
  F   F33       1.0  0.73712  0.36452999999999997  0.9540999999999997  1.0000
  F   F34       1.0  0.23912  0.58746  0.06298  1.0000
  F   F35       1.0  0.2629  0.36455  0.04587  1.0000
  F   F36       1.0  0.76087  0.58746  0.93702  1.0000
  F   F37       1.0  0.11501  0.82916  0.03891  1.0000
  F   F38       1.0  0.8639500000000002  0.13408  0.9754899999999997  1.0000
  F   F39       1.0  0.8849899999999998  0.82916  0.9610799999999998  1.0000
  F   F40       1.0  0.13606  0.13407  0.024499999999999994  1.0000
  F   F41       1.0  0.61501  0.32916  0.03891999999999999  1.0000
  F   F42       1.0  0.36394000000000004  0.63407  0.9754999999999998  1.0000
  F   F43       1.0  0.38499  0.32916  0.9610799999999998  1.0000
  F   F44       1.0  0.63606  0.63407  0.024499999999999994  1.0000
  O   O49       1.0  0.13713000000000003  0.88911  0.7470999999999998  1.0000
  C   C149      1.0  0.17418000000000006  0.94577  0.7282399999999998  1.0000
  H   H1        1.0  0.21624  0.92588  0.69242  1.0000
  H   H2        1.0  0.16856000000000002  0.9734899999999999  0.79056  1.0000
  C   C150      1.0  0.16549999999999998  0.00012  0.66883  1.0000
  H   H3        1.0  0.1242400000000001  0.022279999999999998  0.7035099999999997  1.0000
  H   H4        1.0  0.1948100000000001  0.04444  0.6530399999999997  1.0000
  H   H5        1.0  0.17114999999999997  0.9744199999999998  0.60565  1.0000
  O   O50       1.0  0.8990300000000001  0.17271  0.22782999999999995  1.0000
  C   C151      1.0  0.93246  0.23354  0.20167999999999994  1.0000
  H   H6        1.0  0.90827  0.28356  0.22236999999999996  1.0000
  H   H7        1.0  0.95806  0.23413  0.12805  1.0000
  C   C152      1.0  0.9690100000000001  0.23186  0.24660999999999994  1.0000
  H   H8        1.0  0.9942100000000003  0.18296  0.22648999999999997  1.0000
  H   H9        1.0  0.9955900000000002  0.27942  0.22644999999999996  1.0000
  H   H10       1.0  0.9445800000000001  0.23221  0.3202899999999999  1.0000
  O   O51       1.0  0.86287  0.88911  0.2529  1.0000
  C   C153      1.0  0.82582  0.94577  0.27176  1.0000
  H   H11       1.0  0.78376  0.92588  0.3075699999999999  1.0000
  H   H12       1.0  0.83143  0.9734899999999999  0.20943999999999993  1.0000
  C   C154      1.0  0.8344999999999999  0.00012  0.33116  1.0000
  H   H13       1.0  0.8757500000000001  0.022279999999999998  0.29648999999999986  1.0000
  H   H14       1.0  0.80518  0.04444  0.34694999999999987  1.0000
  H   H15       1.0  0.8288500000000001  0.9744199999999998  0.39434999999999987  1.0000
  O   O52       1.0  0.10097000000000009  0.1727  0.7721699999999998  1.0000
  C   C155      1.0  0.06753999999999995  0.23352999999999996  0.79831  1.0000
  H   H16       1.0  0.09173000000000005  0.28354999999999997  0.7776099999999998  1.0000
  H   H17       1.0  0.04194000000000005  0.23413  0.8719399999999998  1.0000
  C   C156      1.0  0.03099000000000004  0.23183999999999996  0.7533699999999998  1.0000
  H   H18       1.0  0.005799999999999999  0.18294  0.7735  1.0000
  H   H19       1.0  0.00440000000000006  0.2794  0.7735299999999998  1.0000
  H   H20       1.0  0.05541999999999999  0.23219  0.6797  1.0000
  O   O53       1.0  0.6371300000000001  0.38911  0.7470999999999998  1.0000
  C   C157      1.0  0.6741800000000001  0.44577  0.7282399999999998  1.0000
  H   H21       1.0  0.71624  0.42588  0.69242  1.0000
  H   H22       1.0  0.6685600000000002  0.47348999999999997  0.79056  1.0000
  C   C158      1.0  0.6655  0.50012  0.66883  1.0000
  H   H23       1.0  0.6242400000000001  0.52228  0.7035099999999997  1.0000
  H   H24       1.0  0.69482  0.54443  0.6530399999999997  1.0000
  H   H25       1.0  0.6711499999999999  0.47442  0.60565  1.0000
  O   O54       1.0  0.39903  0.6727  0.22782999999999995  1.0000
  C   C159      1.0  0.43245999999999996  0.73353  0.20169  1.0000
  H   H26       1.0  0.40827  0.78355  0.22238999999999995  1.0000
  H   H27       1.0  0.45806  0.7341299999999998  0.12806  1.0000
  C   C160      1.0  0.46901  0.73184  0.24662999999999993  1.0000
  H   H28       1.0  0.4942  0.68294  0.2265  1.0000
  H   H29       1.0  0.4956  0.7794  0.22646999999999995  1.0000
  H   H30       1.0  0.44458  0.7321899999999999  0.3203  1.0000
  O   O55       1.0  0.36287  0.38911  0.2529  1.0000
  C   C161      1.0  0.32582000000000005  0.44577  0.27176  1.0000
  H   H31       1.0  0.28376000000000007  0.42588  0.3075699999999999  1.0000
  H   H32       1.0  0.33143  0.47348999999999997  0.20943999999999993  1.0000
  C   C162      1.0  0.3345  0.50012  0.3311699999999999  1.0000
  H   H33       1.0  0.37576  0.52228  0.29648999999999986  1.0000
  H   H34       1.0  0.30518000000000006  0.54444  0.34695999999999994  1.0000
  H   H35       1.0  0.32885000000000003  0.47442  0.39434999999999987  1.0000
  O   O56       1.0  0.60097  0.6727  0.7721699999999998  1.0000
  C   C163      1.0  0.56754  0.73354  0.79831  1.0000
  H   H36       1.0  0.59173  0.78355  0.7776099999999998  1.0000
  H   H37       1.0  0.54194  0.7341299999999998  0.8719399999999998  1.0000
  C   C164      1.0  0.5309900000000001  0.73184  0.7533699999999998  1.0000
  H   H38       1.0  0.5058  0.68294  0.7735  1.0000
  H   H39       1.0  0.5044  0.7794  0.7735299999999998  1.0000
  H   H40       1.0  0.5554200000000002  0.7321899999999999  0.6797  1.0000
  O   O57       1.0  0.2314700000000001  0.68683  0.7907999999999997  1.0000
  C   C165      1.0  0.20427000000000003  0.62607  0.78151  1.0000
  H   H41       1.0  0.19211000000000006  0.63362  0.72759  1.0000
  H   H42       1.0  0.16753000000000004  0.61385  0.8442799999999998  1.0000
  C   C166      1.0  0.24150000000000005  0.56188  0.7574599999999998  1.0000
  H   H43       1.0  0.25369999999999987  0.55188  0.81085  1.0000
  H   H44       1.0  0.22058000000000005  0.51388  0.7499299999999998  1.0000
  H   H45       1.0  0.27786000000000005  0.57181  0.6934999999999998  1.0000
  O   O58       1.0  0.72795  0.23891999999999997  0.23877999999999994  1.0000
  C   C167      1.0  0.69269  0.1809  0.27825  1.0000
  H   H46       1.0  0.7038300000000001  0.15046  0.3244099999999999  1.0000
  H   H47       1.0  0.69274  0.14387  0.22651  1.0000
  C   C168      1.0  0.63591  0.20893  0.33167999999999986  1.0000
  H   H48       1.0  0.62355  0.23982999999999996  0.28764  1.0000
  H   H49       1.0  0.60791  0.16343  0.3607199999999999  1.0000
  H   H50       1.0  0.63381  0.24386  0.38657  1.0000
  O   O59       1.0  0.76853  0.68683  0.2092  1.0000
  C   C169      1.0  0.79573  0.62607  0.21848999999999993  1.0000
  H   H51       1.0  0.80789  0.63362  0.27241  1.0000
  H   H52       1.0  0.83247  0.61385  0.15572  1.0000
  C   C170      1.0  0.7585  0.56188  0.24254999999999993  1.0000
  H   H53       1.0  0.7463000000000001  0.55188  0.18915  1.0000
  H   H54       1.0  0.7794200000000001  0.51388  0.25008  1.0000
  H   H55       1.0  0.7221500000000001  0.57181  0.3065  1.0000
  O   O60       1.0  0.27202000000000004  0.23901  0.7612499999999998  1.0000
  C   C171      1.0  0.3073300000000001  0.18103  0.72183  1.0000
  H   H56       1.0  0.2961500000000001  0.15040999999999996  0.6758199999999998  1.0000
  H   H57       1.0  0.3073900000000001  0.14413999999999996  0.77361  1.0000
  C   C172      1.0  0.36405000000000004  0.20912999999999998  0.6681499999999998  1.0000
  H   H58       1.0  0.3764400000000001  0.24027  0.7119899999999998  1.0000
  H   H59       1.0  0.39210999999999996  0.16366  0.63923  1.0000
  H   H60       1.0  0.36605000000000004  0.24384999999999998  0.6131599999999998  1.0000
  O   O61       1.0  0.7314700000000001  0.18683  0.7907999999999997  1.0000
  C   C173      1.0  0.70427  0.12607  0.78151  1.0000
  H   H61       1.0  0.6921100000000001  0.13361  0.72759  1.0000
  H   H62       1.0  0.6675300000000001  0.11385  0.8442799999999998  1.0000
  C   C174      1.0  0.7415  0.06188  0.7574599999999998  1.0000
  H   H63       1.0  0.75371  0.05189  0.81085  1.0000
  H   H64       1.0  0.72058  0.01388  0.7499299999999998  1.0000
  H   H65       1.0  0.77786  0.07181  0.6934999999999998  1.0000
  O   O62       1.0  0.22798000000000002  0.739  0.23875  1.0000
  C   C175      1.0  0.19267  0.68102  0.27818999999999994  1.0000
  H   H66       1.0  0.20386  0.6504  0.3241699999999999  1.0000
  H   H67       1.0  0.1926  0.64414  0.22641  1.0000
  C   C176      1.0  0.13595  0.70913  0.33188999999999996  1.0000
  H   H68       1.0  0.12355000000000003  0.7402499999999999  0.2880699999999999  1.0000
  H   H69       1.0  0.10790000000000004  0.66366  0.3608299999999999  1.0000
  H   H70       1.0  0.13396999999999998  0.74385  0.38686  1.0000
  O   O63       1.0  0.26853  0.18683  0.2092  1.0000
  C   C177      1.0  0.29574000000000006  0.12607  0.21848999999999993  1.0000
  H   H71       1.0  0.30789  0.13362  0.27241  1.0000
  H   H72       1.0  0.33248  0.11385  0.15573  1.0000
  C   C178      1.0  0.2585  0.06188  0.24254999999999993  1.0000
  H   H73       1.0  0.2463  0.05188  0.18915  1.0000
  H   H74       1.0  0.27943  0.01388  0.25008  1.0000
  H   H75       1.0  0.22215  0.0718  0.3065  1.0000
  O   O64       1.0  0.7720200000000002  0.73901  0.7612499999999998  1.0000
  C   C179      1.0  0.8073299999999999  0.68102  0.72182  1.0000
  H   H76       1.0  0.79614  0.6504  0.6758299999999998  1.0000
  H   H77       1.0  0.8074  0.64414  0.7735999999999997  1.0000
  C   C180      1.0  0.86405  0.70913  0.6681099999999998  1.0000
  H   H78       1.0  0.87645  0.7402499999999999  0.71193  1.0000
  H   H79       1.0  0.8921  0.66366  0.63917  1.0000
  H   H80       1.0  0.86603  0.74385  0.61314  1.0000
