data_image0
_chemical_formula_structural       C48Cr6H17O27CH2CH2CH3
_chemical_formula_sum              "C51 Cr6 H24 O27"
_cell_length_a       10.89805
_cell_length_b       10.85014
_cell_length_c       17.07147
_cell_angle_alpha    99.50843
_cell_angle_beta     99.52383
_cell_angle_gamma    60.278240000000004

_space_group_name_H-M_alt    "P 1"
_space_group_IT_number       1

loop_
  _space_group_symop_operation_xyz
  'x, y, z'

loop_
  _atom_site_type_symbol
  _atom_site_label
  _atom_site_symmetry_multiplicity
  _atom_site_fract_x
  _atom_site_fract_y
  _atom_site_fract_z
  _atom_site_occupancy
  C   C1        1.0  0.35175999999999996  0.77719  0.4011  1.0000
  C   C2        1.0  0.7966  0.23690999999999998  0.18209  1.0000
  C   C3        1.0  0.8106400000000004  0.23699  0.26587  1.0000
  C   C4        1.0  0.76271  0.48123999999999995  0.27925  1.0000
  C   C5        1.0  0.7675500000000001  0.47318999999999994  0.19801  1.0000
  C   C6        1.0  0.77967  0.12788  0.13259  1.0000
  C   C7        1.0  0.7880400000000001  0.015599999999999992  0.16626  1.0000
  C   C8        1.0  0.82149  0.008579999999999994  0.24835999999999997  1.0000
  C   C9        1.0  0.83887  0.11383  0.29701  1.0000
  C   C10       1.0  0.7935500000000002  0.36077  0.31537  1.0000
  C   C11       1.0  0.33125000000000004  0.83574  0.16223  1.0000
  C   C12       1.0  0.40650000000000003  0.37272  0.35616  1.0000
  C   C13       1.0  0.43952  0.84222  0.2163  1.0000
  C   C14       1.0  0.4299900000000001  0.85759  0.29934  1.0000
  C   C15       1.0  0.21679  0.83298  0.26937  1.0000
  C   C16       1.0  0.22591000000000006  0.82289  0.18998  1.0000
  C   C17       1.0  0.5615300000000001  0.8239  0.18937  1.0000
  C   C18       1.0  0.6685500000000001  0.82642  0.24324  1.0000
  C   C19       1.0  0.65199  0.86394  0.32434  1.0000
  C   C20       1.0  0.53083  0.8826599999999999  0.35246  1.0000
  C   C21       1.0  0.32437  0.84016  0.32601  1.0000
  C   C22       1.0  0.30013  0.2777  0.79963  1.0000
  C   C23       1.0  0.76527  0.38275  0.39923  1.0000
  C   C24       1.0  0.42594000000000004  0.17839  0.7632  1.0000
  C   C25       1.0  0.47735999999999995  0.22784  0.7130099999999999  1.0000
  C   C26       1.0  0.24871000000000001  0.44573  0.70637  1.0000
  C   C27       1.0  0.21130000000000002  0.41011999999999993  0.76967  1.0000
  C   C28       1.0  0.50621  0.03332000000000001  0.7786  1.0000
  C   C29       1.0  0.6440700000000003  0.9486199999999999  0.75708  1.0000
  C   C30       1.0  0.7045200000000001  0.007309999999999996  0.72016  1.0000
  C   C31       1.0  0.62218  0.14582000000000003  0.69841  1.0000
  C   C32       1.0  0.3805900000000001  0.3543599999999999  0.67661  1.0000
  C   C33       1.0  0.84398  0.32976  0.70556  1.0000
  C   C34       1.0  0.35853000000000007  0.76747  0.6274  1.0000
  C   C35       1.0  0.8903500000000001  0.2951  0.77219  1.0000
  C   C36       1.0  0.33887  0.8090699999999998  0.70943  1.0000
  C   C37       1.0  0.31280000000000013  0.8378899999999999  0.77755  1.0000
  C   C38       1.0  0.88486  0.31302  0.08378  1.0000
  C   C39       1.0  0.32205000000000006  0.30147  0.11904  1.0000
  C   C40       1.0  0.2946900000000001  0.89001  0.08456  1.0000
  C   C41       1.0  0.94075  0.27437  0.85449  1.0000
  C   C42       1.0  0.27999000000000007  0.25365  0.87733  1.0000
  C   C43       1.0  0.27836000000000005  0.8859199999999999  0.85734  1.0000
  C   C44       1.0  0.4069  0.37521  0.59981  1.0000
  C   C45       1.0  0.77633  0.379  0.62903  1.0000
  C   C46       1.0  0.37968  0.35574000000000006  0.27155  1.0000
  C   C47       1.0  0.3533200000000001  0.33848  0.20084  1.0000
  C   C48       1.0  0.80179  0.34563  0.15092  1.0000
  Cr  Cr1       1.0  0.6081000000000001  0.6108599999999998  0.52225  1.0000
  Cr  Cr2       1.0  0.28889000000000004  0.59999  0.48842  1.0000
  Cr  Cr3       1.0  0.6030399999999999  0.28919000000000006  0.48939000000000005  1.0000
  Cr  Cr4       1.0  0.05396  0.05225000000000001  0.96738  1.0000
  Cr  Cr5       1.0  0.059889999999999985  0.37316  0.99271  1.0000
  Cr  Cr6       1.0  0.37337000000000004  0.061689999999999995  0.9917099999999999  1.0000
  H   H1        1.0  0.73781  0.58166  0.31416  1.0000
  H   H2        1.0  0.7657300000000001  0.7904099999999998  0.21965  1.0000
  H   H3        1.0  0.7357900000000003  0.8700099999999998  0.36585  1.0000
  H   H4        1.0  0.51949  0.9112799999999999  0.41564  1.0000
  H   H5        1.0  0.17461  0.54472  0.68086  1.0000
  H   H6        1.0  0.46408999999999995  0.98512  0.80836  1.0000
  H   H7        1.0  0.11342  0.48627999999999993  0.79531  1.0000
  H   H8        1.0  0.7051800000000001  0.8390799999999998  0.7713  1.0000
  H   H9        1.0  0.81382  0.9445899999999999  0.70651  1.0000
  H   H10       1.0  0.6723400000000002  0.18735  0.66962  1.0000
  H   H11       1.0  0.7565000000000001  0.13107  0.06856  1.0000
  H   H12       1.0  0.75986  0.56152  0.17286  1.0000
  H   H13       1.0  0.77476  0.9319299999999999  0.12832  1.0000
  H   H14       1.0  0.84536  0.9185899999999999  0.27721  1.0000
  H   H15       1.0  0.8775600000000001  0.09489  0.3587  1.0000
  H   H16       1.0  0.5828500000000001  0.7912799999999999  0.1275  1.0000
  H   H17       1.0  0.14060999999999996  0.81581  0.15024  1.0000
  O   O1        1.0  0.7498100000000001  0.49978999999999996  0.43804  1.0000
  O   O2        1.0  0.29897000000000007  0.4688  0.55739  1.0000
  O   O3        1.0  0.48940000000000006  0.25593  0.56191  1.0000
  O   O4        1.0  0.72389  0.30605  0.58461  1.0000
  O   O5        1.0  0.50001  0.50001  0.50002  1.0000
  O   O6        1.0  0.17110000000000003  0.9146799999999999  0.0531  1.0000
  O   O7        1.0  0.9416800000000001  0.18484  0.05070999999999999  1.0000
  O   O8        1.0  0.9220800000000001  0.40342  0.07261  1.0000
  O   O9        1.0  0.19688000000000003  0.3691499999999999  0.08385  1.0000
  O   O10       1.0  0.41173  0.18102  0.09153  1.0000
  O   O11       1.0  0.36501000000000017  0.9443599999999999  0.06332  1.0000
  O   O12       1.0  0.47765999999999986  0.7262600000000001  0.43929  1.0000
  O   O13       1.0  0.15938  0.90667  0.87621  1.0000
  O   O14       1.0  0.93082  0.17742000000000002  0.88673  1.0000
  O   O15       1.0  0.91036  0.39542  0.89572  1.0000
  O   O16       1.0  0.18601000000000004  0.36173  0.91987  1.0000
  O   O17       1.0  0.4  0.17301  0.91463  1.0000
  O   O18       1.0  0.3541400000000001  0.9369399999999999  0.89934  1.0000
  O   O19       1.0  0.16241  0.16236999999999996  0.98393  1.0000
  O   O20       1.0  0.26015  0.743  0.41227  1.0000
  O   O21       1.0  0.29774  0.46655  0.39472  1.0000
  O   O22       1.0  0.48808000000000024  0.2535  0.38643  1.0000
  O   O23       1.0  0.7226699999999999  0.3038  0.42194  1.0000
  O   O24       1.0  0.75113  0.50222  0.61352  1.0000
  O   O25       1.0  0.4788900000000001  0.72851  0.60196  1.0000
  O   O26       1.0  0.26147  0.74543  0.58775  1.0000
  O   O27       1.0  0.09860000000000001  0.8361  0.29008  1.0000
  C   C49       1.0  0.1209400000000001  0.6962699999999998  0.28845  1.0000
  H   H18       1.0  0.07271999999999998  0.69655  0.34123  1.0000
  H   H19       1.0  0.23480000000000006  0.61782  0.29399  1.0000
  C   C50       1.0  0.05951000000000004  0.64251  0.21393  1.0000
  H   H20       1.0  0.9656899999999999  0.72815  0.18459  1.0000
  H   H21       1.0  0.13806  0.59329  0.16948  1.0000
  C   C51       1.0  0.027129999999999994  0.53348  0.23866  1.0000
  H   H22       1.0  0.11199000000000002  0.4611  0.28006  1.0000
  H   H23       1.0  0.016459999999999992  0.46529  0.18728  1.0000
  H   H24       1.0  0.9317200000000002  0.58914  0.27123  1.0000
