data_image0
_chemical_formula_structural       O12C4O4C4O4V4C4O4N4C44H8C20O4C4H12C36H16Br4CNCNCNCNBr4CNCNCNCN
_chemical_formula_sum              "O28 C124 V4 N12 H36 Br8"
_cell_length_a       7.03516
_cell_length_b       12.23923
_cell_length_c       35.52063
_cell_angle_alpha    89.99994
_cell_angle_beta     92.74027000000001
_cell_angle_gamma    89.99988999999998

_symmetry_space_group_name_H-M    'P 1'
_symmetry_Int_Tables_number       1

loop_
  _symmetry_equiv_pos_as_xyz
  'x,y,z'

loop_
  _atom_site_type_symbol
  _atom_site_label
  _atom_site_symmetry_multiplicity
  _atom_site_fract_x
  _atom_site_fract_y
  _atom_site_fract_z
  _atom_site_occupancy
  O   O1        1.0  0.37973  0.14859999999999998  0.66271  1.0000
  O   O2        1.0  0.62027  0.8513999999999999  0.3372900000000001  1.0000
  O   O3        1.0  0.12027000000000004  0.6486  0.3372900000000001  1.0000
  O   O4        1.0  0.87973  0.3513999999999999  0.66271  1.0000
  O   O5        1.0  0.72248  0.13449  0.7413300000000003  1.0000
  O   O6        1.0  0.27752  0.86551  0.25867  1.0000
  O   O7        1.0  0.77752  0.63449  0.25867  1.0000
  O   O8        1.0  0.22248  0.3655099999999999  0.7413300000000003  1.0000
  O   O9        1.0  0.89288  0.34589  0.7416000000000001  1.0000
  O   O10       1.0  0.10712000000000002  0.65411  0.25840000000000013  1.0000
  O   O11       1.0  0.6071199999999999  0.8458899999999998  0.25840000000000013  1.0000
  O   O12       1.0  0.39288  0.15411  0.7416000000000001  1.0000
  C   C1        1.0  0.55487  0.10953  0.7535  1.0000
  C   C2        1.0  0.44498999999999994  0.88972  0.24622000000000002  1.0000
  C   C3        1.0  0.94513  0.6095399999999999  0.24650000000000002  1.0000
  C   C4        1.0  0.05500999999999999  0.38971999999999996  0.75377  1.0000
  O   O13       1.0  0.70949  0.13556  0.66299  1.0000
  O   O14       1.0  0.29051  0.8644399999999999  0.33701  1.0000
  O   O15       1.0  0.79051  0.6355599999999999  0.33701  1.0000
  O   O16       1.0  0.20949  0.36444  0.66299  1.0000
  C   C5        1.0  0.53729  0.10685999999999997  0.65162  1.0000
  C   C6        1.0  0.46271  0.89314  0.34838000000000013  1.0000
  C   C7        1.0  0.96271  0.60686  0.34838000000000013  1.0000
  C   C8        1.0  0.03728999999999999  0.39313999999999993  0.65162  1.0000
  O   O17       1.0  0.5528  0.31661  0.70216  1.0000
  O   O18       1.0  0.4472  0.6833899999999998  0.29784  1.0000
  O   O19       1.0  0.9472  0.81661  0.29784  1.0000
  O   O20       1.0  0.05279999999999997  0.18339  0.70216  1.0000
  V   V1        1.0  0.82763  0.23438  0.70216  1.0000
  V   V2        1.0  0.17237  0.76562  0.29784  1.0000
  V   V3        1.0  0.6723699999999999  0.7343799999999999  0.29784  1.0000
  V   V4        1.0  0.32763  0.26561999999999997  0.70216  1.0000
  C   C9        1.0  0.00948000000000002  0.65557  0.9151400000000001  1.0000
  C   C10       1.0  0.97633  0.32236999999999993  0.09085  1.0000
  C   C11       1.0  0.49052  0.15556  0.08486  1.0000
  C   C12       1.0  0.52367  0.82237  0.90915  1.0000
  O   O21       1.0  0.9897799999999998  0.54763  0.9208100000000001  1.0000
  O   O22       1.0  0.97939  0.43014999999999987  0.08387  1.0000
  O   O23       1.0  0.51021  0.04763  0.07919  1.0000
  O   O24       1.0  0.52061  0.9301499999999999  0.91613  1.0000
  N   N1        1.0  0.03614000000000002  0.6948599999999999  0.87945  1.0000
  N   N2        1.0  0.95947  0.28506  0.12706  1.0000
  N   N3        1.0  0.46386  0.19485999999999998  0.12055000000000002  1.0000
  N   N4        1.0  0.54053  0.78505  0.87294  1.0000
  C   C13       1.0  0.057540000000000036  0.8054399999999998  0.8745700000000002  1.0000
  C   C14       1.0  0.95182  0.17445  0.13322000000000003  1.0000
  C   C15       1.0  0.44246  0.30543999999999993  0.12543  1.0000
  C   C16       1.0  0.5481800000000002  0.6744499999999999  0.86678  1.0000
  C   C17       1.0  0.94806  0.64219  0.8121  1.0000
  C   C18       1.0  0.05867999999999999  0.35012  0.19249  1.0000
  C   C19       1.0  0.55194  0.14219  0.1879  1.0000
  C   C20       1.0  0.44132  0.8501199999999998  0.80751  1.0000
  C   C21       1.0  0.95121  0.5678699999999999  0.78186  1.0000
  C   C22       1.0  0.060020000000000004  0.43078999999999995  0.22078000000000006  1.0000
  C   C23       1.0  0.54878  0.06787  0.21814  1.0000
  C   C24       1.0  0.43998000000000004  0.9307899999999998  0.7792200000000002  1.0000
  C   C25       1.0  0.15151000000000006  0.44713999999999987  0.8199600000000002  1.0000
  C   C26       1.0  0.83268  0.53652  0.18307  1.0000
  C   C27       1.0  0.34849  0.94714  0.18004000000000006  1.0000
  C   C28       1.0  0.66731  0.03652  0.8169300000000003  1.0000
  C   C29       1.0  0.14862  0.52148  0.85003  1.0000
  C   C30       1.0  0.8314299999999999  0.45605  0.15501  1.0000
  C   C31       1.0  0.35138  0.02148  0.14997  1.0000
  C   C32       1.0  0.66857  0.95605  0.84499  1.0000
  C   C33       1.0  0.045290000000000025  0.62008  0.84711  1.0000
  C   C34       1.0  0.9475299999999999  0.3624799999999999  0.15849000000000002  1.0000
  C   C35       1.0  0.45471  0.12007999999999999  0.15288  1.0000
  C   C36       1.0  0.55247  0.86248  0.84151  1.0000
  C   C37       1.0  0.022850000000000016  0.83944  0.94184  1.0000
  C   C38       1.0  0.97915  0.13681  0.06596  1.0000
  C   C39       1.0  0.47715  0.33944  0.05816  1.0000
  C   C40       1.0  0.52085  0.63681  0.9340400000000001  1.0000
  C   C41       1.0  0.99806  0.72681  0.94633  1.0000
  C   C42       1.0  0.99414  0.24966  0.0604  1.0000
  C   C43       1.0  0.50194  0.22681  0.05367  1.0000
  C   C44       1.0  0.50587  0.74965  0.9396000000000001  1.0000
  C   C45       1.0  0.9679899999999998  0.68597  0.98213  1.0000
  C   C46       1.0  0.01838  0.2894  0.02423000000000001  1.0000
  C   C47       1.0  0.53201  0.18596999999999994  0.017870000000000004  1.0000
  C   C48       1.0  0.48162  0.7893999999999999  0.97577  1.0000
  C   C49       1.0  0.06380000000000004  0.8784999999999998  0.9057600000000001  1.0000
  C   C50       1.0  0.9459700000000002  0.09923  0.10259000000000001  1.0000
  C   C51       1.0  0.4362  0.3785  0.09424000000000003  1.0000
  C   C52       1.0  0.5540299999999998  0.59923  0.89741  1.0000
  C   C53       1.0  0.052440000000000056  0.46932  0.7855000000000002  1.0000
  C   C54       1.0  0.948  0.5253  0.21627000000000005  1.0000
  C   C55       1.0  0.44755  0.9693199999999997  0.21451  1.0000
  C   C56       1.0  0.552  0.0253  0.78373  1.0000
  H   H1        1.0  0.22354000000000002  0.4998899999999999  0.8761300000000001  1.0000
  H   H2        1.0  0.74393  0.46933  0.12973  1.0000
  H   H3        1.0  0.27646  0.99989  0.12387  1.0000
  H   H4        1.0  0.75607  0.9693299999999999  0.87027  1.0000
  H   H5        1.0  0.95458  0.59836  0.98609  1.0000
  H   H6        1.0  0.02343  0.3769799999999999  0.019460000000000005  1.0000
  H   H7        1.0  0.54542  0.09835  0.01391  1.0000
  H   H8        1.0  0.47658000000000006  0.87698  0.9805400000000001  1.0000
  C   C57       1.0  0.95608  0.94865  0.04039  1.0000
  C   C58       1.0  0.05034000000000002  0.025629999999999997  0.96835  1.0000
  C   C59       1.0  0.54392  0.4486499999999999  0.95961  1.0000
  C   C60       1.0  0.44966  0.52563  0.03165  1.0000
  C   C61       1.0  0.028190000000000028  0.10273999999999997  0.99833  1.0000
  C   C62       1.0  0.97146  0.8715199999999999  0.00979  1.0000
  C   C63       1.0  0.47181  0.60274  0.00167  1.0000
  C   C64       1.0  0.52854  0.37152  0.99021  1.0000
  C   C65       1.0  0.99048  0.06222999999999999  0.03481  1.0000
  C   C66       1.0  0.01231999999999999  0.91257  0.97344  1.0000
  C   C67       1.0  0.5095200000000001  0.56222  0.9651800000000001  1.0000
  C   C68       1.0  0.48767999999999995  0.41256999999999994  0.02655  1.0000
  C   C69       1.0  0.89494  0.9184899999999998  0.07616  1.0000
  C   C70       1.0  0.12276000000000004  0.05637999999999999  0.9337400000000001  1.0000
  C   C71       1.0  0.6050599999999999  0.4184899999999999  0.92384  1.0000
  C   C72       1.0  0.37723  0.55638  0.06626  1.0000
  C   C73       1.0  0.89831  0.98876  0.10685  1.0000
  C   C74       1.0  0.11961000000000002  0.98824  0.9026100000000001  1.0000
  C   C75       1.0  0.6016899999999997  0.48875999999999986  0.89315  1.0000
  C   C76       1.0  0.38039  0.48823999999999995  0.09739  1.0000
  O   O25       1.0  0.95155  0.13703999999999997  0.1688  1.0000
  O   O26       1.0  0.07123000000000008  0.8452599999999998  0.8395900000000002  1.0000
  O   O27       1.0  0.54845  0.63704  0.8312000000000003  1.0000
  O   O28       1.0  0.42877  0.34525  0.16041  1.0000
  C   C77       1.0  0.9572299999999999  0.75449  0.01341  1.0000
  C   C78       1.0  0.032550000000000016  0.21950999999999996  0.9935400000000001  1.0000
  C   C79       1.0  0.54277  0.25448999999999994  0.9865900000000001  1.0000
  C   C80       1.0  0.46745  0.7195  0.006460000000000001  1.0000
  H   H9        1.0  0.14894  0.4193699999999999  0.24621  1.0000
  H   H10       1.0  0.8729099999999997  0.5869699999999999  0.7557  1.0000
  H   H11       1.0  0.35107  0.9193699999999998  0.7537900000000001  1.0000
  H   H12       1.0  0.6270799999999999  0.08696999999999999  0.24430000000000002  1.0000
  H   H13       1.0  0.15095  0.28019999999999995  0.19686  1.0000
  H   H14       1.0  0.863  0.71521  0.80824  1.0000
  H   H15       1.0  0.34906000000000004  0.7801999999999999  0.8031400000000002  1.0000
  H   H16       1.0  0.63699  0.21521  0.19176  1.0000
  H   H17       1.0  0.8266  0.8430399999999998  0.08124000000000002  1.0000
  H   H18       1.0  0.19756000000000004  0.13135  0.9304600000000001  1.0000
  H   H19       1.0  0.67341  0.34303  0.91876  1.0000
  H   H20       1.0  0.30243  0.63134  0.06953  1.0000
  C   C81       1.0  0.98465  0.52817  0.3789500000000001  1.0000
  C   C82       1.0  0.015350000000000056  0.47181  0.6210400000000003  1.0000
  C   C83       1.0  0.51535  0.02817  0.62105  1.0000
  C   C84       1.0  0.48464  0.9718099999999997  0.37896  1.0000
  C   C85       1.0  0.11584  0.36007  0.40403  1.0000
  C   C86       1.0  0.88424  0.6399299999999999  0.59596  1.0000
  C   C87       1.0  0.38421  0.86006  0.59597  1.0000
  C   C88       1.0  0.61576  0.13993  0.40403  1.0000
  C   C89       1.0  0.07833  0.42931999999999987  0.37353  1.0000
  C   C90       1.0  0.9217600000000001  0.57069  0.6264600000000002  1.0000
  C   C91       1.0  0.42174  0.9293099999999997  0.62647  1.0000
  C   C92       1.0  0.57825  0.07069  0.37354000000000004  1.0000
  C   C93       1.0  0.9370999999999999  0.5598599999999999  0.41496  1.0000
  C   C94       1.0  0.06282000000000001  0.44009  0.58503  1.0000
  C   C95       1.0  0.56283  0.05989  0.58503  1.0000
  C   C96       1.0  0.43715  0.9401  0.41497000000000006  1.0000
  C   C97       1.0  0.0005600000000000034  0.49946999999999997  0.44694  1.0000
  C   C98       1.0  0.99939  0.50049  0.55305  1.0000
  C   C99       1.0  0.49939000000000006  0.9994799999999998  0.55306  1.0000
  C   C100      1.0  0.5005700000000001  0.0005  0.4469500000000001  1.0000
  C   C101      1.0  0.07526000000000001  0.39389  0.4405500000000001  1.0000
  C   C102      1.0  0.9247399999999999  0.60608  0.5594400000000003  1.0000
  C   C103      1.0  0.42473  0.8938999999999999  0.55945  1.0000
  C   C104      1.0  0.57522  0.10608999999999999  0.44056  1.0000
  C   C105      1.0  0.9858899999999999  0.5381899999999998  0.48475000000000007  1.0000
  C   C106      1.0  0.014040000000000049  0.4617599999999999  0.5152400000000003  1.0000
  C   C107      1.0  0.51404  0.03821  0.51525  1.0000
  C   C108      1.0  0.4859  0.96178  0.48475000000000007  1.0000
  C   C109      1.0  0.051720000000000016  0.3498599999999999  0.5063500000000001  1.0000
  C   C110      1.0  0.94822  0.65009  0.49364  1.0000
  C   C111      1.0  0.44823  0.84988  0.49365000000000003  1.0000
  C   C112      1.0  0.5517  0.15011  0.50636  1.0000
  C   C113      1.0  0.09778000000000002  0.32043999999999995  0.47013000000000005  1.0000
  C   C114      1.0  0.90221  0.6795299999999999  0.52986  1.0000
  C   C115      1.0  0.4022  0.8204499999999999  0.52987  1.0000
  C   C116      1.0  0.59773  0.17954999999999996  0.47013000000000005  1.0000
  H   H21       1.0  0.13824000000000003  0.23662  0.46437000000000006  1.0000
  H   H22       1.0  0.86179  0.7633599999999998  0.53562  1.0000
  H   H23       1.0  0.36177  0.73662  0.53563  1.0000
  H   H24       1.0  0.63816  0.26337  0.46437000000000006  1.0000
  H   H25       1.0  0.14979000000000003  0.3682299999999999  0.5829900000000001  1.0000
  H   H26       1.0  0.85007  0.6316999999999999  0.417  1.0000
  H   H27       1.0  0.35018  0.86824  0.4170100000000001  1.0000
  H   H28       1.0  0.64982  0.13174  0.583  1.0000
  H   H29       1.0  0.88184  0.5950099999999999  0.65432  1.0000
  H   H30       1.0  0.11832999999999999  0.40502  0.34567  1.0000
  H   H31       1.0  0.6182  0.09501  0.34568  1.0000
  H   H32       1.0  0.3818  0.9049899999999997  0.6543300000000001  1.0000
  H   H33       1.0  0.17827  0.28064  0.39917  1.0000
  H   H34       1.0  0.82189  0.71938  0.60083  1.0000
  H   H35       1.0  0.32184  0.7806099999999999  0.60084  1.0000
  H   H36       1.0  0.67813  0.21938  0.39917  1.0000
  Br  Br1       1.0  0.27427  0.30983999999999995  0.8284  1.0000
  Br  Br2       1.0  0.68999  0.6665399999999999  0.17311000000000007  1.0000
  Br  Br3       1.0  0.22573  0.8098399999999998  0.17159  1.0000
  Br  Br4       1.0  0.81001  0.16653999999999994  0.82689  1.0000
  C   C117      1.0  0.024389999999999995  0.25911999999999996  0.53161  1.0000
  N   N5        1.0  0.003040000000000006  0.18574  0.55154  1.0000
  C   C118      1.0  0.9755499999999999  0.7408299999999998  0.46837  1.0000
  N   N6        1.0  0.9969  0.8141999999999999  0.44844  1.0000
  C   C119      1.0  0.47555  0.75913  0.46838  1.0000
  N   N7        1.0  0.4969  0.68575  0.44846  1.0000
  C   C120      1.0  0.52438  0.24086  0.53162  1.0000
  N   N8        1.0  0.50305  0.31423  0.55155  1.0000
  Br  Br5       1.0  0.8043  0.9281499999999999  0.15193  1.0000
  Br  Br6       1.0  0.22376000000000001  0.050699999999999995  0.8588000000000002  1.0000
  Br  Br7       1.0  0.6957099999999999  0.42815  0.84807  1.0000
  Br  Br8       1.0  0.27624  0.5507  0.14119  1.0000
  C   C121      1.0  0.94108  0.69612  0.04831  1.0000
  N   N9        1.0  0.9259  0.6492399999999999  0.07628  1.0000
  C   C122      1.0  0.034920000000000014  0.27524  0.9577400000000001  1.0000
  N   N10       1.0  0.03942999999999998  0.31995  0.9291  1.0000
  C   C123      1.0  0.5589100000000001  0.19611999999999993  0.9516900000000001  1.0000
  N   N11       1.0  0.57409  0.14924  0.9237200000000001  1.0000
  C   C124      1.0  0.4650899999999999  0.7752399999999999  0.04226  1.0000
  N   N12       1.0  0.46059  0.8199399999999999  0.0709  1.0000
