data_image0
_chemical_formula_structural       C120Cr12H64O52CHOCHOCHOCHOH4
_chemical_formula_sum              "C124 Cr12 H72 O56"
_cell_length_a       18.94977
_cell_length_b       10.98721
_cell_length_c       18.65382
_cell_angle_alpha    90.09892999999998
_cell_angle_beta     90.93892
_cell_angle_gamma    89.88532

_space_group_name_H-M_alt    "P 1"
_space_group_IT_number       1

loop_
  _space_group_symop_operation_xyz
  'x, y, z'

loop_
  _atom_site_type_symbol
  _atom_site_label
  _atom_site_symmetry_multiplicity
  _atom_site_fract_x
  _atom_site_fract_y
  _atom_site_fract_z
  _atom_site_occupancy
  C   C1        1.0  0.29055  0.9964499999999998  0.8607599999999999  1.0000
  C   C2        1.0  0.70958  0.99653  0.1391  1.0000
  C   C3        1.0  0.7905499999999999  0.49645  0.8607599999999999  1.0000
  C   C4        1.0  0.20957999999999993  0.49652999999999997  0.1391  1.0000
  C   C5        1.0  0.52899  0.72893  0.97078  1.0000
  C   C6        1.0  0.47213  0.7280999999999999  0.028719999999999996  1.0000
  C   C7        1.0  0.02899  0.22893  0.97078  1.0000
  C   C8        1.0  0.9721299999999999  0.22809999999999997  0.028719999999999996  1.0000
  C   C9        1.0  0.21872999999999998  0.51153  0.06174  1.0000
  C   C10       1.0  0.7816  0.51117  0.93816  1.0000
  C   C11       1.0  0.71873  0.011529999999999999  0.06174  1.0000
  C   C12       1.0  0.2816  0.01117  0.93816  1.0000
  C   C13       1.0  0.27383  0.45681  0.02389  1.0000
  C   C14       1.0  0.72683  0.4561  0.9760400000000001  1.0000
  C   C15       1.0  0.7738299999999998  0.9568099999999999  0.02389  1.0000
  C   C16       1.0  0.22681999999999997  0.9560999999999997  0.9760400000000001  1.0000
  C   C17       1.0  0.28529  0.4860299999999999  0.95246  1.0000
  C   C18       1.0  0.71525  0.4856399999999999  0.04746  1.0000
  C   C19       1.0  0.78529  0.98603  0.95246  1.0000
  C   C20       1.0  0.21526  0.98564  0.04746  1.0000
  C   C21       1.0  0.17732  0.6001799999999999  0.9497600000000002  1.0000
  C   C22       1.0  0.8225899999999999  0.60091  0.04999  1.0000
  C   C23       1.0  0.67732  0.10017999999999999  0.9497600000000002  1.0000
  C   C24       1.0  0.32258999999999993  0.10091  0.04999  1.0000
  C   C25       1.0  0.16726  0.5752  0.02196  1.0000
  C   C26       1.0  0.83278  0.57544  0.97786  1.0000
  C   C27       1.0  0.6672599999999999  0.0752  0.02196  1.0000
  C   C28       1.0  0.33277999999999996  0.07544  0.97786  1.0000
  C   C29       1.0  0.35093  0.45249999999999996  0.04047  1.0000
  C   C30       1.0  0.64975  0.45079  0.95953  1.0000
  C   C31       1.0  0.8509299999999999  0.9525  0.04047  1.0000
  C   C32       1.0  0.14974000000000004  0.95079  0.95953  1.0000
  C   C33       1.0  0.36335  0.48385  0.9621899999999999  1.0000
  C   C34       1.0  0.63719  0.48274  0.03778  1.0000
  C   C35       1.0  0.8633499999999997  0.9838499999999999  0.9621899999999999  1.0000
  C   C36       1.0  0.13719  0.9827399999999997  0.03778  1.0000
  C   C37       1.0  0.24063  0.56766  0.91614  1.0000
  C   C38       1.0  0.75952  0.56785  0.08371  1.0000
  C   C39       1.0  0.7406299999999998  0.06766  0.91614  1.0000
  C   C40       1.0  0.25952  0.06784999999999998  0.08371  1.0000
  C   C41       1.0  0.5098499999999999  0.83077  0.4281  1.0000
  C   C42       1.0  0.5053  0.84427  0.57877  1.0000
  C   C43       1.0  0.00985  0.33077  0.4281  1.0000
  C   C44       1.0  0.0053  0.34427  0.57877  1.0000
  C   C45       1.0  0.46962  0.82156  0.85572  1.0000
  C   C46       1.0  0.5305  0.8215099999999997  0.14423  1.0000
  C   C47       1.0  0.9696199999999998  0.32155999999999996  0.85572  1.0000
  C   C48       1.0  0.0305  0.32151  0.14423  1.0000
  C   C49       1.0  0.53869  0.74047  0.47225  1.0000
  C   C50       1.0  0.53741  0.7465099999999999  0.54515  1.0000
  C   C51       1.0  0.03869  0.24047  0.47225  1.0000
  C   C52       1.0  0.03741  0.24650999999999998  0.54515  1.0000
  C   C53       1.0  0.4903  0.9510799999999999  0.53652  1.0000
  C   C54       1.0  0.48709  0.9404699999999998  0.46036  1.0000
  C   C55       1.0  0.9903  0.4510799999999999  0.53652  1.0000
  C   C56       1.0  0.9870899999999999  0.44047  0.46036  1.0000
  C   C57       1.0  0.53131  0.60533  0.47120000000000006  1.0000
  C   C58       1.0  0.53346  0.61095  0.55248  1.0000
  C   C59       1.0  0.03130999999999999  0.10533  0.47120000000000006  1.0000
  C   C60       1.0  0.03345  0.11094999999999998  0.55248  1.0000
  C   C61       1.0  0.25297  0.6159699999999999  0.41555  1.0000
  C   C62       1.0  0.75118  0.58329  0.5761  1.0000
  C   C63       1.0  0.75297  0.11596999999999998  0.41555  1.0000
  C   C64       1.0  0.25118  0.08328999999999999  0.5761  1.0000
  C   C65       1.0  0.20299999999999999  0.68649  0.45132000000000005  1.0000
  C   C66       1.0  0.79664  0.66295  0.54353  1.0000
  C   C67       1.0  0.7029999999999997  0.18649  0.45132000000000005  1.0000
  C   C68       1.0  0.29663999999999996  0.16295  0.54353  1.0000
  C   C69       1.0  0.21211  0.7135199999999999  0.52237  1.0000
  C   C70       1.0  0.7978499999999997  0.67068  0.47091  1.0000
  C   C71       1.0  0.71212  0.21351999999999996  0.52237  1.0000
  C   C72       1.0  0.29785  0.17068  0.47091  1.0000
  C   C73       1.0  0.32878  0.6276  0.52088  1.0000
  C   C74       1.0  0.71194  0.50962  0.45930999999999994  1.0000
  C   C75       1.0  0.8287799999999999  0.1276  0.52088  1.0000
  C   C76       1.0  0.21194  0.00962  0.45930999999999994  1.0000
  C   C77       1.0  0.3192  0.59726  0.44826000000000005  1.0000
  C   C78       1.0  0.70969  0.50421  0.53358  1.0000
  C   C79       1.0  0.8192  0.09725999999999999  0.44826000000000005  1.0000
  C   C80       1.0  0.20969  0.00421  0.53358  1.0000
  C   C81       1.0  0.1256  0.66401  0.4603300000000001  1.0000
  C   C82       1.0  0.8036999999999997  0.7965099999999999  0.55476  1.0000
  C   C83       1.0  0.6256  0.16401  0.4603300000000001  1.0000
  C   C84       1.0  0.3037  0.29651  0.55476  1.0000
  C   C85       1.0  0.13638  0.69031  0.53871  1.0000
  C   C86       1.0  0.8050699999999998  0.80635  0.47416  1.0000
  C   C87       1.0  0.63638  0.19031  0.53871  1.0000
  C   C88       1.0  0.30507  0.30635  0.47416  1.0000
  C   C89       1.0  0.25971  0.6339099999999999  0.85093  1.0000
  C   C90       1.0  0.7403199999999999  0.6339699999999999  0.14904  1.0000
  C   C91       1.0  0.7597  0.13391  0.85093  1.0000
  C   C92       1.0  0.24031999999999998  0.13396999999999998  0.14904  1.0000
  C   C93       1.0  0.27235  0.67629  0.55975  1.0000
  C   C94       1.0  0.75331  0.59846  0.42789  1.0000
  C   C95       1.0  0.77235  0.17628999999999997  0.55975  1.0000
  C   C96       1.0  0.25332  0.09845999999999999  0.42789  1.0000
  C   C97       1.0  0.2705  0.04667  0.64692  1.0000
  C   C98       1.0  0.7294699999999998  0.049839999999999995  0.35234  1.0000
  C   C99       1.0  0.7704999999999997  0.54667  0.64692  1.0000
  C   C100      1.0  0.22947  0.54984  0.35234  1.0000
  C   C101      1.0  0.47111  0.82533  0.64759  1.0000
  C   C102      1.0  0.5299  0.8234399999999998  0.35321  1.0000
  C   C103      1.0  0.9711099999999999  0.32532999999999995  0.64759  1.0000
  C   C104      1.0  0.029899999999999993  0.32344  0.35321  1.0000
  C   C105      1.0  0.27488999999999997  0.6915999999999999  0.63696  1.0000
  C   C106      1.0  0.7406099999999999  0.63758  0.35612  1.0000
  C   C107      1.0  0.77489  0.19159999999999996  0.63696  1.0000
  C   C108      1.0  0.24061  0.13758  0.35612  1.0000
  C   C109      1.0  0.47117999999999993  0.9279799999999999  0.029490000000000002  1.0000
  C   C110      1.0  0.52815  0.9287899999999998  0.97091  1.0000
  C   C111      1.0  0.97118  0.42798  0.029490000000000002  1.0000
  C   C112      1.0  0.028149999999999998  0.42878999999999995  0.97091  1.0000
  C   C113      1.0  0.43018999999999996  0.8274199999999999  0.98837  1.0000
  C   C114      1.0  0.57002  0.8287399999999999  0.01159  1.0000
  C   C115      1.0  0.93019  0.32743  0.98837  1.0000
  C   C116      1.0  0.07002  0.32874  0.01159  1.0000
  C   C117      1.0  0.48797  0.8284  0.93136  1.0000
  C   C118      1.0  0.51224  0.8280999999999998  0.06858  1.0000
  C   C119      1.0  0.98797  0.3284  0.93136  1.0000
  C   C120      1.0  0.012229999999999998  0.3281  0.06858  1.0000
  Cr  Cr1       1.0  0.22963999999999998  0.83588  0.74737  1.0000
  Cr  Cr2       1.0  0.77036  0.83588  0.25263  1.0000
  Cr  Cr3       1.0  0.72964  0.33587999999999996  0.74737  1.0000
  Cr  Cr4       1.0  0.27036  0.33587999999999996  0.25263  1.0000
  Cr  Cr5       1.0  0.38739  0.9897199999999998  0.75085  1.0000
  Cr  Cr6       1.0  0.61261  0.9897199999999998  0.24915000000000004  1.0000
  Cr  Cr7       1.0  0.8873899999999999  0.48971999999999993  0.75085  1.0000
  Cr  Cr8       1.0  0.11261  0.48971999999999993  0.24915000000000004  1.0000
  Cr  Cr9       1.0  0.38577  0.6772199999999999  0.74934  1.0000
  Cr  Cr10      1.0  0.6142299999999998  0.6772199999999999  0.25066  1.0000
  Cr  Cr11      1.0  0.88577  0.17721999999999996  0.74934  1.0000
  Cr  Cr12      1.0  0.11423  0.17721999999999996  0.25066  1.0000
  H   H1        1.0  0.37265  0.82296  0.97702  1.0000
  H   H2        1.0  0.6275799999999999  0.82495  0.02296  1.0000
  H   H3        1.0  0.87265  0.32296  0.97702  1.0000
  H   H4        1.0  0.12758  0.32495  0.02296  1.0000
  H   H5        1.0  0.07717  0.05937999999999999  0.44759  1.0000
  H   H6        1.0  0.9853899999999999  0.0745  0.577  1.0000
  H   H7        1.0  0.57717  0.55938  0.44759  1.0000
  H   H8        1.0  0.48539  0.5745  0.577  1.0000
  H   H9        1.0  0.47956999999999994  0.57553  0.44887  1.0000
  H   H10       1.0  0.58252  0.5736999999999999  0.57681  1.0000
  H   H11       1.0  0.97957  0.07553  0.44887  1.0000
  H   H12       1.0  0.08252  0.07369999999999999  0.57681  1.0000
  H   H13       1.0  0.37706  0.6029299999999999  0.5479  1.0000
  H   H14       1.0  0.67858  0.45048999999999995  0.427  1.0000
  H   H15       1.0  0.87706  0.10292999999999998  0.5479  1.0000
  H   H16       1.0  0.17858  0.9504899999999998  0.427  1.0000
  H   H17       1.0  0.36004  0.54832  0.42043  1.0000
  H   H18       1.0  0.67638  0.43754  0.55805  1.0000
  H   H19       1.0  0.86004  0.048319999999999995  0.42043  1.0000
  H   H20       1.0  0.17637999999999993  0.93754  0.55805  1.0000
  H   H21       1.0  0.11046999999999998  0.56786  0.45027  1.0000
  H   H22       1.0  0.85474  0.82119  0.58112  1.0000
  H   H23       1.0  0.61047  0.06786  0.45027  1.0000
  H   H24       1.0  0.35474  0.32119  0.58112  1.0000
  H   H25       1.0  0.10709999999999999  0.77202  0.55686  1.0000
  H   H26       1.0  0.75785  0.8539599999999998  0.45192000000000004  1.0000
  H   H27       1.0  0.6071  0.27202  0.55686  1.0000
  H   H28       1.0  0.25784999999999997  0.35396  0.45192000000000004  1.0000
  H   H29       1.0  0.13002  0.60786  0.57242  1.0000
  H   H30       1.0  0.85683  0.83687  0.45365999999999995  1.0000
  H   H31       1.0  0.63002  0.10786000000000003  0.57242  1.0000
  H   H32       1.0  0.35683  0.33687  0.45365999999999995  1.0000
  H   H33       1.0  0.45183  0.00911  0.0582  1.0000
  H   H34       1.0  0.54688  0.010679999999999999  0.9427700000000001  1.0000
  H   H35       1.0  0.9518299999999998  0.50911  0.0582  1.0000
  H   H36       1.0  0.04687999999999999  0.5106799999999999  0.9427700000000001  1.0000
  H   H37       1.0  0.54931  0.6482099999999998  0.94275  1.0000
  H   H38       1.0  0.45271  0.6465  0.056280000000000004  1.0000
  H   H39       1.0  0.04931  0.14820999999999998  0.94275  1.0000
  H   H40       1.0  0.95271  0.1465  0.056280000000000004  1.0000
  H   H41       1.0  0.13771  0.65458  0.9223799999999999  1.0000
  H   H42       1.0  0.86189  0.6560599999999999  0.07723  1.0000
  H   H43       1.0  0.63771  0.15457999999999997  0.9223799999999999  1.0000
  H   H44       1.0  0.36189  0.15606  0.07723  1.0000
  H   H45       1.0  0.12025999999999998  0.61043  0.04706  1.0000
  H   H46       1.0  0.87957  0.61098  0.95274  1.0000
  H   H47       1.0  0.62026  0.11042999999999999  0.04706  1.0000
  H   H48       1.0  0.37957  0.11098  0.95274  1.0000
  H   H49       1.0  0.86933  0.8599199999999999  0.05494  1.0000
  H   H50       1.0  0.1319  0.85789  0.94522  1.0000
  H   H51       1.0  0.36932999999999994  0.35991999999999996  0.05494  1.0000
  H   H52       1.0  0.63189  0.3579  0.94522  1.0000
  H   H53       1.0  0.3663  0.52418  0.07948  1.0000
  H   H54       1.0  0.63389  0.5218  0.9204  1.0000
  H   H55       1.0  0.8663  0.02418  0.07948  1.0000
  H   H56       1.0  0.13389  0.0218  0.9204  1.0000
  H   H57       1.0  0.38717999999999997  0.57451  0.95361  1.0000
  H   H58       1.0  0.61287  0.57327  0.04623  1.0000
  H   H59       1.0  0.8871799999999999  0.07450999999999999  0.95361  1.0000
  H   H60       1.0  0.11286999999999997  0.07326999999999999  0.04623  1.0000
  H   H61       1.0  0.38799999999999996  0.40825999999999996  0.93177  1.0000
  H   H62       1.0  0.61294  0.40721  0.06830000000000001  1.0000
  H   H63       1.0  0.888  0.9082599999999998  0.93177  1.0000
  H   H64       1.0  0.11294  0.9072099999999998  0.06830000000000001  1.0000
  O   O1        1.0  0.2143  0.70908  0.8275  1.0000
  O   O2        1.0  0.7857  0.70908  0.1725  1.0000
  O   O3        1.0  0.7143  0.20907999999999993  0.8275  1.0000
  O   O4        1.0  0.2857  0.20907999999999993  0.1725  1.0000
  O   O5        1.0  0.4459  0.91937  0.6765  1.0000
  O   O6        1.0  0.5541  0.91937  0.3235  1.0000
  O   O7        1.0  0.9459  0.41936999999999997  0.6765  1.0000
  O   O8        1.0  0.0541  0.41936999999999997  0.3235  1.0000
  O   O9        1.0  0.45665999999999995  0.7177099999999998  0.66982  1.0000
  O   O10       1.0  0.5433399999999999  0.7177099999999998  0.33018  1.0000
  O   O11       1.0  0.95666  0.21770999999999996  0.66982  1.0000
  O   O12       1.0  0.04334  0.21770999999999996  0.33018  1.0000
  O   O13       1.0  0.32059  0.6257699999999999  0.67293  1.0000
  O   O14       1.0  0.67941  0.6257699999999999  0.32707  1.0000
  O   O15       1.0  0.82059  0.12577  0.67293  1.0000
  O   O16       1.0  0.17941  0.12577  0.32707  1.0000
  O   O17       1.0  0.33427  0.83428  0.74919  1.0000
  O   O18       1.0  0.66573  0.83428  0.25081  1.0000
  O   O19       1.0  0.83427  0.33428  0.74919  1.0000
  O   O20       1.0  0.16573  0.33428  0.25081  1.0000
  O   O21       1.0  0.23619  0.9583899999999999  0.82315  1.0000
  O   O22       1.0  0.7638099999999998  0.9583899999999999  0.17685  1.0000
  O   O23       1.0  0.73619  0.45839  0.82315  1.0000
  O   O24       1.0  0.26381  0.45839  0.17685  1.0000
  O   O25       1.0  0.33208999999999994  0.07528  0.83129  1.0000
  O   O26       1.0  0.66791  0.07528  0.16871  1.0000
  O   O27       1.0  0.8320899999999999  0.57528  0.83129  1.0000
  O   O28       1.0  0.16791  0.57528  0.16871  1.0000
  O   O29       1.0  0.44627999999999995  0.9180399999999997  0.82662  1.0000
  O   O30       1.0  0.55372  0.9180399999999997  0.17338  1.0000
  O   O31       1.0  0.94628  0.41804  0.82662  1.0000
  O   O32       1.0  0.05372  0.41804  0.17338  1.0000
  O   O33       1.0  0.45708  0.71627  0.83176  1.0000
  O   O34       1.0  0.54292  0.71627  0.16824  1.0000
  O   O35       1.0  0.95708  0.21627  0.83176  1.0000
  O   O36       1.0  0.04292  0.21627  0.16824  1.0000
  O   O37       1.0  0.32098  0.62444  0.82304  1.0000
  O   O38       1.0  0.67902  0.62444  0.17696000000000003  1.0000
  O   O39       1.0  0.8209799999999998  0.12444  0.82304  1.0000
  O   O40       1.0  0.17902  0.12444  0.17696000000000003  1.0000
  O   O41       1.0  0.21388  0.71051  0.66556  1.0000
  O   O42       1.0  0.78612  0.71051  0.33444  1.0000
  O   O43       1.0  0.7138799999999997  0.21051  0.66556  1.0000
  O   O44       1.0  0.28612  0.21051  0.33444  1.0000
  O   O45       1.0  0.23579999999999998  0.9597199999999998  0.67304  1.0000
  O   O46       1.0  0.7642  0.9597199999999998  0.32696  1.0000
  O   O47       1.0  0.7358  0.4597199999999999  0.67304  1.0000
  O   O48       1.0  0.2642  0.4597199999999999  0.32696  1.0000
  O   O49       1.0  0.3316699999999999  0.07672  0.66935  1.0000
  O   O50       1.0  0.6683299999999999  0.07672  0.33065  1.0000
  O   O51       1.0  0.83167  0.57672  0.66935  1.0000
  O   O52       1.0  0.16833  0.57672  0.33065  1.0000
  C   C121      1.0  0.47552999999999995  0.07166  0.57003  1.0000
  H   H65       1.0  0.43826  0.13422  0.54568  1.0000
  O   O53       1.0  0.50728  0.10466  0.6241  1.0000
  C   C122      1.0  0.45847999999999994  0.04157  0.41524  1.0000
  H   H66       1.0  0.46664999999999995  0.13577  0.43045  1.0000
  O   O54       1.0  0.42408  0.02009  0.36076  1.0000
  C   C123      1.0  0.97553  0.57166  0.57003  1.0000
  H   H67       1.0  0.93826  0.63422  0.54568  1.0000
  O   O55       1.0  0.00728  0.60466  0.6241  1.0000
  C   C124      1.0  0.95848  0.54157  0.41524  1.0000
  H   H68       1.0  0.96666  0.63577  0.43045  1.0000
  O   O56       1.0  0.92408  0.5200899999999999  0.36076  1.0000
  H   H69       1.0  0.09251999999999999  0.7332999999999998  0.4322099999999999  1.0000
  H   H70       1.0  0.75606  0.8383699999999998  0.57879  1.0000
  H   H71       1.0  0.59252  0.23329999999999995  0.4322099999999999  1.0000
  H   H72       1.0  0.25605999999999995  0.33837  0.57879  1.0000
