data_image0
_chemical_formula_structural       O4C2O4C2O2V2C2H6C26H10C2H2C2H2C4H2C4O4C2O4C2O2V2SO3HSO3H
_chemical_formula_sum              "O26 C48 V4 H24 S2"
_cell_length_a       20.05701
_cell_length_b       7.25839
_cell_length_c       13.678109999999998
_cell_angle_alpha    89.99953999999998
_cell_angle_beta     102.83552
_cell_angle_gamma    90.00221999999998

_symmetry_space_group_name_H-M    'P 1'
_symmetry_Int_Tables_number       1

loop_
  _symmetry_equiv_pos_as_xyz
  'x,y,z'

loop_
  _atom_site_type_symbol
  _atom_site_label
  _atom_site_symmetry_multiplicity
  _atom_site_fract_x
  _atom_site_fract_y
  _atom_site_fract_z
  _atom_site_occupancy
  O   O1        1.0  0.44956000000000007  0.50681  0.5997  1.0000
  O   O2        1.0  0.5504399999999999  0.00681  0.40029999999999993  1.0000
  O   O3        1.0  0.58796  0.18005999999999997  0.59576  1.0000
  O   O4        1.0  0.4120400000000001  0.68006  0.40423999999999993  1.0000
  C   C1        1.0  0.61497  0.34468  0.61675  1.0000
  C   C2        1.0  0.38503000000000004  0.8446699999999998  0.3832399999999999  1.0000
  O   O5        1.0  0.45238  0.17743  0.6116999999999999  1.0000
  O   O6        1.0  0.54762  0.67743  0.38829999999999987  1.0000
  O   O7        1.0  0.4139  0.0018899999999999995  0.4163499999999999  1.0000
  O   O8        1.0  0.5861  0.50189  0.58365  1.0000
  C   C3        1.0  0.43654000000000004  0.3448399999999999  0.63773  1.0000
  C   C4        1.0  0.56346  0.8448399999999998  0.36227  1.0000
  O   O9        1.0  0.4875299999999999  0.33749  0.4358899999999999  1.0000
  O   O10       1.0  0.5124700000000002  0.83749  0.56411  1.0000
  V   V1        1.0  0.50231  0.06466  0.51189  1.0000
  V   V2        1.0  0.49768999999999997  0.56466  0.4881099999999999  1.0000
  C   C5        1.0  0.6165100000000001  0.70617  0.1289  1.0000
  C   C6        1.0  0.38348  0.20613999999999996  0.8711  1.0000
  H   H1        1.0  0.52115  0.7204  0.17403  1.0000
  H   H2        1.0  0.47884  0.22031999999999993  0.8259699999999998  1.0000
  H   H3        1.0  0.70591  0.60411  0.02363  1.0000
  H   H4        1.0  0.29407  0.10408  0.97637  1.0000
  H   H5        1.0  0.59373  0.63681  0.05930999999999999  1.0000
  H   H6        1.0  0.40626  0.13674  0.94068  1.0000
  C   C7        1.0  0.60297  0.84251  0.28450999999999993  1.0000
  C   C8        1.0  0.39703  0.3425  0.7155  1.0000
  C   C9        1.0  0.92934  0.94946  0.30927  1.0000
  C   C10       1.0  0.07067999999999999  0.44952  0.6907399999999999  1.0000
  C   C11       1.0  0.8923300000000002  0.98323  0.3819399999999999  1.0000
  C   C12       1.0  0.10768000000000001  0.48332999999999987  0.61808  1.0000
  C   C13       1.0  0.8228200000000001  0.9428199999999998  0.36334  1.0000
  C   C14       1.0  0.17718999999999996  0.4429  0.6366899999999998  1.0000
  C   C15       1.0  0.78887  0.86124  0.27171999999999996  1.0000
  C   C16       1.0  0.21113  0.3612899999999999  0.7282999999999998  1.0000
  C   C17       1.0  0.8285500000000001  0.8127999999999997  0.20086999999999994  1.0000
  C   C18       1.0  0.17145  0.3128099999999999  0.7991299999999999  1.0000
  C   C19       1.0  0.71677  0.82922  0.24717999999999998  1.0000
  C   C20       1.0  0.2832299999999999  0.32924  0.7528399999999997  1.0000
  C   C21       1.0  0.6871  0.73844  0.15570999999999993  1.0000
  C   C22       1.0  0.31289999999999996  0.23843  0.8442999999999999  1.0000
  C   C23       1.0  0.72803  0.67797  0.09206  1.0000
  C   C24       1.0  0.27196000000000004  0.17795  0.90794  1.0000
  C   C25       1.0  0.79735  0.7172399999999998  0.11318999999999997  1.0000
  C   C26       1.0  0.20264000000000001  0.21719  0.8868  1.0000
  C   C27       1.0  0.6729300000000001  0.8824899999999998  0.31036999999999987  1.0000
  C   C28       1.0  0.32708  0.38252  0.68965  1.0000
  C   C29       1.0  0.57493  0.7563899999999999  0.19325  1.0000
  C   C30       1.0  0.42507  0.25634  0.80675  1.0000
  C   C31       1.0  0.89821  0.86602  0.21833999999999995  1.0000
  C   C32       1.0  0.10179  0.36604  0.7816599999999999  1.0000
  H   H7        1.0  0.6918099999999999  0.9460499999999997  0.38237999999999994  1.0000
  H   H8        1.0  0.3082  0.44611  0.61764  1.0000
  H   H9        1.0  0.98241  0.99202  0.32319  1.0000
  H   H10       1.0  0.017599999999999966  0.4920799999999999  0.6768299999999998  1.0000
  H   H11       1.0  0.7973  0.97708  0.4223499999999999  1.0000
  H   H12       1.0  0.20272000000000004  0.4772  0.57768  1.0000
  H   H13       1.0  0.9172399999999999  0.046949999999999985  0.4521499999999999  1.0000
  H   H14       1.0  0.08278  0.54708  0.54788  1.0000
  H   H15       1.0  0.8259200000000001  0.67204  0.05938  1.0000
  H   H16       1.0  0.17406999999999997  0.17190999999999995  0.9405799999999997  1.0000
  C   C33       1.0  0.20538  0.99598  0.2545  1.0000
  C   C34       1.0  0.79454  0.4963  0.74573  1.0000
  H   H17       1.0  0.17024  0.10530999999999997  0.26256  1.0000
  H   H18       1.0  0.82961  0.60594  0.73785  1.0000
  C   C35       1.0  0.27031  0.99464  0.31908  1.0000
  C   C36       1.0  0.72961  0.49497999999999986  0.6811599999999998  1.0000
  H   H19       1.0  0.2836  0.10261  0.37465999999999994  1.0000
  H   H20       1.0  0.7162500000000002  0.6032599999999998  0.6257599999999998  1.0000
  C   C37       1.0  0.31675000000000003  0.85246  0.3138299999999999  1.0000
  C   C38       1.0  0.68325  0.35246  0.68616  1.0000
  C   C39       1.0  0.29786  0.71575  0.24092  1.0000
  C   C40       1.0  0.70222  0.21534999999999996  0.75882  1.0000
  H   H21       1.0  0.3342800000000001  0.60851  0.23526  1.0000
  H   H22       1.0  0.66587  0.10783  0.76429  1.0000
  C   C41       1.0  0.23421000000000003  0.71923  0.17285999999999999  1.0000
  C   C42       1.0  0.76587  0.21877  0.82688  1.0000
  C   C43       1.0  0.18557  0.85774  0.18130999999999997  1.0000
  C   C44       1.0  0.8144300000000001  0.3576799999999999  0.81869  1.0000
  O   O11       1.0  0.91392  0.20337  0.9162599999999997  1.0000
  O   O12       1.0  0.08608  0.70337  0.08373999999999997  1.0000
  O   O13       1.0  0.04761999999999999  0.53554  0.8882899999999998  1.0000
  O   O14       1.0  0.9523800000000001  0.03554  0.11170999999999998  1.0000
  C   C45       1.0  0.06392000000000002  0.3685499999999999  0.86228  1.0000
  C   C46       1.0  0.9360800000000001  0.86854  0.13772  1.0000
  O   O15       1.0  0.9120400000000001  0.53278  0.9042199999999999  1.0000
  O   O16       1.0  0.08796  0.03278  0.09577999999999998  1.0000
  O   O17       1.0  0.94955  0.70816  0.09972  1.0000
  O   O18       1.0  0.05044999999999998  0.20816  0.90028  1.0000
  C   C47       1.0  0.8846600000000001  0.3646799999999999  0.88495  1.0000
  C   C48       1.0  0.11534000000000001  0.86469  0.11506  1.0000
  O   O19       1.0  0.012480000000000002  0.3753  0.06406  1.0000
  O   O20       1.0  0.98752  0.8753  0.9359399999999998  1.0000
  V   V3        1.0  0.99769  0.64818  0.9881099999999998  1.0000
  V   V4        1.0  0.0023099999999999996  0.14818  0.011889999999999996  1.0000
  S   S1        1.0  0.22167  0.55731  0.07408  1.0000
  O   O21       1.0  0.17452  0.40747  0.09352999999999999  1.0000
  O   O22       1.0  0.19084  0.6505899999999998  0.97643  1.0000
  O   O23       1.0  0.29706  0.46426  0.06588  1.0000
  H   H23       1.0  0.30386  0.3586599999999999  0.11296  1.0000
  S   S2        1.0  0.77846  0.05622999999999999  0.9253799999999999  1.0000
  O   O24       1.0  0.8258600000000001  0.90705  0.9058799999999998  1.0000
  O   O25       1.0  0.80904  0.14921  0.023239999999999993  1.0000
  O   O26       1.0  0.7031300000000001  0.96221  0.93317  1.0000
  H   H24       1.0  0.69655  0.8568299999999999  0.88595  1.0000
