data_image0
_chemical_formula_structural       O12C6O12C6Cr6O2C24H6C24H18CHOCHOCHOCHOCHOCHOCl6
_chemical_formula_sum              "O32 C66 Cr6 H30 Cl6"
_cell_length_a       11.36563
_cell_length_b       11.06647
_cell_length_c       18.82868
_cell_angle_alpha    89.5222
_cell_angle_beta     90.91914999999999
_cell_angle_gamma    119.24690999999999

_symmetry_space_group_name_H-M    'P 1'
_symmetry_Int_Tables_number       1

loop_
  _symmetry_equiv_pos_as_xyz
  'x,y,z'

loop_
  _atom_site_type_symbol
  _atom_site_label
  _atom_site_symmetry_multiplicity
  _atom_site_fract_x
  _atom_site_fract_y
  _atom_site_fract_z
  _atom_site_occupancy
  O   O1        1.0  0.91148  0.57265  0.17099  1.0000
  O   O2        1.0  0.42734999999999995  0.33883  0.17099  1.0000
  O   O3        1.0  0.66117  0.08852  0.17099  1.0000
  O   O4        1.0  0.57265  0.91148  0.82901  1.0000
  O   O5        1.0  0.33882999999999996  0.42734999999999995  0.82901  1.0000
  O   O6        1.0  0.08851999999999996  0.6611699999999999  0.82901  1.0000
  O   O7        1.0  0.6403399999999999  0.52897  0.17568000000000006  1.0000
  O   O8        1.0  0.4710299999999999  0.11137  0.17568000000000006  1.0000
  O   O9        1.0  0.88863  0.3596599999999999  0.17568000000000006  1.0000
  O   O10       1.0  0.52897  0.64034  0.82432  1.0000
  O   O11       1.0  0.11136999999999994  0.47103  0.82432  1.0000
  O   O12       1.0  0.3596600000000001  0.88863  0.82432  1.0000
  C   C1        1.0  0.51741  0.45895  0.14925  1.0000
  C   C2        1.0  0.5718999999999999  0.11294  0.14026  1.0000
  C   C3        1.0  0.93584  0.4817000000000001  0.14737  1.0000
  C   C4        1.0  0.42023999999999995  0.54529  0.85949  1.0000
  C   C5        1.0  0.06828999999999999  0.54893  0.8541800000000002  1.0000
  C   C6        1.0  0.48291  0.93543  0.85225  1.0000
  O   O13       1.0  0.9099799999999998  0.57245  0.3315300000000001  1.0000
  O   O14       1.0  0.42755  0.33753  0.3315300000000001  1.0000
  O   O15       1.0  0.6624699999999999  0.09002  0.3315300000000001  1.0000
  O   O16       1.0  0.5724499999999999  0.90998  0.66847  1.0000
  O   O17       1.0  0.33752999999999994  0.42754999999999993  0.66847  1.0000
  O   O18       1.0  0.09001999999999999  0.66247  0.66847  1.0000
  O   O19       1.0  0.6389499999999998  0.52878  0.3245  1.0000
  O   O20       1.0  0.47122  0.11016999999999999  0.3245  1.0000
  O   O21       1.0  0.8898299999999998  0.3610499999999999  0.3245  1.0000
  O   O22       1.0  0.52878  0.63895  0.6755  1.0000
  O   O23       1.0  0.11017000000000005  0.47122  0.6755  1.0000
  O   O24       1.0  0.36104999999999987  0.8898299999999999  0.6755  1.0000
  C   C7        1.0  0.52104  0.45687999999999995  0.35362  1.0000
  C   C8        1.0  0.54813  0.06905  0.35517  1.0000
  C   C9        1.0  0.9304199999999998  0.47712999999999994  0.35603  1.0000
  C   C10       1.0  0.45252  0.52054  0.6452200000000002  1.0000
  C   C11       1.0  0.06016999999999994  0.5423299999999999  0.64718  1.0000
  C   C12       1.0  0.48016999999999993  0.93765  0.6467600000000002  1.0000
  Cr  Cr1       1.0  0.7691599999999997  0.54157  0.25069  1.0000
  Cr  Cr2       1.0  0.45843  0.22759  0.25069  1.0000
  Cr  Cr3       1.0  0.7724099999999999  0.23083999999999996  0.25069  1.0000
  Cr  Cr4       1.0  0.5415699999999999  0.76916  0.74931  1.0000
  Cr  Cr5       1.0  0.22758999999999993  0.45843  0.74931  1.0000
  Cr  Cr6       1.0  0.23083999999999985  0.7724099999999999  0.74931  1.0000
  O   O25       1.0  0.6666699999999999  0.33333  0.25056  1.0000
  O   O26       1.0  0.33333  0.66667  0.74944  1.0000
  C   C13       1.0  0.5246  0.00253  0.9213400000000002  1.0000
  C   C14       1.0  0.022400000000000024  0.53316  0.9277500000000001  1.0000
  C   C15       1.0  0.4312199999999999  0.53382  0.93773  1.0000
  C   C16       1.0  0.9960899999999998  0.51456  0.07702000000000003  1.0000
  C   C17       1.0  0.55026  0.06875  0.06638  1.0000
  C   C18       1.0  0.48046  0.50814  0.08453  1.0000
  C   C19       1.0  0.44934  0.05675  0.95051  1.0000
  C   C20       1.0  0.011549999999999975  0.42085  0.96421  1.0000
  C   C21       1.0  0.55499  0.61555  0.96961  1.0000
  C   C22       1.0  0.9913699999999996  0.4088899999999999  0.03641  1.0000
  C   C23       1.0  0.45922  0.08518  0.02366  1.0000
  C   C24       1.0  0.5785599999999999  0.5944799999999999  0.039060000000000004  1.0000
  C   C25       1.0  0.6044999999999999  0.98828  0.04014  1.0000
  C   C26       1.0  0.018629999999999994  0.63883  0.0421  1.0000
  C   C27       1.0  0.34751  0.44642  0.05844  1.0000
  C   C28       1.0  0.013649999999999995  0.64067  0.9663  1.0000
  C   C29       1.0  0.61456  0.97854  0.9669400000000001  1.0000
  C   C30       1.0  0.3246  0.44078  0.9833800000000003  1.0000
  C   C31       1.0  0.3017500000000001  0.97581  0.9495  1.0000
  C   C32       1.0  0.9046899999999999  0.2766  0.95088  1.0000
  C   C33       1.0  0.6885299999999999  0.63172  0.9509  1.0000
  C   C34       1.0  0.8783100000000001  0.26631  0.029730000000000003  1.0000
  C   C35       1.0  0.31449  0.97993  0.028340000000000004  1.0000
  C   C36       1.0  0.71361  0.61672  0.029230000000000003  1.0000
  H   H1        1.0  0.25633999999999996  0.86858  0.92942  1.0000
  H   H2        1.0  0.9449599999999999  0.21078  0.9316500000000002  1.0000
  H   H3        1.0  0.75292  0.7336999999999999  0.92705  1.0000
  H   H4        1.0  0.7830899999999997  0.263  0.044020000000000004  1.0000
  H   H5        1.0  0.25759999999999994  0.02107  0.05741  1.0000
  H   H6        1.0  0.7261  0.52601  0.04383  1.0000
  C   C37       1.0  0.50732  0.007579999999999999  0.57832  1.0000
  C   C38       1.0  0.9870399999999998  0.49862999999999996  0.57996  1.0000
  C   C39       1.0  0.4767799999999999  0.5074099999999999  0.57095  1.0000
  C   C40       1.0  0.9596300000000001  0.48502  0.43163  1.0000
  C   C41       1.0  0.52468  0.03357  0.42983000000000005  1.0000
  C   C42       1.0  0.4997699999999999  0.50089  0.42259  1.0000
  C   C43       1.0  0.62763  0.04018  0.54342  1.0000
  C   C44       1.0  0.95591  0.5897  0.54275  1.0000
  C   C45       1.0  0.36391  0.4319799999999999  0.52747  1.0000
  C   C46       1.0  0.9439599999999999  0.58299  0.47028  1.0000
  C   C47       1.0  0.63507  0.05253  0.4709900000000001  1.0000
  C   C48       1.0  0.37394999999999995  0.42884  0.45505000000000007  1.0000
  C   C49       1.0  0.41122999999999993  0.02292  0.4647  1.0000
  C   C50       1.0  0.9643599999999998  0.37705  0.46922  1.0000
  C   C51       1.0  0.61141  0.59304  0.46453000000000005  1.0000
  C   C52       1.0  0.9763600000000001  0.38301  0.5436000000000002  1.0000
  C   C53       1.0  0.40392999999999996  0.01302  0.5389800000000002  1.0000
  C   C54       1.0  0.6001699999999999  0.59574  0.53851  1.0000
  C   C55       1.0  0.7147399999999999  0.97254  0.54425  1.0000
  C   C56       1.0  0.023660000000000004  0.74505  0.54106  1.0000
  C   C57       1.0  0.25877  0.2833  0.5318  1.0000
  C   C58       1.0  0.01089999999999994  0.7361899999999999  0.46110000000000007  1.0000
  C   C59       1.0  0.7205099999999999  0.9854299999999999  0.46436  1.0000
  C   C60       1.0  0.2664  0.27951  0.45191  1.0000
  H   H7        1.0  0.32703999999999994  0.01764  0.43464000000000014  1.0000
  H   H8        1.0  0.9642300000000001  0.29216  0.4412600000000001  1.0000
  H   H9        1.0  0.7095  0.65381  0.4412600000000001  1.0000
  H   H10       1.0  0.9885499999999998  0.30438  0.57178  1.0000
  H   H11       1.0  0.31396  0.99904  0.56476  1.0000
  H   H12       1.0  0.68829  0.66279  0.57023  1.0000
  H   H13       1.0  0.6609399999999999  0.8630099999999999  0.56165  1.0000
  H   H14       1.0  0.13005999999999998  0.7946999999999999  0.55919  1.0000
  H   H15       1.0  0.16091999999999998  0.26849  0.55047  1.0000
  H   H16       1.0  0.9421899999999999  0.77231  0.43924  1.0000
  H   H17       1.0  0.82298  0.056889999999999996  0.44460000000000005  1.0000
  H   H18       1.0  0.3029  0.20854999999999999  0.43454000000000004  1.0000
  H   H19       1.0  0.81393  0.03782  0.57085  1.0000
  H   H20       1.0  0.9615099999999998  0.78545  0.56568  1.0000
  H   H21       1.0  0.29579  0.21914  0.55971  1.0000
  H   H22       1.0  0.10952  0.77861  0.43404  1.0000
  H   H23       1.0  0.6672799999999999  0.88404  0.4364900000000001  1.0000
  H   H24       1.0  0.17343999999999998  0.26542999999999994  0.42422  1.0000
  C   C61       1.0  0.6218199999999999  0.89229  0.08918  1.0000
  H   H25       1.0  0.7173599999999999  0.9242  0.11489000000000002  1.0000
  O   O27       1.0  0.52486  0.78663  0.11  1.0000
  C   C62       1.0  0.05421000000000002  0.76885  0.08415000000000003  1.0000
  H   H26       1.0  0.05185000000000001  0.85592  0.060570000000000006  1.0000
  O   O28       1.0  0.10382999999999994  0.78941  0.14407  1.0000
  C   C63       1.0  0.23656  0.38242  0.10972000000000003  1.0000
  H   H27       1.0  0.17900999999999995  0.27108999999999994  0.11466  1.0000
  O   O29       1.0  0.21735999999999994  0.45503  0.15115  1.0000
  C   C64       1.0  0.9915399999999998  0.74975  0.92973  1.0000
  H   H28       1.0  0.017479999999999985  0.8468499999999999  0.95428  1.0000
  O   O30       1.0  0.93526  0.73051  0.87187  1.0000
  C   C65       1.0  0.7263799999999999  0.9526899999999999  0.9444200000000001  1.0000
  H   H29       1.0  0.7715599999999998  0.9159599999999999  0.98302  1.0000
  O   O31       1.0  0.78313  0.98879  0.88749  1.0000
  C   C66       1.0  0.20279  0.32119  0.9544700000000002  1.0000
  H   H30       1.0  0.16256  0.32309  0.9027600000000001  1.0000
  O   O32       1.0  0.14546999999999996  0.21401  0.9883500000000001  1.0000
  Cl  Cl1       1.0  0.23905  0.07377  0.90431  1.0000
  Cl  Cl2       1.0  0.77518  0.27093999999999996  0.8938200000000001  1.0000
  Cl  Cl3       1.0  0.66979  0.48804999999999993  0.89943  1.0000
  Cl  Cl4       1.0  0.92052  0.1529  0.07684  1.0000
  Cl  Cl5       1.0  0.30947  0.81758  0.05559  1.0000
  Cl  Cl6       1.0  0.80852  0.7688  0.07815  1.0000
