data_image0
_chemical_formula_structural       C216Cl48H120N48Ni12O24
_chemical_formula_sum              "C216 Cl48 H120 N48 Ni12 O24"
_cell_length_a       23.88593
_cell_length_b       23.891350000000003
_cell_length_c       23.88988
_cell_angle_alpha    90.35625999999999
_cell_angle_beta     90.01688
_cell_angle_gamma    89.84033

_symmetry_space_group_name_H-M    'P 1'
_symmetry_Int_Tables_number       1

loop_
  _symmetry_equiv_pos_as_xyz
  'x,y,z'

loop_
  _atom_site_type_symbol
  _atom_site_label
  _atom_site_symmetry_multiplicity
  _atom_site_fract_x
  _atom_site_fract_y
  _atom_site_fract_z
  _atom_site_occupancy
  C   C1        1.0  0.27942  0.71933  0.20711  1.0000
  C   C2        1.0  0.7916200000000001  0.7203499999999999  0.2811  1.0000
  C   C3        1.0  0.6867800000000001  0.83151  0.6879899999999999  1.0000
  C   C4        1.0  0.83343  0.31177  0.31195  1.0000
  C   C5        1.0  0.16903000000000004  0.68772  0.68671  1.0000
  C   C6        1.0  0.68893  0.83383  0.311  1.0000
  C   C7        1.0  0.3104  0.16577  0.68864  1.0000
  C   C8        1.0  0.16608  0.3112  0.68781  1.0000
  C   C9        1.0  0.83005  0.6879799999999999  0.31416  1.0000
  C   C10       1.0  0.31615  0.8249299999999998  0.68331  1.0000
  C   C11       1.0  0.68456  0.17536999999999994  0.31716  1.0000
  C   C12       1.0  0.82862  0.6865  0.68726  1.0000
  C   C13       1.0  0.21361  0.28265  0.28207999999999994  1.0000
  C   C14       1.0  0.17713  0.31651  0.31593  1.0000
  C   C15       1.0  0.68675  0.1701  0.6873299999999998  1.0000
  C   C16       1.0  0.31321  0.8280799999999999  0.314  1.0000
  C   C17       1.0  0.31423  0.3118  0.16796999999999998  1.0000
  C   C18       1.0  0.68602  0.68742  0.8310999999999998  1.0000
  C   C19       1.0  0.31524  0.68382  0.8252799999999998  1.0000
  C   C20       1.0  0.68476  0.31663  0.17524  1.0000
  C   C21       1.0  0.6884599999999998  0.31059  0.8340699999999998  1.0000
  C   C22       1.0  0.31085  0.6890299999999998  0.16546999999999998  1.0000
  C   C23       1.0  0.68732  0.68675  0.17063  1.0000
  C   C24       1.0  0.7895999999999999  0.7190899999999999  0.7197499999999999  1.0000
  C   C25       1.0  0.31299  0.3143  0.8278199999999999  1.0000
  C   C26       1.0  0.36765  0.4311  0.09336  1.0000
  C   C27       1.0  0.6323  0.56868  0.9064299999999997  1.0000
  C   C28       1.0  0.56739  0.3686199999999999  0.09540999999999997  1.0000
  C   C29       1.0  0.43258  0.63145  0.9046999999999998  1.0000
  C   C30       1.0  0.63548  0.57111  0.08625999999999998  1.0000
  C   C31       1.0  0.3646  0.42906  0.9134499999999998  1.0000
  C   C32       1.0  0.42810000000000004  0.6359999999999999  0.08484999999999998  1.0000
  C   C33       1.0  0.57175  0.36407  0.91493  1.0000
  C   C34       1.0  0.36822000000000005  0.5672  0.9048599999999999  1.0000
  C   C35       1.0  0.209  0.71754  0.28059  1.0000
  C   C36       1.0  0.63176  0.43285999999999997  0.09519  1.0000
  C   C37       1.0  0.5712  0.6356299999999999  0.9146999999999997  1.0000
  C   C38       1.0  0.42878000000000005  0.36421  0.08486999999999997  1.0000
  C   C39       1.0  0.63573  0.42796999999999996  0.91481  1.0000
  C   C40       1.0  0.36416999999999994  0.57205  0.08495999999999998  1.0000
  C   C41       1.0  0.43163  0.36813  0.9051399999999997  1.0000
  C   C42       1.0  0.56846  0.63204  0.09454999999999998  1.0000
  C   C43       1.0  0.09559999999999999  0.36844  0.43249  1.0000
  C   C44       1.0  0.9055799999999999  0.63206  0.5685799999999999  1.0000
  C   C45       1.0  0.08538000000000001  0.57119  0.36431  1.0000
  C   C46       1.0  0.78794  0.28337999999999997  0.7178399999999998  1.0000
  C   C47       1.0  0.9043999999999999  0.4333799999999999  0.63152  1.0000
  C   C48       1.0  0.08523  0.63573  0.57157  1.0000
  C   C49       1.0  0.91425  0.36446  0.42840999999999996  1.0000
  C   C50       1.0  0.08517  0.42833999999999994  0.6357  1.0000
  C   C51       1.0  0.90579  0.56863  0.368  1.0000
  C   C52       1.0  0.90471  0.3685  0.5673599999999999  1.0000
  C   C53       1.0  0.09365  0.6322099999999999  0.43142  1.0000
  C   C54       1.0  0.91381  0.57144  0.6355  1.0000
  C   C55       1.0  0.09596  0.4329899999999999  0.36865  1.0000
  C   C56       1.0  0.9143  0.6356699999999998  0.42895  1.0000
  C   C57       1.0  0.20853999999999998  0.71958  0.7187299999999998  1.0000
  C   C58       1.0  0.0858  0.36439  0.5712599999999999  1.0000
  C   C59       1.0  0.9148399999999999  0.4281699999999999  0.3642499999999999  1.0000
  C   C60       1.0  0.09378  0.5688999999999999  0.63223  1.0000
  C   C61       1.0  0.42871000000000004  0.08495  0.3642  1.0000
  C   C62       1.0  0.57148  0.91489  0.6357199999999998  1.0000
  C   C63       1.0  0.36412  0.08503999999999998  0.57188  1.0000
  C   C64       1.0  0.63575  0.9146599999999998  0.42814  1.0000
  C   C65       1.0  0.56839  0.09438  0.63214  1.0000
  C   C66       1.0  0.4316  0.90527  0.36806  1.0000
  C   C67       1.0  0.63166  0.09520999999999999  0.4330399999999999  1.0000
  C   C68       1.0  0.79266  0.28046  0.28082999999999997  1.0000
  C   C69       1.0  0.36841000000000007  0.9047599999999999  0.56703  1.0000
  C   C70       1.0  0.57175  0.91473  0.36414999999999986  1.0000
  C   C71       1.0  0.42803  0.08489  0.63596  1.0000
  C   C72       1.0  0.63246  0.9065  0.56885  1.0000
  C   C73       1.0  0.3676  0.09345  0.43098999999999993  1.0000
  C   C74       1.0  0.43294  0.9045299999999997  0.6313299999999998  1.0000
  C   C75       1.0  0.56729  0.09539  0.3686399999999999  1.0000
  C   C76       1.0  0.36461  0.91362  0.42892  1.0000
  C   C77       1.0  0.63547  0.086  0.57137  1.0000
  C   C78       1.0  0.23623  0.59794  0.23274999999999998  1.0000
  C   C79       1.0  0.71803  0.21191999999999997  0.28363999999999995  1.0000
  C   C80       1.0  0.21005  0.54521  0.2083  1.0000
  C   C81       1.0  0.82519  0.3489499999999999  0.8290799999999998  1.0000
  C   C82       1.0  0.84274  0.40563999999999995  0.8523999999999999  1.0000
  C   C83       1.0  0.40379  0.23430999999999996  0.23435999999999998  1.0000
  C   C84       1.0  0.4562800000000001  0.20821  0.20913999999999996  1.0000
  C   C85       1.0  0.59673  0.7633999999999999  0.7628499999999998  1.0000
  C   C86       1.0  0.54335  0.78782  0.7878599999999998  1.0000
  C   C87       1.0  0.82952  0.34557  0.17351999999999995  1.0000
  C   C88       1.0  0.8537199999999999  0.40116  0.15459  1.0000
  C   C89       1.0  0.17477  0.65773  0.8321799999999999  1.0000
  C   C90       1.0  0.2827  0.7884199999999999  0.7166999999999998  1.0000
  C   C91       1.0  0.14894  0.6035  0.85279  1.0000
  C   C92       1.0  0.65619  0.83189  0.17255  1.0000
  C   C93       1.0  0.60036  0.8555  0.15296999999999997  1.0000
  C   C94       1.0  0.34389  0.17061  0.8270599999999998  1.0000
  C   C95       1.0  0.39954  0.14612  0.8460199999999999  1.0000
  C   C96       1.0  0.17347  0.34875  0.82771  1.0000
  C   C97       1.0  0.15291  0.40568  0.84798  1.0000
  C   C98       1.0  0.82435  0.6513  0.17008  1.0000
  C   C99       1.0  0.84191  0.59418  0.1476  1.0000
  C   C100      1.0  0.34808  0.82271  0.8285599999999999  1.0000
  C   C101      1.0  0.28326  0.20874999999999994  0.28001  1.0000
  C   C102      1.0  0.40382  0.84648  0.84808  1.0000
  C   C103      1.0  0.65263  0.17370999999999998  0.17589  1.0000
  C   C104      1.0  0.59684  0.15277  0.15348  1.0000
  C   C105      1.0  0.82979  0.65354  0.8245399999999999  1.0000
  C   C106      1.0  0.85311  0.59739  0.8433099999999999  1.0000
  C   C107      1.0  0.16993000000000003  0.34557  0.17745999999999995  1.0000
  C   C108      1.0  0.15037  0.40052  0.15214999999999998  1.0000
  C   C109      1.0  0.65978  0.17081  0.8333  1.0000
  C   C110      1.0  0.60523  0.14921999999999996  0.8577699999999998  1.0000
  C   C111      1.0  0.34254  0.8280399999999998  0.17015  1.0000
  C   C112      1.0  0.72038  0.27934  0.7935  1.0000
  C   C113      1.0  0.7178599999999999  0.79125  0.7198699999999998  1.0000
  C   C114      1.0  0.39767  0.84774  0.14536  1.0000
  C   C115      1.0  0.23323  0.23250999999999994  0.59864  1.0000
  C   C116      1.0  0.20774  0.20672  0.54614  1.0000
  C   C117      1.0  0.82952  0.8294999999999999  0.34630999999999995  1.0000
  C   C118      1.0  0.85039  0.8507399999999998  0.40270999999999996  1.0000
  C   C119      1.0  0.17627  0.8290099999999999  0.3488  1.0000
  C   C120      1.0  0.15835  0.8518399999999998  0.40564  1.0000
  C   C121      1.0  0.8223699999999999  0.17365  0.64752  1.0000
  C   C122      1.0  0.8377700000000001  0.15122  0.58979  1.0000
  C   C123      1.0  0.82914  0.17375  0.34734999999999994  1.0000
  C   C124      1.0  0.27882  0.20722  0.71926  1.0000
  C   C125      1.0  0.85287  0.15505999999999998  0.40332999999999997  1.0000
  C   C126      1.0  0.17130000000000004  0.82466  0.65111  1.0000
  C   C127      1.0  0.14778  0.8421499999999997  0.5946499999999999  1.0000
  C   C128      1.0  0.8304700000000002  0.82786  0.6598899999999999  1.0000
  C   C129      1.0  0.85299  0.8523099999999998  0.6057899999999999  1.0000
  C   C130      1.0  0.16963  0.17816999999999997  0.34456999999999993  1.0000
  C   C131      1.0  0.15031  0.1524  0.3993099999999999  1.0000
  C   C132      1.0  0.72106  0.7936899999999998  0.27925999999999995  1.0000
  C   C133      1.0  0.71928  0.20894  0.71979  1.0000
  C   C134      1.0  0.28066  0.7893899999999999  0.2812  1.0000
  C   C135      1.0  0.23271  0.6936999999999998  0.23202  1.0000
  C   C136      1.0  0.76675  0.30512  0.7683099999999998  1.0000
  C   C137      1.0  0.30797  0.23276  0.23246  1.0000
  C   C138      1.0  0.69246  0.7664899999999999  0.76667  1.0000
  C   C139      1.0  0.76839  0.30488999999999994  0.23325  1.0000
  C   C140      1.0  0.28334  0.28046  0.20843999999999996  1.0000
  C   C141      1.0  0.23179  0.6958499999999997  0.76709  1.0000
  C   C142      1.0  0.6973200000000002  0.76965  0.23090999999999995  1.0000
  C   C143      1.0  0.30295  0.23161  0.76724  1.0000
  C   C144      1.0  0.23133  0.3045399999999999  0.7663999999999997  1.0000
  C   C145      1.0  0.7684100000000001  0.69613  0.23268999999999995  1.0000
  C   C146      1.0  0.30604  0.76564  0.76537  1.0000
  C   C147      1.0  0.6943599999999999  0.23491999999999993  0.23517999999999997  1.0000
  C   C148      1.0  0.76612  0.69551  0.7680499999999998  1.0000
  C   C149      1.0  0.23557999999999998  0.30501  0.23255  1.0000
  C   C150      1.0  0.6974  0.23031  0.7702  1.0000
  C   C151      1.0  0.71727  0.7190499999999999  0.7910399999999997  1.0000
  C   C152      1.0  0.30312  0.7675899999999999  0.23126999999999998  1.0000
  C   C153      1.0  0.2312  0.23156  0.6943999999999998  1.0000
  C   C154      1.0  0.76907  0.76997  0.30367  1.0000
  C   C155      1.0  0.23237  0.7658299999999998  0.30484  1.0000
  C   C156      1.0  0.76579  0.23418999999999995  0.6944899999999999  1.0000
  C   C157      1.0  0.7682  0.23324999999999996  0.30562  1.0000
  C   C158      1.0  0.23299  0.7668099999999999  0.69415  1.0000
  C   C159      1.0  0.76707  0.7683199999999998  0.6969499999999997  1.0000
  C   C160      1.0  0.23549  0.23297  0.30439  1.0000
  C   C161      1.0  0.38014  0.3783299999999999  0.11118999999999998  1.0000
  C   C162      1.0  0.71817  0.28306  0.21194  1.0000
  C   C163      1.0  0.61974  0.62129  0.8881699999999999  1.0000
  C   C164      1.0  0.61759  0.38298  0.11875999999999999  1.0000
  C   C165      1.0  0.38238  0.61713  0.8813599999999999  1.0000
  C   C166      1.0  0.62093  0.6193499999999998  0.11361999999999998  1.0000
  C   C167      1.0  0.37925  0.38098999999999994  0.8858499999999998  1.0000
  C   C168      1.0  0.3778099999999999  0.6225399999999999  0.10823  1.0000
  C   C169      1.0  0.62189  0.37761  0.8912499999999998  1.0000
  C   C170      1.0  0.11985999999999998  0.38311  0.38292999999999994  1.0000
  C   C171      1.0  0.8866199999999999  0.6196  0.6210299999999999  1.0000
  C   C172      1.0  0.11192  0.61973  0.37861  1.0000
  C   C173      1.0  0.28193  0.7176499999999998  0.7887299999999999  1.0000
  C   C174      1.0  0.88061  0.38344  0.61717  1.0000
  C   C175      1.0  0.11206  0.6214699999999999  0.61982  1.0000
  C   C176      1.0  0.89105  0.37823  0.37809999999999994  1.0000
  C   C177      1.0  0.10904  0.37814  0.6217199999999999  1.0000
  C   C178      1.0  0.88701  0.6212999999999999  0.38080999999999987  1.0000
  C   C179      1.0  0.38003  0.11127999999999998  0.37824  1.0000
  C   C180      1.0  0.62016  0.8884199999999999  0.62154  1.0000
  C   C181      1.0  0.37769  0.10844999999999999  0.62235  1.0000
  C   C182      1.0  0.62192  0.8908799999999998  0.3778699999999999  1.0000
  C   C183      1.0  0.62086  0.11314  0.6196999999999999  1.0000
  C   C184      1.0  0.72008  0.7198499999999999  0.20894  1.0000
  C   C185      1.0  0.37925  0.88614  0.3807999999999999  1.0000
  C   C186      1.0  0.61742  0.11881  0.3831399999999999  1.0000
  C   C187      1.0  0.38284  0.88116  0.6168899999999999  1.0000
  C   C188      1.0  0.1406  0.6568  0.3414499999999999  1.0000
  C   C189      1.0  0.8509200000000001  0.34704  0.6542  1.0000
  C   C190      1.0  0.34296999999999994  0.1396  0.34081  1.0000
  C   C191      1.0  0.65756  0.86001  0.65878  1.0000
  C   C192      1.0  0.86263  0.34082  0.34076  1.0000
  C   C193      1.0  0.14068  0.65866  0.6571399999999998  1.0000
  C   C194      1.0  0.65955  0.86265  0.34019999999999995  1.0000
  C   C195      1.0  0.28027  0.28135  0.7893099999999998  1.0000
  C   C196      1.0  0.33987  0.13653  0.6599399999999999  1.0000
  C   C197      1.0  0.13706  0.34048999999999996  0.65909  1.0000
  C   C198      1.0  0.85809  0.6586199999999999  0.34375999999999995  1.0000
  C   C199      1.0  0.34603  0.8518  0.6535699999999999  1.0000
  C   C200      1.0  0.65446  0.14836999999999997  0.34667  1.0000
  C   C201      1.0  0.85716  0.65688  0.65808  1.0000
  C   C202      1.0  0.14991  0.3463899999999999  0.3459499999999999  1.0000
  C   C203      1.0  0.65775  0.14196  0.65735  1.0000
  C   C204      1.0  0.34232  0.8565399999999999  0.3436399999999999  1.0000
  C   C205      1.0  0.34312  0.34100999999999987  0.13943999999999998  1.0000
  C   C206      1.0  0.20713  0.27983  0.7186799999999998  1.0000
  C   C207      1.0  0.65689  0.65837  0.85962  1.0000
  C   C208      1.0  0.34526  0.65392  0.8520999999999999  1.0000
  C   C209      1.0  0.65468  0.34632999999999997  0.14824  1.0000
  C   C210      1.0  0.65931  0.3398  0.86305  1.0000
  C   C211      1.0  0.34014000000000005  0.66028  0.13619  1.0000
  C   C212      1.0  0.65805  0.6568  0.14263  1.0000
  C   C213      1.0  0.34223  0.34390999999999994  0.8562199999999998  1.0000
  C   C214      1.0  0.1691  0.6859499999999998  0.3123  1.0000
  C   C215      1.0  0.8240000000000001  0.31736  0.68423  1.0000
  C   C216      1.0  0.31411  0.16817999999999997  0.31147  1.0000
  Cl  Cl1       1.0  0.29807  0.4536899999999999  0.09258  1.0000
  Cl  Cl2       1.0  0.70214  0.45220999999999995  0.09028999999999997  1.0000
  Cl  Cl3       1.0  0.57009  0.70017  0.9506499999999999  1.0000
  Cl  Cl4       1.0  0.43017  0.29991  0.048479999999999995  1.0000
  Cl  Cl5       1.0  0.70023  0.43002  0.9503899999999998  1.0000
  Cl  Cl6       1.0  0.29969  0.56965  0.04935  1.0000
  Cl  Cl7       1.0  0.45405  0.29844999999999994  0.90525  1.0000
  Cl  Cl8       1.0  0.54606  0.70173  0.09404  1.0000
  Cl  Cl9       1.0  0.08918000000000001  0.29766999999999993  0.4493399999999999  1.0000
  Cl  Cl10      1.0  0.9060900000000001  0.7014899999999998  0.54601  1.0000
  Cl  Cl11      1.0  0.04967  0.56998  0.29985  1.0000
  Cl  Cl12      1.0  0.702  0.54632  0.9077  1.0000
  Cl  Cl13      1.0  0.90931  0.45312  0.70196  1.0000
  Cl  Cl14      1.0  0.04859000000000001  0.6998099999999999  0.57161  1.0000
  Cl  Cl15      1.0  0.94828  0.29916  0.43124  1.0000
  Cl  Cl16      1.0  0.04950000000000001  0.43055  0.7001699999999997  1.0000
  Cl  Cl17      1.0  0.9065  0.54601  0.29830999999999996  1.0000
  Cl  Cl18      1.0  0.91124  0.29763999999999996  0.5497899999999999  1.0000
  Cl  Cl19      1.0  0.09313  0.7016199999999998  0.45497  1.0000
  Cl  Cl20      1.0  0.94912  0.5713899999999998  0.70019  1.0000
  Cl  Cl21      1.0  0.09150999999999998  0.45221999999999996  0.29830999999999996  1.0000
  Cl  Cl22      1.0  0.95047  0.69983  0.4292999999999999  1.0000
  Cl  Cl23      1.0  0.54739  0.29841999999999996  0.09159  1.0000
  Cl  Cl24      1.0  0.05201  0.29915  0.56774  1.0000
  Cl  Cl25      1.0  0.95066  0.42969  0.29988  1.0000
  Cl  Cl26      1.0  0.09265  0.54688  0.7018199999999999  1.0000
  Cl  Cl27      1.0  0.43016000000000004  0.048669999999999984  0.29984  1.0000
  Cl  Cl28      1.0  0.57032  0.9510299999999998  0.7001599999999999  1.0000
  Cl  Cl29      1.0  0.29976  0.049399999999999986  0.56937  1.0000
  Cl  Cl30      1.0  0.70019  0.9502199999999997  0.43015  1.0000
  Cl  Cl31      1.0  0.54573  0.09413999999999999  0.7017  1.0000
  Cl  Cl32      1.0  0.45393  0.90544  0.29841  1.0000
  Cl  Cl33      1.0  0.70203  0.09032999999999998  0.4526899999999999  1.0000
  Cl  Cl34      1.0  0.4524099999999999  0.7016899999999999  0.9088599999999999  1.0000
  Cl  Cl35      1.0  0.29797  0.90959  0.5476  1.0000
  Cl  Cl36      1.0  0.56968  0.95049  0.29994999999999994  1.0000
  Cl  Cl37      1.0  0.43016000000000004  0.04880999999999999  0.69997  1.0000
  Cl  Cl38      1.0  0.7020399999999999  0.9075299999999998  0.54643  1.0000
  Cl  Cl39      1.0  0.29806  0.0929  0.4534799999999999  1.0000
  Cl  Cl40      1.0  0.4531  0.9083199999999999  0.7015599999999999  1.0000
  Cl  Cl41      1.0  0.5474  0.09137  0.29834999999999995  1.0000
  Cl  Cl42      1.0  0.29978  0.9488499999999997  0.42923  1.0000
  Cl  Cl43      1.0  0.70017  0.050539999999999995  0.57088  1.0000
  Cl  Cl44      1.0  0.70019  0.5705299999999999  0.05101  1.0000
  Cl  Cl45      1.0  0.29976  0.42939  0.9485  1.0000
  Cl  Cl46      1.0  0.43029  0.7000799999999998  0.04893  1.0000
  Cl  Cl47      1.0  0.56972  0.29996  0.95084  1.0000
  Cl  Cl48      1.0  0.29786  0.54788  0.9098099999999998  1.0000
  H   H1        1.0  0.23056  0.5970599999999999  0.2789499999999999  1.0000
  H   H2        1.0  0.86071  0.43171  0.81859  1.0000
  H   H3        1.0  0.79991  0.13466999999999998  0.56844  1.0000
  H   H4        1.0  0.8642099999999999  0.19090999999999994  0.32194999999999996  1.0000
  H   H5        1.0  0.81115  0.13652  0.32561  1.0000
  H   H6        1.0  0.81919  0.13689  0.42952  1.0000
  H   H7        1.0  0.88584  0.12289999999999997  0.39643  1.0000
  H   H8        1.0  0.87147  0.19134  0.4258199999999999  1.0000
  H   H9        1.0  0.18782999999999997  0.8625799999999998  0.6728199999999999  1.0000
  H   H10       1.0  0.13641  0.8066399999999999  0.67614  1.0000
  H   H11       1.0  0.13068  0.80511  0.5722  1.0000
  H   H12       1.0  0.11370000000000001  0.8732799999999997  0.60083  1.0000
  H   H13       1.0  0.40474  0.22719999999999999  0.28033  1.0000
  H   H14       1.0  0.18122000000000002  0.8612099999999999  0.5688  1.0000
  H   H15       1.0  0.8657899999999998  0.80716  0.68225  1.0000
  H   H16       1.0  0.81386  0.8629399999999999  0.6860899999999998  1.0000
  H   H17       1.0  0.81898  0.8741799999999997  0.58294  1.0000
  H   H18       1.0  0.88678  0.8827399999999997  0.61535  1.0000
  H   H19       1.0  0.87025  0.8185  0.5787399999999999  1.0000
  H   H20       1.0  0.18093  0.14343999999999998  0.31523999999999996  1.0000
  H   H21       1.0  0.13417  0.20264999999999994  0.32675  1.0000
  H   H22       1.0  0.13954  0.18578  0.42999  1.0000
  H   H23       1.0  0.11277000000000001  0.1261  0.39176  1.0000
  H   H24       1.0  0.40511  0.28013999999999994  0.22665  1.0000
  H   H25       1.0  0.18403  0.12583  0.4170099999999999  1.0000
  H   H26       1.0  0.4573  0.21555  0.16327999999999998  1.0000
  H   H27       1.0  0.49409000000000003  0.22726999999999997  0.22839  1.0000
  H   H28       1.0  0.45687  0.16244  0.21705  1.0000
  H   H29       1.0  0.59637  0.7174  0.76973  1.0000
  H   H30       1.0  0.59619  0.7712999999999999  0.71703  1.0000
  H   H31       1.0  0.54178  0.8337  0.7807399999999998  1.0000
  H   H32       1.0  0.50622  0.76823  0.7678499999999998  1.0000
  H   H33       1.0  0.28182  0.59694  0.22333999999999998  1.0000
  H   H34       1.0  0.54201  0.7796699999999998  0.8335599999999997  1.0000
  H   H35       1.0  0.8113599999999999  0.32381  0.13635999999999998  1.0000
  H   H36       1.0  0.86436  0.31988  0.19095  1.0000
  H   H37       1.0  0.87253  0.42362  0.19081  1.0000
  H   H38       1.0  0.8202600000000001  0.4276299999999999  0.13617  1.0000
  H   H39       1.0  0.8866199999999999  0.3937  0.12255999999999999  1.0000
  H   H40       1.0  0.14013  0.68616  0.8190299999999999  1.0000
  H   H41       1.0  0.19818  0.6772699999999999  0.86757  1.0000
  H   H42       1.0  0.18229  0.57394  0.86596  1.0000
  H   H43       1.0  0.12386  0.58382  0.8188999999999997  1.0000
  H   H44       1.0  0.21587  0.54417  0.16218  1.0000
  H   H45       1.0  0.12115  0.61232  0.8890499999999999  1.0000
  H   H46       1.0  0.67917  0.8153099999999999  0.13537  1.0000
  H   H47       1.0  0.68059  0.86671  0.19187999999999997  1.0000
  H   H48       1.0  0.57661  0.87259  0.18922999999999998  1.0000
  H   H49       1.0  0.60759  0.8896099999999998  0.12246999999999998  1.0000
  H   H50       1.0  0.57526  0.8221199999999997  0.13248999999999997  1.0000
  H   H51       1.0  0.31815  0.13588  0.8093699999999999  1.0000
  H   H52       1.0  0.32223  0.18886999999999998  0.86425  1.0000
  H   H53       1.0  0.42601999999999995  0.1794  0.86482  1.0000
  H   H54       1.0  0.39219  0.11319999999999997  0.8777699999999999  1.0000
  H   H55       1.0  0.23025  0.5076  0.22658999999999999  1.0000
  H   H56       1.0  0.42193  0.12727  0.8097499999999997  1.0000
  H   H57       1.0  0.19276  0.32659999999999995  0.86387  1.0000
  H   H58       1.0  0.1367  0.3245199999999999  0.8122699999999999  1.0000
  H   H59       1.0  0.13283  0.42861  0.81295  1.0000
  H   H60       1.0  0.1218  0.40022  0.88203  1.0000
  H   H61       1.0  0.18861  0.43066999999999994  0.8642099999999999  1.0000
  H   H62       1.0  0.86253  0.67389  0.18449999999999997  1.0000
  H   H63       1.0  0.8044899999999999  0.6749099999999999  0.13517  1.0000
  H   H64       1.0  0.8045800000000001  0.5707099999999999  0.13284  1.0000
  H   H65       1.0  0.87131  0.59938  0.11202999999999998  1.0000
  H   H66       1.0  0.16458  0.54428  0.21798  1.0000
  H   H67       1.0  0.86305  0.56982  0.18093999999999996  1.0000
  H   H68       1.0  0.32795  0.8014699999999998  0.86471  1.0000
  H   H69       1.0  0.32118  0.8582599999999999  0.8147299999999998  1.0000
  H   H70       1.0  0.42423999999999995  0.8694299999999998  0.8134699999999999  1.0000
  H   H71       1.0  0.39691  0.8757999999999998  0.8836699999999997  1.0000
  H   H72       1.0  0.43195  0.8122299999999999  0.8618699999999999  1.0000
  H   H73       1.0  0.67522  0.13759  0.19482999999999998  1.0000
  H   H74       1.0  0.67736  0.19006999999999996  0.13998  1.0000
  H   H75       1.0  0.5736  0.18748999999999993  0.13335999999999998  1.0000
  H   H76       1.0  0.60407  0.11911999999999999  0.12200999999999998  1.0000
  H   H77       1.0  0.86291  0.32772999999999997  0.8114099999999997  1.0000
  H   H78       1.0  0.57114  0.13583  0.18808  1.0000
  H   H79       1.0  0.81501  0.67699  0.8622299999999999  1.0000
  H   H80       1.0  0.86433  0.6772199999999998  0.80421  1.0000
  H   H81       1.0  0.8683199999999999  0.57312  0.8065099999999998  1.0000
  H   H82       1.0  0.8885399999999999  0.60413  0.87267  1.0000
  H   H83       1.0  0.82009  0.57303  0.86486  1.0000
  H   H84       1.0  0.1345  0.32742  0.20154999999999998  1.0000
  H   H85       1.0  0.18148999999999998  0.31662  0.14251  1.0000
  H   H86       1.0  0.18410000000000004  0.41866  0.12607  1.0000
  H   H87       1.0  0.11303  0.3931199999999999  0.12545  1.0000
  H   H88       1.0  0.80826  0.3237  0.86429  1.0000
  H   H89       1.0  0.1392  0.43077  0.18578  1.0000
  H   H90       1.0  0.6842  0.19082  0.8677599999999998  1.0000
  H   H91       1.0  0.68376  0.1345  0.81611  1.0000
  H   H92       1.0  0.58018  0.12813999999999998  0.82468  1.0000
  H   H93       1.0  0.61431  0.11875  0.8915099999999998  1.0000
  H   H94       1.0  0.58055  0.18456  0.87557  1.0000
  H   H95       1.0  0.32054  0.8648899999999998  0.18873999999999994  1.0000
  H   H96       1.0  0.3167  0.8101999999999999  0.13553  1.0000
  H   H97       1.0  0.42037  0.81182  0.12615  1.0000
  H   H98       1.0  0.38952  0.87958  0.11267  1.0000
  H   H99       1.0  0.8059500000000002  0.4276399999999999  0.8706499999999999  1.0000
  H   H100      1.0  0.42423  0.8666499999999999  0.17857  1.0000
  H   H101      1.0  0.27914  0.22466999999999998  0.5976399999999998  1.0000
  H   H102      1.0  0.2258  0.27846999999999994  0.5973999999999999  1.0000
  H   H103      1.0  0.16194  0.21482999999999997  0.54518  1.0000
  H   H104      1.0  0.22709  0.22535999999999995  0.50835  1.0000
  H   H105      1.0  0.21527  0.16082  0.5454999999999999  1.0000
  H   H106      1.0  0.81274  0.8658099999999997  0.32245  1.0000
  H   H107      1.0  0.8657  0.81088  0.32326  1.0000
  H   H108      1.0  0.8680000000000001  0.81551  0.4272799999999999  1.0000
  H   H109      1.0  0.88355  0.88256  0.39636  1.0000
  H   H110      1.0  0.87479  0.3998799999999999  0.8855699999999999  1.0000
  H   H111      1.0  0.8153399999999998  0.87013  0.4265199999999999  1.0000
  H   H112      1.0  0.13823  0.81464  0.32591  1.0000
  H   H113      1.0  0.19632  0.8637199999999999  0.32520999999999994  1.0000
  H   H114      1.0  0.19552999999999998  0.86658  0.42939999999999995  1.0000
  H   H115      1.0  0.12901  0.8874799999999999  0.39999  1.0000
  H   H116      1.0  0.13704  0.81869  0.42996  1.0000
  H   H117      1.0  0.80517  0.1383  0.67238  1.0000
  H   H118      1.0  0.86106  0.18967999999999996  0.66808  1.0000
  H   H119      1.0  0.85599  0.18507999999999994  0.564  1.0000
  H   H120      1.0  0.8689800000000001  0.11693999999999999  0.5938  1.0000
  N   N1        1.0  0.41134  0.44999  0.06239  1.0000
  N   N2        1.0  0.58866  0.44999  0.06239  1.0000
  N   N3        1.0  0.55001  0.58866  0.9376099999999998  1.0000
  N   N4        1.0  0.44999  0.41134  0.06239  1.0000
  N   N5        1.0  0.58866  0.44999  0.9376099999999998  1.0000
  N   N6        1.0  0.41134  0.5500099999999999  0.06239  1.0000
  N   N7        1.0  0.44999  0.41134  0.9376099999999998  1.0000
  N   N8        1.0  0.55001  0.58866  0.06239  1.0000
  N   N9        1.0  0.062389999999999994  0.41134  0.4499899999999999  1.0000
  N   N10       1.0  0.93761  0.58866  0.55001  1.0000
  N   N11       1.0  0.06239000000000001  0.5500099999999999  0.41133999999999993  1.0000
  N   N12       1.0  0.58866  0.5500099999999999  0.9376099999999998  1.0000
  N   N13       1.0  0.93761  0.44999  0.58866  1.0000
  N   N14       1.0  0.062389999999999994  0.58866  0.55001  1.0000
  N   N15       1.0  0.93761  0.41134  0.4499899999999999  1.0000
  N   N16       1.0  0.062389999999999994  0.44999  0.58866  1.0000
  N   N17       1.0  0.93761  0.5500099999999999  0.41133999999999993  1.0000
  N   N18       1.0  0.93761  0.41134  0.55001  1.0000
  N   N19       1.0  0.062389999999999994  0.58866  0.4499899999999999  1.0000
  N   N20       1.0  0.93761  0.5500099999999999  0.58866  1.0000
  N   N21       1.0  0.062389999999999994  0.44999  0.41133999999999993  1.0000
  N   N22       1.0  0.93761  0.58866  0.4499899999999999  1.0000
  N   N23       1.0  0.55001  0.41134  0.06239  1.0000
  N   N24       1.0  0.062389999999999994  0.41134  0.55001  1.0000
  N   N25       1.0  0.93761  0.44999  0.41133999999999993  1.0000
  N   N26       1.0  0.06239000000000001  0.5500099999999999  0.58866  1.0000
  N   N27       1.0  0.44999  0.06239  0.41133999999999993  1.0000
  N   N28       1.0  0.55001  0.93761  0.58866  1.0000
  N   N29       1.0  0.41134  0.06239  0.55001  1.0000
  N   N30       1.0  0.58866  0.93761  0.4499899999999999  1.0000
  N   N31       1.0  0.55001  0.06239  0.58866  1.0000
  N   N32       1.0  0.44999  0.93761  0.41133999999999993  1.0000
  N   N33       1.0  0.58866  0.06239  0.4499899999999999  1.0000
  N   N34       1.0  0.44999  0.58866  0.9376099999999998  1.0000
  N   N35       1.0  0.41134  0.93761  0.55001  1.0000
  N   N36       1.0  0.55001  0.93761  0.41133999999999993  1.0000
  N   N37       1.0  0.44999  0.06239  0.58866  1.0000
  N   N38       1.0  0.58866  0.93761  0.55001  1.0000
  N   N39       1.0  0.41134  0.06239  0.4499899999999999  1.0000
  N   N40       1.0  0.44999  0.93761  0.58866  1.0000
  N   N41       1.0  0.55001  0.06239  0.41133999999999993  1.0000
  N   N42       1.0  0.41134  0.93761  0.4499899999999999  1.0000
  N   N43       1.0  0.58866  0.06239  0.55001  1.0000
  N   N44       1.0  0.58866  0.5500099999999999  0.06239  1.0000
  N   N45       1.0  0.41134  0.44999  0.9376099999999998  1.0000
  N   N46       1.0  0.44999  0.58866  0.06239  1.0000
  N   N47       1.0  0.55001  0.41134  0.9376099999999998  1.0000
  N   N48       1.0  0.41134  0.5500099999999999  0.9376099999999998  1.0000
  Ni  Ni1       1.0  0.41273  0.4999999999999999  0.0  1.0000
  Ni  Ni2       1.0  0.5  0.9999999999999998  0.5872699999999998  1.0000
  Ni  Ni3       1.0  0.41273  0.9999999999999999  0.4999999999999999  1.0000
  Ni  Ni4       1.0  0.58727  0.9999999999999999  0.4999999999999999  1.0000
  Ni  Ni5       1.0  0.58727  0.4999999999999999  0.0  1.0000
  Ni  Ni6       1.0  0.5  0.41273  0.0  1.0000
  Ni  Ni7       1.0  0.5  0.58727  0.0  1.0000
  Ni  Ni8       1.0  0.0  0.41273  0.4999999999999999  1.0000
  Ni  Ni9       1.0  0.0  0.58727  0.4999999999999999  1.0000
  Ni  Ni10      1.0  2.9050130783717564e-19  0.4999999999999999  0.41273  1.0000
  Ni  Ni11      1.0  2.9050130783717564e-19  0.4999999999999999  0.5872699999999998  1.0000
  Ni  Ni12      1.0  0.5  0.0  0.41273  1.0000
  O   O1        1.0  0.21015  0.64537  0.20882999999999993  1.0000
  O   O2        1.0  0.78673  0.64394  0.21490999999999996  1.0000
  O   O3        1.0  0.35749999999999993  0.7845099999999998  0.78425  1.0000
  O   O4        1.0  0.64295  0.21609999999999993  0.21615  1.0000
  O   O5        1.0  0.7851200000000002  0.64422  0.7870299999999998  1.0000
  O   O6        1.0  0.21617999999999998  0.35585  0.21276999999999993  1.0000
  O   O7        1.0  0.64748  0.20952999999999994  0.7907  1.0000
  O   O8        1.0  0.3536599999999999  0.7876099999999998  0.21148999999999998  1.0000
  O   O9        1.0  0.20821  0.2082  0.64633  1.0000
  O   O10       1.0  0.78748  0.78923  0.35522  1.0000
  O   O11       1.0  0.21381  0.7840799999999999  0.35675  1.0000
  O   O12       1.0  0.78448  0.3570499999999999  0.7871199999999999  1.0000
  O   O13       1.0  0.7827  0.21706  0.6416399999999999  1.0000
  O   O14       1.0  0.78744  0.21458999999999995  0.3569  1.0000
  O   O15       1.0  0.21444  0.7851299999999998  0.64248  1.0000
  O   O16       1.0  0.7879200000000001  0.78896  0.6471399999999999  1.0000
  O   O17       1.0  0.21602  0.21311999999999998  0.35511  1.0000
  O   O18       1.0  0.35609999999999997  0.20952999999999994  0.20938999999999994  1.0000
  O   O19       1.0  0.64351  0.7888799999999998  0.78881  1.0000
  O   O20       1.0  0.78786  0.35583  0.21414  1.0000
  O   O21       1.0  0.21098  0.64576  0.78701  1.0000
  O   O22       1.0  0.64624  0.7888399999999998  0.21139999999999998  1.0000
  O   O23       1.0  0.35399  0.21221999999999994  0.7867099999999998  1.0000
  O   O24       1.0  0.21288  0.35654999999999987  0.78454  1.0000
