data_image0
_chemical_formula_structural       C88Cu4H42N4O16C6H5C6H5C6H5C6H5C6H5C6H5
_chemical_formula_sum              "C124 Cu4 H72 N4 O16"
_cell_length_a       19.16692
_cell_length_b       18.755359999999996
_cell_length_c       12.32926
_cell_angle_alpha    90.06294
_cell_angle_beta     128.92763
_cell_angle_gamma    89.90937

_space_group_name_H-M_alt    "P 1"
_space_group_IT_number       1

loop_
  _space_group_symop_operation_xyz
  'x, y, z'

loop_
  _atom_site_type_symbol
  _atom_site_label
  _atom_site_symmetry_multiplicity
  _atom_site_fract_x
  _atom_site_fract_y
  _atom_site_fract_z
  _atom_site_occupancy
  C   C1        1.0  0.61106  0.8978699999999998  0.65214  1.0000
  C   C2        1.0  0.6112200000000001  0.10194  0.6524600000000003  1.0000
  C   C3        1.0  0.11108000000000005  0.39788  0.65216  1.0000
  C   C4        1.0  0.11122000000000011  0.60194  0.6524600000000003  1.0000
  C   C5        1.0  0.24913000000000002  0.76946  0.05082000000000001  1.0000
  C   C6        1.0  0.2492  0.23053  0.05061  1.0000
  C   C7        1.0  0.74907  0.2695  0.05075  1.0000
  C   C8        1.0  0.74907  0.7304  0.0504  1.0000
  C   C9        1.0  0.6770300000000001  0.2574  0.05417000000000001  1.0000
  C   C10       1.0  0.67683  0.7425099999999999  0.05351000000000001  1.0000
  C   C11       1.0  0.17708  0.75737  0.05422  1.0000
  C   C12       1.0  0.17695  0.24261  0.053680000000000005  1.0000
  C   C13       1.0  0.6008900000000003  0.22171  0.9430700000000002  1.0000
  C   C14       1.0  0.60053  0.77804  0.94216  1.0000
  C   C15       1.0  0.10093000000000014  0.72169  0.9431000000000003  1.0000
  C   C16       1.0  0.10063000000000004  0.27812  0.9423100000000002  1.0000
  C   C17       1.0  0.5971400000000001  0.19567  0.8342  1.0000
  C   C18       1.0  0.59671  0.80402  0.8332700000000002  1.0000
  C   C19       1.0  0.09717000000000005  0.69567  0.8342200000000001  1.0000
  C   C20       1.0  0.09680000000000005  0.30407  0.8334  1.0000
  C   C21       1.0  0.31691  0.81674  0.14839000000000002  1.0000
  C   C22       1.0  0.31836000000000003  0.18477  0.15086000000000005  1.0000
  C   C23       1.0  0.8168600000000003  0.31679  0.14831  1.0000
  C   C24       1.0  0.81825  0.68466  0.15068  1.0000
  C   C25       1.0  0.25144  0.83077  0.26178  1.0000
  C   C26       1.0  0.25156  0.1697  0.26192  1.0000
  C   C27       1.0  0.7514  0.33081  0.26172  1.0000
  C   C28       1.0  0.75151  0.66966  0.2618400000000001  1.0000
  C   C29       1.0  0.67553  0.15898  0.74133  1.0000
  C   C30       1.0  0.67486  0.84022  0.74001  1.0000
  C   C31       1.0  0.17554000000000008  0.65897  0.7413400000000002  1.0000
  C   C32       1.0  0.17494000000000007  0.34027  0.74012  1.0000
  C   C33       1.0  0.6806700000000001  0.0008600000000000001  0.2816600000000001  1.0000
  C   C34       1.0  0.18066  0.50095  0.28165  1.0000
  C   C35       1.0  0.34456  0.00071  0.62251  1.0000
  C   C36       1.0  0.84456  0.50071  0.6225  1.0000
  C   C37       1.0  0.30708000000000013  0.9996199999999998  0.6879000000000002  1.0000
  C   C38       1.0  0.80708  0.4995899999999999  0.68789  1.0000
  C   C39       1.0  0.38597000000000004  0.09953  0.34441000000000005  1.0000
  C   C40       1.0  0.3856  0.90085  0.34381000000000006  1.0000
  C   C41       1.0  0.8859500000000001  0.59952  0.34439  1.0000
  C   C42       1.0  0.88559  0.40087  0.3438  1.0000
  C   C43       1.0  0.36100000000000004  0.99751  0.8336000000000001  1.0000
  C   C44       1.0  0.86099  0.49744  0.83359  1.0000
  C   C45       1.0  0.45732  0.99855  0.9175  1.0000
  C   C46       1.0  0.95731  0.49852  0.9175  1.0000
  C   C47       1.0  0.49150000000000005  0.9995499999999999  0.8415  1.0000
  C   C48       1.0  0.99149  0.49955  0.84149  1.0000
  C   C49       1.0  0.52211  0.9986900000000001  0.06935  1.0000
  C   C50       1.0  0.02211  0.49867  0.06935  1.0000
  C   C51       1.0  0.61557  0.99986  0.13601000000000002  1.0000
  C   C52       1.0  0.11556000000000001  0.49988999999999995  0.136  1.0000
  C   C53       1.0  0.6448  0.00013  0.05809  1.0000
  C   C54       1.0  0.14480000000000004  0.50018  0.05808  1.0000
  C   C55       1.0  0.58435  0.9999099999999999  0.91484  1.0000
  C   C56       1.0  0.08435  0.49993  0.91484  1.0000
  C   C57       1.0  0.50085  0.99832  0.16071  1.0000
  C   C58       1.0  0.0008499999999999993  0.49827  0.16071  1.0000
  C   C59       1.0  0.6544100000000002  0.0011  0.36348000000000014  1.0000
  C   C60       1.0  0.15441  0.50117  0.36347  1.0000
  C   C61       1.0  0.68035  0.28651  0.16358  1.0000
  C   C62       1.0  0.68029  0.71381  0.16327  1.0000
  C   C63       1.0  0.1804  0.78646  0.16364  1.0000
  C   C64       1.0  0.18038  0.21388  0.16339  1.0000
  C   C65       1.0  0.31769000000000003  0.84771  0.25160000000000005  1.0000
  C   C66       1.0  0.31846  0.15322  0.25293  1.0000
  C   C67       1.0  0.81764  0.34775  0.25154  1.0000
  C   C68       1.0  0.8184000000000001  0.65317  0.25284  1.0000
  C   C69       1.0  0.7470600000000002  0.16975  0.7392400000000002  1.0000
  C   C70       1.0  0.74583  0.82861  0.73676  1.0000
  C   C71       1.0  0.24708999999999995  0.66973  0.73926  1.0000
  C   C72       1.0  0.24594000000000005  0.3287  0.7369400000000002  1.0000
  C   C73       1.0  0.31872  0.71243  0.83825  1.0000
  C   C74       1.0  0.3171600000000001  0.2853  0.8349200000000001  1.0000
  C   C75       1.0  0.8186700000000002  0.21248  0.8381900000000001  1.0000
  C   C76       1.0  0.817  0.78513  0.83463  1.0000
  C   C77       1.0  0.32112000000000007  0.74416  0.9422100000000001  1.0000
  C   C78       1.0  0.3199100000000001  0.25385  0.93931  1.0000
  C   C79       1.0  0.82106  0.24422  0.9421300000000001  1.0000
  C   C80       1.0  0.81973  0.75365  0.93899  1.0000
  C   C81       1.0  0.7487300000000002  0.23724  0.9455900000000003  1.0000
  C   C82       1.0  0.7480200000000001  0.7616  0.9438500000000002  1.0000
  C   C83       1.0  0.2487700000000001  0.73721  0.9456400000000001  1.0000
  C   C84       1.0  0.24816000000000002  0.26174  0.9440900000000001  1.0000
  C   C85       1.0  0.67308  0.19667  0.83952  1.0000
  C   C86       1.0  0.6724600000000001  0.80252  0.83816  1.0000
  C   C87       1.0  0.17311000000000004  0.69666  0.8395500000000001  1.0000
  C   C88       1.0  0.17256  0.30261  0.83831  1.0000
  Cu  Cu1       1.0  0.52634  0.0  0.42101  1.0000
  Cu  Cu2       1.0  0.02634  0.5  0.42101  1.0000
  Cu  Cu3       1.0  0.47364000000000006  1.7342298876578345e-20  0.5789900000000002  1.0000
  Cu  Cu4       1.0  0.97364  0.5  0.5789900000000002  1.0000
  H   H1        1.0  0.25355  0.85365  0.34464  1.0000
  H   H2        1.0  0.2533500000000001  0.14663  0.34428  1.0000
  H   H3        1.0  0.75353  0.35369  0.3446  1.0000
  H   H4        1.0  0.7533600000000001  0.64663  0.34428  1.0000
  H   H5        1.0  0.71587  0.00075  0.10865000000000001  1.0000
  H   H6        1.0  0.21587  0.50082  0.10865000000000001  1.0000
  H   H7        1.0  0.75164  0.0017199999999999997  0.33194  1.0000
  H   H8        1.0  0.25163  0.50187  0.33193  1.0000
  H   H9        1.0  0.43372000000000005  0.9964699999999999  0.12454  1.0000
  H   H10       1.0  0.93372  0.49635  0.12454  1.0000
  H   H11       1.0  0.30138  0.00148  0.50985  1.0000
  H   H12       1.0  0.80138  0.50149  0.50985  1.0000
  H   H13       1.0  0.2345  0.9993599999999999  0.62337  1.0000
  H   H14       1.0  0.73449  0.49932  0.62335  1.0000
  H   H15       1.0  0.6136600000000001  0.00025  0.8647300000000001  1.0000
  H   H16       1.0  0.11365000000000004  0.50026  0.8647300000000001  1.0000
  H   H17       1.0  0.54192  0.21668000000000004  0.9361900000000001  1.0000
  H   H18       1.0  0.54159  0.78325  0.93537  1.0000
  H   H19       1.0  0.0419500000000001  0.71666  0.9362200000000003  1.0000
  H   H20       1.0  0.041680000000000085  0.28331  0.9355200000000002  1.0000
  H   H21       1.0  0.36768000000000006  0.8336  0.14195000000000005  1.0000
  H   H22       1.0  0.37045  0.16891  0.14687  1.0000
  H   H23       1.0  0.86761  0.33365  0.14187  1.0000
  H   H24       1.0  0.8703200000000001  0.66879  0.14666  1.0000
  H   H25       1.0  0.74977  0.14261  0.66434  1.0000
  H   H26       1.0  0.74845  0.8556099999999999  0.66176  1.0000
  H   H27       1.0  0.24979000000000004  0.6426  0.66435  1.0000
  H   H28       1.0  0.24854000000000004  0.35569  0.6619  1.0000
  H   H29       1.0  0.38099  0.77389  0.017580000000000002  1.0000
  H   H30       1.0  0.37983  0.22398  0.014320000000000001  1.0000
  H   H31       1.0  0.8809000000000001  0.27399  0.01744  1.0000
  H   H32       1.0  0.87961  0.72372  0.01391  1.0000
  H   H33       1.0  0.3745000000000001  0.7190999999999999  0.8374000000000001  1.0000
  H   H34       1.0  0.37254  0.27805  0.8332  1.0000
  H   H35       1.0  0.8744400000000002  0.21916  0.8373200000000001  1.0000
  H   H36       1.0  0.87235  0.77784  0.83286  1.0000
  H   H37       1.0  0.53257  0.17648  0.74481  1.0000
  H   H38       1.0  0.53219  0.8235  0.74407  1.0000
  H   H39       1.0  0.03259000000000005  0.6765  0.7448000000000001  1.0000
  H   H40       1.0  0.03227000000000003  0.3235  0.7441600000000002  1.0000
  H   H41       1.0  0.70404  0.00208  0.4759300000000001  1.0000
  H   H42       1.0  0.20404000000000003  0.50221  0.4759300000000001  1.0000
  N   N1        1.0  0.5662600000000001  0.0  0.30222  1.0000
  N   N2        1.0  0.06626  0.5  0.30222  1.0000
  N   N3        1.0  0.4344100000000001  0.0  0.69768  1.0000
  N   N4        1.0  0.9344099999999999  0.5  0.69768  1.0000
  O   O1        1.0  0.60861  0.92452  0.5517400000000001  1.0000
  O   O2        1.0  0.6086100000000001  0.07548  0.5517400000000001  1.0000
  O   O3        1.0  0.1086100000000001  0.42452  0.5517400000000001  1.0000
  O   O4        1.0  0.1086100000000001  0.57548  0.5517400000000001  1.0000
  O   O5        1.0  0.56411  0.92451  0.68515  1.0000
  O   O6        1.0  0.56411  0.07549  0.68515  1.0000
  O   O7        1.0  0.06411  0.42451  0.68515  1.0000
  O   O8        1.0  0.06410999999999999  0.57549  0.68515  1.0000
  O   O9        1.0  0.43588  0.07547  0.31485  1.0000
  O   O10       1.0  0.43588  0.9245299999999999  0.31485  1.0000
  O   O11       1.0  0.93588  0.57547  0.31485  1.0000
  O   O12       1.0  0.93588  0.42453  0.31485  1.0000
  O   O13       1.0  0.39138  0.07546  0.44826  1.0000
  O   O14       1.0  0.39138000000000006  0.92454  0.44826  1.0000
  O   O15       1.0  0.8913800000000001  0.57546  0.44826  1.0000
  O   O16       1.0  0.8913800000000001  0.42454  0.44826  1.0000
  C   C89       1.0  0.30795000000000006  0.9915  0.8822800000000001  1.0000
  C   C90       1.0  0.26557  0.92649  0.86438  1.0000
  C   C91       1.0  0.19817999999999994  0.9232200000000002  0.87719  1.0000
  C   C92       1.0  0.17364  0.98431  0.91045  1.0000
  C   C93       1.0  0.2142900000000001  0.04933  0.9262100000000001  1.0000
  C   C94       1.0  0.2807400000000001  0.05329  0.9111200000000003  1.0000
  H   H43       1.0  0.28106000000000003  0.8795  0.8321400000000001  1.0000
  H   H44       1.0  0.16272000000000006  0.87393  0.8567400000000001  1.0000
  H   H45       1.0  0.12109000000000002  0.98171  0.91956  1.0000
  H   H46       1.0  0.1912700000000001  0.09685  0.9444700000000003  1.0000
  H   H47       1.0  0.30865000000000004  0.10444  0.9165800000000001  1.0000
  C   C95       1.0  0.8079300000000001  0.49134000000000005  0.88224  1.0000
  C   C96       1.0  0.76545  0.42634  0.86401  1.0000
  C   C97       1.0  0.69804  0.42301  0.87675  1.0000
  C   C98       1.0  0.6735800000000002  0.48402999999999996  0.9103100000000001  1.0000
  C   C99       1.0  0.7143100000000002  0.54906  0.9263900000000002  1.0000
  C   C100      1.0  0.7807800000000001  0.55307  0.91132  1.0000
  H   H48       1.0  0.7808700000000001  0.3794  0.83154  1.0000
  H   H49       1.0  0.6625  0.37373  0.85603  1.0000
  H   H50       1.0  0.62102  0.48139  0.9194  1.0000
  H   H51       1.0  0.69135  0.59652  0.9448500000000001  1.0000
  H   H52       1.0  0.8087400000000001  0.60423  0.9169900000000001  1.0000
  C   C101      1.0  0.61406  0.27128  0.18493000000000007  1.0000
  C   C102      1.0  0.61077  0.20312  0.22828  1.0000
  C   C103      1.0  0.5666900000000001  0.1929  0.28404000000000007  1.0000
  C   C104      1.0  0.52538  0.25027  0.2961400000000001  1.0000
  C   C105      1.0  0.52449  0.31745  0.24668  1.0000
  C   C106      1.0  0.5688299999999998  0.32808  0.19154  1.0000
  H   H53       1.0  0.64682  0.15912  0.22682000000000002  1.0000
  H   H54       1.0  0.5668900000000001  0.14108  0.32197  1.0000
  H   H55       1.0  0.49393000000000004  0.24266  0.34361  1.0000
  H   H56       1.0  0.49163  0.36169  0.25467  1.0000
  H   H57       1.0  0.5718200000000001  0.38126  0.16047000000000003  1.0000
  C   C107      1.0  0.61389  0.72918  0.18443  1.0000
  C   C108      1.0  0.6105300000000001  0.79738  0.22781  1.0000
  C   C109      1.0  0.56636  0.80777  0.28345000000000004  1.0000
  C   C110      1.0  0.5249900000000001  0.75054  0.29536  1.0000
  C   C111      1.0  0.52437  0.68327  0.24623000000000003  1.0000
  C   C112      1.0  0.56878  0.67247  0.19117  1.0000
  H   H58       1.0  0.64656  0.8413  0.2264  1.0000
  H   H59       1.0  0.56652  0.85961  0.32138  1.0000
  H   H60       1.0  0.4931700000000001  0.75836  0.3422600000000001  1.0000
  H   H61       1.0  0.49149  0.63911  0.25413  1.0000
  H   H62       1.0  0.57187  0.61924  0.16019000000000003  1.0000
  C   C113      1.0  0.11407  0.77128  0.18489  1.0000
  C   C114      1.0  0.11094000000000001  0.70322  0.22873000000000002  1.0000
  C   C115      1.0  0.06663  0.69309  0.28416  1.0000
  C   C116      1.0  0.024979999999999974  0.75049  0.29546  1.0000
  C   C117      1.0  0.023970000000000005  0.81756  0.24556  1.0000
  C   C118      1.0  0.06853  0.82809  0.19075  1.0000
  H   H63       1.0  0.14721  0.65923  0.2278  1.0000
  H   H64       1.0  0.06690000000000006  0.64134  0.32238000000000006  1.0000
  H   H65       1.0  0.99333  0.74297  0.3426500000000001  1.0000
  H   H66       1.0  0.99081  0.86181  0.25292  1.0000
  H   H67       1.0  0.07139000000000001  0.8812  0.15928000000000003  1.0000
  C   C119      1.0  0.11396000000000002  0.22924  0.18450000000000003  1.0000
  C   C120      1.0  0.11084000000000001  0.29736  0.22843  1.0000
  C   C121      1.0  0.06657000000000003  0.30767  0.28391  1.0000
  C   C122      1.0  0.024870000000000028  0.25045  0.2951600000000001  1.0000
  C   C123      1.0  0.02403000000000001  0.18328  0.24550000000000002  1.0000
  C   C124      1.0  0.06855000000000003  0.17256  0.19058000000000005  1.0000
  H   H68       1.0  0.14712  0.34125  0.22755  1.0000
  H   H69       1.0  0.06689000000000002  0.35945  0.32223  1.0000
  H   H70       1.0  0.9929700000000001  0.25821  0.34194  1.0000
  H   H71       1.0  0.9908900000000002  0.13914  0.25285  1.0000
  H   H72       1.0  0.07146000000000002  0.11938999999999998  0.15917000000000006  1.0000
