data_image0
_chemical_formula_structural       C132Cr12H96N8O52
_chemical_formula_sum              "C132 Cr12 H96 N8 O52"
_cell_length_a       19.44532
_cell_length_b       10.99389
_cell_length_c       18.61331
_cell_angle_alpha    90.13276
_cell_angle_beta     89.59444
_cell_angle_gamma    89.85758

_symmetry_space_group_name_H-M    'P 1'
_symmetry_Int_Tables_number       1

loop_
  _symmetry_equiv_pos_as_xyz
  'x,y,z'

loop_
  _atom_site_type_symbol
  _atom_site_label
  _atom_site_symmetry_multiplicity
  _atom_site_fract_x
  _atom_site_fract_y
  _atom_site_fract_z
  _atom_site_occupancy
  C   C1        1.0  0.71021  0.32577  0.13927  1.0000
  C   C2        1.0  0.9929600000000001  0.9983900000000001  0.03801  1.0000
  C   C3        1.0  0.7597  0.4469900000000001  0.56795  1.0000
  C   C4        1.0  0.73063  0.38378  0.34975  1.0000
  C   C5        1.0  0.28731  0.33231  0.6402599999999999  1.0000
  C   C6        1.0  0.22765000000000002  0.8753399999999999  0.35347  1.0000
  C   C7        1.0  0.77052  0.87917  0.6481  1.0000
  C   C8        1.0  0.56132  0.15341  0.36102999999999996  1.0000
  C   C9        1.0  0.46864000000000006  0.15758  0.64772  1.0000
  C   C10       1.0  0.030150000000000003  0.6568400000000001  0.35152  1.0000
  C   C11       1.0  0.96426  0.65755  0.64495  1.0000
  C   C12       1.0  0.74166  0.9710900000000001  0.35383  1.0000
  C   C13       1.0  0.50408  0.49832  0.96426  1.0000
  C   C14       1.0  0.25887000000000004  0.9678  0.64692  1.0000
  C   C15       1.0  0.24251000000000003  0.46791000000000005  0.3525899999999999  1.0000
  C   C16       1.0  0.7614000000000001  0.47702  0.64352  1.0000
  C   C17       1.0  0.49994  0.16388  0.9251399999999999  1.0000
  C   C18       1.0  0.49867000000000006  0.16462000000000002  0.07577999999999999  1.0000
  C   C19       1.0  0.99991  0.66388  0.92517  1.0000
  C   C20       1.0  0.99864  0.66463  0.0758  1.0000
  C   C21       1.0  0.50082  0.27628  0.9627  1.0000
  C   C22       1.0  0.4966  0.27648  0.038569999999999986  1.0000
  C   C23       1.0  0.0008000000000000008  0.7762800000000001  0.96272  1.0000
  C   C24       1.0  0.4929700000000001  0.49839000000000006  0.03799  1.0000
  C   C25       1.0  0.9965700000000001  0.77649  0.03859  1.0000
  C   C26       1.0  0.49318000000000006  0.05457000000000001  0.03767999999999999  1.0000
  C   C27       1.0  0.50545  0.05358  0.9634199999999999  1.0000
  C   C28       1.0  0.9931400000000001  0.55458  0.03769999999999999  1.0000
  C   C29       1.0  0.005410000000000001  0.55358  0.9634499999999999  1.0000
  C   C30       1.0  0.4947200000000001  0.842  0.08357  1.0000
  C   C31       1.0  0.5207100000000001  0.86311  0.8916  1.0000
  C   C32       1.0  0.9946900000000001  0.34202  0.0836  1.0000
  C   C33       1.0  0.02069  0.36311000000000004  0.89165  1.0000
  C   C34       1.0  0.61083  0.7213600000000001  0.56943  1.0000
  C   C35       1.0  0.7874700000000001  0.8288300000000001  0.93994  1.0000
  C   C36       1.0  0.4024500000000001  0.7908700000000002  0.39789  1.0000
  C   C37       1.0  0.10987  0.16992  0.52171  1.0000
  C   C38       1.0  0.91947  0.33145  0.40449  1.0000
  C   C39       1.0  0.21377000000000002  0.82747  0.059759999999999994  1.0000
  C   C40       1.0  0.28747  0.32882  0.9399499999999998  1.0000
  C   C41       1.0  0.71377  0.32747  0.059759999999999994  1.0000
  C   C42       1.0  0.7386  0.76685  0.98149  1.0000
  C   C43       1.0  0.26694  0.77307  0.02012  1.0000
  C   C44       1.0  0.23859000000000002  0.26686  0.98149  1.0000
  C   C45       1.0  0.29002  0.32582000000000005  0.8605399999999999  1.0000
  C   C46       1.0  0.76694  0.27307  0.02012  1.0000
  C   C47       1.0  0.72575  0.8023000000000001  0.05261  1.0000
  C   C48       1.0  0.27961  0.8076100000000002  0.9489499999999998  1.0000
  C   C49       1.0  0.22574  0.30231  0.05261  1.0000
  C   C50       1.0  0.7796100000000001  0.30761  0.9489499999999998  1.0000
  C   C51       1.0  0.82551  0.9269300000000003  0.04964  1.0000
  C   C52       1.0  0.17338  0.91546  0.9478299999999998  1.0000
  C   C53       1.0  0.32551  0.42692  0.04965  1.0000
  C   C54       1.0  0.67338  0.41547  0.9478299999999998  1.0000
  C   C55       1.0  0.83527  0.89962  0.97719  1.0000
  C   C56       1.0  0.21021  0.82577  0.13927  1.0000
  C   C57       1.0  0.16334  0.88905  0.02062  1.0000
  C   C58       1.0  0.33527  0.39960000000000007  0.97719  1.0000
  C   C59       1.0  0.66335  0.38906  0.02062  1.0000
  C   C60       1.0  0.6645800000000001  0.7519000000000001  0.96717  1.0000
  C   C61       1.0  0.34087  0.77228  0.03706  1.0000
  C   C62       1.0  0.16457  0.2519  0.96717  1.0000
  C   C63       1.0  0.8408700000000001  0.27228  0.03706  1.0000
  C   C64       1.0  0.65067  0.79434  0.04318  1.0000
  C   C65       1.0  0.35473  0.8112200000000002  0.9606  1.0000
  C   C66       1.0  0.15066  0.29434  0.04319  1.0000
  C   C67       1.0  0.79002  0.8258300000000001  0.8605399999999999  1.0000
  C   C68       1.0  0.8547300000000001  0.31122  0.9606099999999999  1.0000
  C   C69       1.0  0.76477  0.8930400000000002  0.08541999999999998  1.0000
  C   C70       1.0  0.2367  0.8907400000000001  0.91413  1.0000
  C   C71       1.0  0.26476  0.39304000000000006  0.08541999999999998  1.0000
  C   C72       1.0  0.7367  0.39074  0.91413  1.0000
  C   C73       1.0  0.53049  0.1557  0.14745  1.0000
  C   C74       1.0  0.46919  0.15543  0.8529  1.0000
  C   C75       1.0  0.030490000000000003  0.6557  0.14746  1.0000
  C   C76       1.0  0.96918  0.6554300000000001  0.85291  1.0000
  C   C77       1.0  0.50535  0.16907  0.58064  1.0000
  C   C78       1.0  0.50805  0.38869  0.92674  1.0000
  C   C79       1.0  0.54122  0.16158000000000003  0.43552  1.0000
  C   C80       1.0  0.9815  0.6673400000000002  0.57035  1.0000
  C   C81       1.0  0.99902  0.65908  0.42189  1.0000
  C   C82       1.0  0.53374  0.06468000000000002  0.55055  1.0000
  C   C83       1.0  0.55583  0.06272  0.47940999999999995  1.0000
  C   C84       1.0  0.0034500000000000017  0.5625200000000001  0.5372899999999999  1.0000
  C   C85       1.0  0.01334  0.5594  0.46539  1.0000
  C   C86       1.0  0.50484  0.26179  0.4632  1.0000
  C   C87       1.0  0.49133  0.26849000000000006  0.53638  1.0000
  C   C88       1.0  0.96622  0.7605100000000001  0.45246999999999993  1.0000
  C   C89       1.0  0.48877000000000004  0.38867  0.07502  1.0000
  C   C90       1.0  0.95796  0.7649600000000001  0.52751  1.0000
  C   C91       1.0  0.49262000000000006  0.95225  0.54047  1.0000
  C   C92       1.0  0.52101  0.9450000000000001  0.46664999999999995  1.0000
  C   C93       1.0  0.06497  0.48777  0.55309  1.0000
  C   C94       1.0  0.07761000000000001  0.48621  0.47280999999999995  1.0000
  C   C95       1.0  0.75588  0.91393  0.57473  1.0000
  C   C96       1.0  0.23977  0.90443  0.42793  1.0000
  C   C97       1.0  0.27592  0.34419  0.56289  1.0000
  C   C98       1.0  0.74902  0.43872  0.4183  1.0000
  C   C99       1.0  0.81258  0.95352  0.5356  1.0000
  C   C100      1.0  0.008030000000000002  0.88869  0.92676  1.0000
  C   C101      1.0  0.18240000000000003  0.91758  0.47245  1.0000
  C   C102      1.0  0.32788  0.40152  0.52481  1.0000
  C   C103      1.0  0.6941  0.47621  0.46186  1.0000
  C   C104      1.0  0.8120200000000001  0.9579500000000002  0.46233  1.0000
  C   C105      1.0  0.18713000000000002  0.9214  0.5459899999999999  1.0000
  C   C106      1.0  0.32079  0.42672  0.45311  1.0000
  C   C107      1.0  0.6991000000000002  0.47309000000000007  0.53461  1.0000
  C   C108      1.0  0.70091  0.86294  0.46170999999999995  1.0000
  C   C109      1.0  0.30834  0.8812900000000001  0.53456  1.0000
  C   C110      1.0  0.21356000000000003  0.32003000000000004  0.4496299999999999  1.0000
  C   C111      1.0  0.9887600000000001  0.88868  0.07504  1.0000
  C   C112      1.0  0.82008  0.4355300000000001  0.52489  1.0000
  C   C113      1.0  0.69858  0.86779  0.53725  1.0000
  C   C114      1.0  0.30448  0.8892800000000001  0.45899999999999996  1.0000
  C   C115      1.0  0.21846000000000002  0.29449000000000003  0.52404  1.0000
  C   C116      1.0  0.8149900000000001  0.43107000000000006  0.44898999999999994  1.0000
  C   C117      1.0  0.85045  0.07033  0.54342  1.0000
  C   C118      1.0  0.11945  0.84254  0.47437999999999997  1.0000
  C   C119      1.0  0.35944  0.52253  0.54079  1.0000
  C   C120      1.0  0.62413  0.42251  0.46708  1.0000
  C   C121      1.0  0.7429400000000002  0.96581  0.14872  1.0000
  C   C122      1.0  0.004069999999999999  0.9983100000000001  0.96428  1.0000
  C   C123      1.0  0.2573  0.9656800000000001  0.8513599999999998  1.0000
  C   C124      1.0  0.24294  0.46581  0.14872  1.0000
  C   C125      1.0  0.7573000000000002  0.46568000000000004  0.85135  1.0000
  C   C126      1.0  0.8495000000000001  0.07697000000000001  0.46265999999999996  1.0000
  C   C127      1.0  0.12547  0.84233  0.55509  1.0000
  C   C128      1.0  0.35314  0.54797  0.4624  1.0000
  C   C129      1.0  0.63118  0.41678000000000004  0.54727  1.0000
  C   C130      1.0  0.7544200000000001  0.91976  0.42408  1.0000
  C   C131      1.0  0.24998000000000004  0.90682  0.57818  1.0000
  C   C132      1.0  0.26069  0.39798  0.41647999999999996  1.0000
  Cr  Cr1       1.0  0.77201  0.16967  0.25009  1.0000
  Cr  Cr2       1.0  0.38329  0.01076  0.74916  1.0000
  Cr  Cr3       1.0  0.11671  0.51076  0.25084  1.0000
  Cr  Cr4       1.0  0.8832900000000001  0.51076  0.74916  1.0000
  Cr  Cr5       1.0  0.22799  0.16967  0.74991  1.0000
  Cr  Cr6       1.0  0.27201  0.66967  0.25009  1.0000
  Cr  Cr7       1.0  0.72799  0.66967  0.74991  1.0000
  Cr  Cr8       1.0  0.615  0.32326  0.24926  1.0000
  Cr  Cr9       1.0  0.385  0.32326  0.75074  1.0000
  Cr  Cr10      1.0  0.115  0.8232600000000001  0.24926  1.0000
  Cr  Cr11      1.0  0.885  0.8232600000000001  0.75074  1.0000
  Cr  Cr12      1.0  0.61671  0.010760000000000002  0.25084  1.0000
  H   H1        1.0  0.48951  0.33662  0.42906999999999995  1.0000
  H   H2        1.0  0.48199  0.95891  0.4257199999999999  1.0000
  H   H3        1.0  0.10483  0.53765  0.58379  1.0000
  H   H4        1.0  0.07133  0.3968500000000001  0.44665999999999995  1.0000
  H   H5        1.0  0.658  0.82794  0.43202999999999997  1.0000
  H   H6        1.0  0.35652  0.86165  0.55992  1.0000
  H   H7        1.0  0.16911  0.29274  0.41932  1.0000
  H   H8        1.0  0.87032  0.43378000000000005  0.54955  1.0000
  H   H9        1.0  0.9029200000000001  0.05771999999999999  0.5654999999999998  1.0000
  H   H10       1.0  0.12798000000000004  0.75179  0.44977999999999996  1.0000
  H   H11       1.0  0.41351000000000004  0.51979  0.55891  1.0000
  H   H12       1.0  0.46564  0.34727  0.55757  1.0000
  H   H13       1.0  0.62569  0.33162  0.44236999999999993  1.0000
  H   H14       1.0  0.81915  0.1426  0.57003  1.0000
  H   H15       1.0  0.07525  0.89624  0.45431999999999995  1.0000
  H   H16       1.0  0.32551  0.58221  0.57407  1.0000
  H   H17       1.0  0.58347  0.48603  0.4482999999999999  1.0000
  H   H18       1.0  0.81719  0.15387  0.44377  1.0000
  H   H19       1.0  0.0823  0.8896800000000002  0.58284  1.0000
  H   H20       1.0  0.31605  0.6232  0.45309  1.0000
  H   H21       1.0  0.59397  0.4757500000000001  0.57642  1.0000
  H   H22       1.0  0.9015300000000002  0.06883  0.43795  1.0000
  H   H23       1.0  0.95288  0.8386200000000001  0.42003999999999997  1.0000
  H   H24       1.0  0.1384  0.7515600000000001  0.57753  1.0000
  H   H25       1.0  0.40358  0.55053  0.43398999999999993  1.0000
  H   H26       1.0  0.63545  0.32238  0.56822  1.0000
  H   H27       1.0  0.51977  0.3935400000000001  0.86999  1.0000
  H   H28       1.0  0.4772  0.39298  0.13186  1.0000
  H   H29       1.0  0.01976  0.8935300000000003  0.8700099999999998  1.0000
  H   H30       1.0  0.97719  0.89299  0.13188  1.0000
  H   H31       1.0  0.00861  0.08293000000000002  0.9356699999999999  1.0000
  H   H32       1.0  0.98787  0.08318  0.0668  1.0000
  H   H33       1.0  0.5086  0.58294  0.9356499999999999  1.0000
  H   H34       1.0  0.9356  0.8448600000000002  0.55206  1.0000
  H   H35       1.0  0.48787  0.58317  0.06678  1.0000
  H   H36       1.0  0.86125  0.9878200000000001  0.0747  1.0000
  H   H37       1.0  0.13541  0.9696  0.9207899999999999  1.0000
  H   H38       1.0  0.36125  0.4878  0.0747  1.0000
  H   H39       1.0  0.63542  0.4696100000000001  0.9207899999999999  1.0000
  H   H40       1.0  0.8758700000000001  0.94536  0.9487999999999999  1.0000
  H   H41       1.0  0.1199  0.9282  0.047949999999999986  1.0000
  H   H42       1.0  0.37588  0.44534  0.94881  1.0000
  H   H43       1.0  0.6199100000000001  0.4282300000000001  0.047949999999999986  1.0000
  H   H44       1.0  0.14994  0.1565  0.9582299999999999  1.0000
  H   H45       1.0  0.04902999999999999  0.39945  0.57621  1.0000
  H   H46       1.0  0.86083  0.18075000000000002  0.04921999999999999  1.0000
  H   H47       1.0  0.64994  0.6565000000000001  0.9582299999999999  1.0000
  H   H48       1.0  0.36084  0.68074  0.04921999999999999  1.0000
  H   H49       1.0  0.64866  0.81527  0.92485  1.0000
  H   H50       1.0  0.35147  0.8424  0.07787  1.0000
  H   H51       1.0  0.14864  0.31528000000000006  0.9248599999999999  1.0000
  H   H52       1.0  0.8514700000000001  0.3424  0.07787  1.0000
  H   H53       1.0  0.62716  0.88636  0.04527  1.0000
  H   H54       1.0  0.37466  0.90564  0.95717  1.0000
  H   H55       1.0  0.12715  0.38636  0.04528  1.0000
  H   H56       1.0  0.12458000000000001  0.53689  0.45668  1.0000
  H   H57       1.0  0.8746500000000001  0.40564  0.9571799999999999  1.0000
  H   H58       1.0  0.62759  0.72279  0.07782  1.0000
  H   H59       1.0  0.38176  0.74  0.9286099999999999  1.0000
  H   H60       1.0  0.12758  0.22279000000000002  0.07782  1.0000
  H   H61       1.0  0.8817600000000001  0.24000000000000005  0.9286199999999999  1.0000
  H   H62       1.0  0.42979000000000006  0.981  0.11611  1.0000
  H   H63       1.0  0.46044  0.7776700000000001  0.11217999999999999  1.0000
  H   H64       1.0  0.53901  0.8544800000000002  0.1194  1.0000
  H   H65       1.0  0.5097799999999999  0.7996200000000002  0.03214  1.0000
  H   H66       1.0  0.59413  0.9952300000000001  0.91316  1.0000
  H   H67       1.0  0.43767  0.97662  0.53963  1.0000
  H   H68       1.0  0.53576  0.77451  0.9139699999999998  1.0000
  H   H69       1.0  0.54097  0.86796  0.83569  1.0000
  H   H70       1.0  0.46457  0.86544  0.88989  1.0000
  H   H71       1.0  0.9297800000000002  0.48101  0.11616999999999998  1.0000
  H   H72       1.0  0.96043  0.27768000000000004  0.11223  1.0000
  H   H73       1.0  0.039  0.3544900000000001  0.11942  1.0000
  H   H74       1.0  0.00974  0.29963  0.03217  1.0000
  H   H75       1.0  0.09411  0.49524000000000007  0.9132199999999999  1.0000
  H   H76       1.0  0.03572  0.27451  0.9140399999999999  1.0000
  H   H77       1.0  0.040980000000000016  0.36793000000000003  0.8357499999999998  1.0000
  H   H78       1.0  0.55452  0.86628  0.4569599999999999  1.0000
  H   H79       1.0  0.96456  0.36545  0.8898999999999999  1.0000
  H   H80       1.0  0.6302200000000001  0.88331  0.6239999999999998  1.0000
  H   H81       1.0  0.56309  0.71008  0.60161  1.0000
  H   H82       1.0  0.64953  0.6620400000000001  0.59247  1.0000
  H   H83       1.0  0.60085  0.69448  0.51302  1.0000
  H   H84       1.0  0.3588  0.9569800000000003  0.37158  1.0000
  H   H85       1.0  0.44509000000000015  0.81135  0.35987  1.0000
  H   H86       1.0  0.37049  0.72512  0.36876  1.0000
  H   H87       1.0  0.42481  0.7522300000000002  0.44751  1.0000
  H   H88       1.0  0.14221  0.28247  0.60322  1.0000
  H   H89       1.0  0.50581  0.87762  0.57715  1.0000
  H   H90       1.0  0.06674  0.23042  0.50784  1.0000
  H   H91       1.0  0.08783000000000002  0.09876  0.5568799999999999  1.0000
  H   H92       1.0  0.13003  0.1276  0.47201999999999994  1.0000
  H   H93       1.0  0.8669800000000001  0.4712100000000001  0.3539599999999999  1.0000
  H   H94       1.0  0.96885  0.35481  0.37788  1.0000
  H   H95       1.0  0.89592  0.25762  0.37247  1.0000
  H   H96       1.0  0.9304900000000002  0.30090000000000006  0.46008999999999994  1.0000
  N   N1        1.0  0.45881  0.9553900000000001  0.07188999999999998  1.0000
  N   N2        1.0  0.5491100000000001  0.96089  0.9345799999999999  1.0000
  N   N3        1.0  0.9587800000000001  0.4554000000000001  0.07194  1.0000
  N   N4        1.0  0.04908  0.4609000000000001  0.9346299999999998  1.0000
  N   N5        1.0  0.63556  0.84434  0.57381  1.0000
  N   N6        1.0  0.36469  0.9006800000000001  0.41541  1.0000
  N   N7        1.0  0.16284  0.23451000000000002  0.56078  1.0000
  N   N8        1.0  0.87502  0.43679  0.40474999999999994  1.0000
  O   O1        1.0  0.7875200000000001  0.04281  0.17044  1.0000
  O   O2        1.0  0.45405  0.05121  0.66914  1.0000
  O   O3        1.0  0.04595  0.55121  0.33086  1.0000
  O   O4        1.0  0.9540500000000001  0.55121  0.66914  1.0000
  O   O5        1.0  0.6813900000000002  0.9594800000000002  0.32551  1.0000
  O   O6        1.0  0.31861  0.9594800000000002  0.67449  1.0000
  O   O7        1.0  0.18139000000000002  0.4594800000000001  0.32551  1.0000
  O   O8        1.0  0.81861  0.4594800000000001  0.67449  1.0000
  O   O9        1.0  0.6679  0.1679  0.25006  1.0000
  O   O10       1.0  0.33210000000000006  0.1679  0.74994  1.0000
  O   O11       1.0  0.1679  0.6679000000000002  0.25006  1.0000
  O   O12       1.0  0.21248000000000003  0.04281  0.82956  1.0000
  O   O13       1.0  0.8321  0.6679000000000002  0.74994  1.0000
  O   O14       1.0  0.76564  0.2921  0.17501999999999998  1.0000
  O   O15       1.0  0.23436  0.2921  0.8249799999999999  1.0000
  O   O16       1.0  0.26564  0.7921  0.17501999999999998  1.0000
  O   O17       1.0  0.73436  0.7921  0.8249799999999999  1.0000
  O   O18       1.0  0.67019  0.40884000000000004  0.16854  1.0000
  O   O19       1.0  0.32981  0.40884000000000004  0.83146  1.0000
  O   O20       1.0  0.17019  0.9088400000000001  0.16854  1.0000
  O   O21       1.0  0.82981  0.9088400000000001  0.83146  1.0000
  O   O22       1.0  0.55662  0.25141  0.17515999999999995  1.0000
  O   O23       1.0  0.28752  0.54281  0.17044  1.0000
  O   O24       1.0  0.44338000000000005  0.25141  0.8248399999999998  1.0000
  O   O25       1.0  0.05662  0.75141  0.17515999999999995  1.0000
  O   O26       1.0  0.94338  0.75141  0.8248399999999998  1.0000
  O   O27       1.0  0.54596  0.04962  0.17032  1.0000
  O   O28       1.0  0.45404  0.04962  0.8296799999999999  1.0000
  O   O29       1.0  0.04596000000000001  0.54962  0.17032  1.0000
  O   O30       1.0  0.9540400000000001  0.54962  0.8296799999999999  1.0000
  O   O31       1.0  0.6813900000000002  0.9580100000000003  0.17669  1.0000
  O   O32       1.0  0.31861  0.9580100000000003  0.8233099999999999  1.0000
  O   O33       1.0  0.18139000000000002  0.45801  0.17669  1.0000
  O   O34       1.0  0.71248  0.54281  0.82956  1.0000
  O   O35       1.0  0.8186099999999998  0.45801  0.8233099999999999  1.0000
  O   O36       1.0  0.7875100000000002  0.044390000000000006  0.33097  1.0000
  O   O37       1.0  0.21249  0.044390000000000006  0.66903  1.0000
  O   O38       1.0  0.28751  0.54439  0.33097  1.0000
  O   O39       1.0  0.71249  0.54439  0.66903  1.0000
  O   O40       1.0  0.76563  0.29357  0.32383999999999996  1.0000
  O   O41       1.0  0.23437  0.29357  0.6761599999999999  1.0000
  O   O42       1.0  0.26563  0.79357  0.32383999999999996  1.0000
  O   O43       1.0  0.73437  0.79357  0.6761599999999999  1.0000
  O   O44       1.0  0.67019  0.41042000000000006  0.32908  1.0000
  O   O45       1.0  0.55661  0.25288  0.32398  1.0000
  O   O46       1.0  0.32981  0.41042000000000006  0.6709199999999998  1.0000
  O   O47       1.0  0.17019  0.91042  0.32908  1.0000
  O   O48       1.0  0.82981  0.91042  0.6709199999999998  1.0000
  O   O49       1.0  0.44339000000000006  0.25288  0.67602  1.0000
  O   O50       1.0  0.05661000000000001  0.75288  0.32398  1.0000
  O   O51       1.0  0.94339  0.75288  0.67602  1.0000
  O   O52       1.0  0.54595  0.05121  0.33086  1.0000
