data_image0
_chemical_formula_structural       O8C4O8C4O4V4C8H4C40H16F8
_chemical_formula_sum              "O20 C56 V4 H20 F8"
_cell_length_a       21.66513
_cell_length_b       7.18093
_cell_length_c       14.90074
_cell_angle_alpha    90.15612
_cell_angle_beta     106.4187
_cell_angle_gamma    90.04129999999999

_symmetry_space_group_name_H-M    'P 1'
_symmetry_Int_Tables_number       1

loop_
  _symmetry_equiv_pos_as_xyz
  'x,y,z'

loop_
  _atom_site_type_symbol
  _atom_site_label
  _atom_site_symmetry_multiplicity
  _atom_site_fract_x
  _atom_site_fract_y
  _atom_site_fract_z
  _atom_site_occupancy
  O   O1        1.0  0.33586  0.63819  0.0021100000000000003  1.0000
  O   O2        1.0  0.6641400000000001  0.3618099999999999  0.9978900000000003  1.0000
  O   O3        1.0  0.16414000000000004  0.13819  0.9978900000000003  1.0000
  O   O4        1.0  0.83586  0.8618099999999997  0.0021100000000000003  1.0000
  O   O5        1.0  0.21752999999999997  0.30592  0.86196  1.0000
  O   O6        1.0  0.78247  0.6940799999999998  0.13804  1.0000
  O   O7        1.0  0.28247  0.80592  0.13804  1.0000
  O   O8        1.0  0.71753  0.19408  0.86196  1.0000
  C   C1        1.0  0.20570999999999998  0.47635  0.8258700000000002  1.0000
  C   C2        1.0  0.7942899999999999  0.5236499999999998  0.17413  1.0000
  C   C3        1.0  0.29425  0.97698  0.17407  1.0000
  C   C4        1.0  0.70575  0.023019999999999995  0.82593  1.0000
  O   O9        1.0  0.33869000000000005  0.30832  0.9932400000000002  1.0000
  O   O10       1.0  0.66131  0.69168  0.006760000000000002  1.0000
  O   O11       1.0  0.16131  0.8083199999999999  0.006760000000000002  1.0000
  O   O12       1.0  0.8386900000000002  0.19167999999999996  0.9932400000000002  1.0000
  O   O13       1.0  0.28617  0.14043  0.1301  1.0000
  O   O14       1.0  0.71383  0.8595699999999998  0.8699000000000002  1.0000
  O   O15       1.0  0.21383000000000005  0.64043  0.8699000000000002  1.0000
  O   O16       1.0  0.78617  0.35957  0.1301  1.0000
  C   C5        1.0  0.36495  0.4769599999999999  0.9976400000000002  1.0000
  C   C6        1.0  0.63504  0.52304  0.00236  1.0000
  C   C7        1.0  0.13504  0.9768799999999997  0.00233  1.0000
  C   C8        1.0  0.86496  0.023119999999999998  0.9976700000000002  1.0000
  O   O17       1.0  0.23263  0.4724099999999999  0.044750000000000005  1.0000
  O   O18       1.0  0.76737  0.52759  0.9552500000000003  1.0000
  O   O19       1.0  0.26737000000000005  0.97241  0.9552500000000003  1.0000
  O   O20       1.0  0.73263  0.02759  0.044750000000000005  1.0000
  V   V1        1.0  0.25322  0.19661999999999996  0.9917000000000002  1.0000
  V   V2        1.0  0.74678  0.8033799999999998  0.0083  1.0000
  V   V3        1.0  0.24678  0.69662  0.0083  1.0000
  V   V4        1.0  0.7532200000000001  0.30337999999999987  0.9917000000000002  1.0000
  C   C9        1.0  0.03206  0.8288399999999998  0.01805  1.0000
  C   C10       1.0  0.9679399999999999  0.17116  0.9819500000000001  1.0000
  C   C11       1.0  0.46775  0.3288599999999999  0.9814500000000003  1.0000
  C   C12       1.0  0.53224  0.67114  0.01855  1.0000
  C   C13       1.0  0.9672100000000001  0.8422399999999999  0.016210000000000002  1.0000
  C   C14       1.0  0.03279000000000007  0.15775999999999993  0.9837900000000002  1.0000
  C   C15       1.0  0.53261  0.34217999999999993  0.98333  1.0000
  C   C16       1.0  0.46739  0.65782  0.01666  1.0000
  H   H1        1.0  0.94316  0.71764  0.02975  1.0000
  H   H2        1.0  0.05684000000000003  0.28236  0.9702500000000002  1.0000
  H   H3        1.0  0.55653  0.21755999999999995  0.9694300000000002  1.0000
  H   H4        1.0  0.44347  0.78244  0.03057  1.0000
  C   C17       1.0  0.9340199999999999  0.012899999999999997  0.9982300000000002  1.0000
  C   C18       1.0  0.06598  0.9871099999999998  0.00177  1.0000
  C   C19       1.0  0.56599  0.5128  0.0018100000000000004  1.0000
  C   C20       1.0  0.43401000000000006  0.4872  0.9981900000000002  1.0000
  C   C21       1.0  0.6776500000000001  0.01473  0.72471  1.0000
  C   C22       1.0  0.32235  0.9852699999999998  0.27529000000000003  1.0000
  C   C23       1.0  0.82224  0.51847  0.2755  1.0000
  C   C24       1.0  0.17776000000000003  0.48153  0.7245000000000003  1.0000
  C   C25       1.0  0.6898300000000002  0.01502  0.56875  1.0000
  C   C26       1.0  0.31017  0.9849499999999998  0.43125  1.0000
  C   C27       1.0  0.8113  0.56027  0.43099  1.0000
  C   C28       1.0  0.18869999999999998  0.43973999999999996  0.56902  1.0000
  C   C29       1.0  0.71705  0.01883  0.6652700000000003  1.0000
  C   C30       1.0  0.28295  0.98115  0.33473  1.0000
  C   C31       1.0  0.7837499999999998  0.5515  0.33463000000000004  1.0000
  C   C32       1.0  0.21624  0.4485  0.6653700000000002  1.0000
  C   C33       1.0  0.61082  0.00741  0.6880300000000003  1.0000
  C   C34       1.0  0.38918  0.9925999999999998  0.31196  1.0000
  C   C35       1.0  0.8886099999999999  0.4949899999999999  0.31243  1.0000
  C   C36       1.0  0.11139  0.505  0.68757  1.0000
  C   C37       1.0  0.58147  0.005290000000000002  0.5902200000000002  1.0000
  C   C38       1.0  0.41853000000000007  0.9947099999999999  0.40978000000000003  1.0000
  C   C39       1.0  0.91845  0.50753  0.40999  1.0000
  C   C40       1.0  0.08155  0.4924699999999999  0.59001  1.0000
  C   C41       1.0  0.62248  0.008679999999999998  0.53072  1.0000
  C   C42       1.0  0.3775200000000001  0.9913  0.46928  1.0000
  C   C43       1.0  0.87826  0.54003  0.46912  1.0000
  C   C44       1.0  0.12173  0.4599699999999999  0.53088  1.0000
  C   C45       1.0  0.5131  0.0007699999999999997  0.54979  1.0000
  C   C46       1.0  0.4869  0.99922  0.45021  1.0000
  C   C47       1.0  0.98661  0.4916999999999999  0.4504200000000001  1.0000
  C   C48       1.0  0.01339  0.5083  0.54958  1.0000
  C   C49       1.0  0.5299400000000001  0.0018199999999999996  0.39442000000000005  1.0000
  C   C50       1.0  0.47006  0.99816  0.6055800000000002  1.0000
  C   C51       1.0  0.97112  0.53929  0.6050400000000002  1.0000
  C   C52       1.0  0.028880000000000027  0.4607099999999999  0.3949600000000001  1.0000
  C   C53       1.0  0.59603  0.006439999999999999  0.43395  1.0000
  C   C54       1.0  0.40397  0.9935299999999998  0.56605  1.0000
  C   C55       1.0  0.90523  0.55439  0.56554  1.0000
  C   C56       1.0  0.09477  0.4456099999999999  0.4344600000000001  1.0000
  H   H5        1.0  0.62669  0.008619999999999997  0.3877100000000001  1.0000
  H   H6        1.0  0.37331000000000003  0.9913399999999998  0.6122900000000002  1.0000
  H   H7        1.0  0.87518  0.57895  0.61149  1.0000
  H   H8        1.0  0.12482  0.42104999999999987  0.38851  1.0000
  H   H9        1.0  0.41645000000000004  0.99485  0.26175000000000004  1.0000
  H   H10       1.0  0.58355  0.00519  0.73825  1.0000
  H   H11       1.0  0.08468  0.5278  0.73753  1.0000
  H   H12       1.0  0.91531  0.4721899999999999  0.26247  1.0000
  H   H13       1.0  0.23110999999999998  0.9748099999999997  0.30625  1.0000
  H   H14       1.0  0.76889  0.02516  0.69375  1.0000
  H   H15       1.0  0.26762  0.4282699999999999  0.69404  1.0000
  H   H16       1.0  0.73238  0.5717299999999997  0.3059600000000001  1.0000
  H   H17       1.0  0.51439  0.0005199999999999998  0.3192  1.0000
  H   H18       1.0  0.48560999999999993  0.9994499999999998  0.6808000000000002  1.0000
  H   H19       1.0  0.9871399999999999  0.5533799999999999  0.67993  1.0000
  H   H20       1.0  0.012860000000000002  0.44662  0.32007  1.0000
  F   F1        1.0  0.06126  0.6605199999999998  0.036800000000000006  1.0000
  F   F2        1.0  0.93874  0.3394799999999999  0.9631900000000002  1.0000
  F   F3        1.0  0.43836  0.16055999999999995  0.96217  1.0000
  F   F4        1.0  0.56164  0.8394399999999997  0.03783  1.0000
  F   F5        1.0  0.72941  0.018819999999999993  0.51247  1.0000
  F   F6        1.0  0.27059  0.98113  0.48753000000000013  1.0000
  F   F7        1.0  0.77253  0.59215  0.4868700000000001  1.0000
  F   F8        1.0  0.22747  0.40785  0.51313  1.0000
