data_image0
_chemical_formula_structural       O3CO2CO2VOCOCVOCHCHC20H4C16H2CHC3HC2O3CO2CO2VOCOCVOCH3CH3CH3CH3CH3CH3CHOCHOCHOCH3CHOCH3CHOCHO
_chemical_formula_sum              "O26 C66 V4 H40"
_cell_length_a       6.94576
_cell_length_b       17.6652
_cell_length_c       19.43764
_cell_angle_alpha    108.43229
_cell_angle_beta     89.71462999999999
_cell_angle_gamma    90.88779

_symmetry_space_group_name_H-M    'P 1'
_symmetry_Int_Tables_number       1

loop_
  _symmetry_equiv_pos_as_xyz
  'x,y,z'

loop_
  _atom_site_type_symbol
  _atom_site_label
  _atom_site_symmetry_multiplicity
  _atom_site_fract_x
  _atom_site_fract_y
  _atom_site_fract_z
  _atom_site_occupancy
  O   O1        1.0  0.49433  0.4157100000000001  0.4137200000000001  1.0000
  O   O2        1.0  0.81936  0.43006999999999995  0.56021  1.0000
  O   O3        1.0  0.99432  0.5842899999999999  0.58628  1.0000
  C   C1        1.0  0.64956  0.41637  0.58263  1.0000
  O   O4        1.0  0.82374  0.40628999999999993  0.4126700000000001  1.0000
  O   O5        1.0  0.99873  0.56034  0.43769  1.0000
  C   C2        1.0  0.6537900000000001  0.38437000000000004  0.38399  1.0000
  O   O6        1.0  0.48992000000000013  0.43966  0.56231  1.0000
  O   O7        1.0  0.66233  0.55057  0.50838  1.0000
  V   V1        1.0  0.9353700000000003  0.49061999999999995  0.49844000000000005  1.0000
  O   O8        1.0  0.32872  0.56993  0.43979  1.0000
  C   C3        1.0  0.16034  0.58696  0.42005  1.0000
  O   O9        1.0  0.32434  0.59371  0.58733  1.0000
  C   C4        1.0  0.15519000000000005  0.61461  0.61678  1.0000
  V   V2        1.0  0.43594  0.50938  0.50156  1.0000
  O   O10       1.0  0.15911  0.44942999999999983  0.49162  1.0000
  C   C5        1.0  0.30499  0.7219399999999999  0.72113  1.0000
  H   H1        1.0  0.4429  0.70512  0.69714  1.0000
  C   C6        1.0  0.29254  0.783  0.78756  1.0000
  H   H2        1.0  0.42246  0.80694  0.8165600000000001  1.0000
  C   C7        1.0  0.11448  0.8156400000000003  0.8147700000000002  1.0000
  C   C8        1.0  0.94782  0.78098  0.7746  1.0000
  C   C9        1.0  0.96117  0.70584  0.72072  1.0000
  C   C10       1.0  0.14040000000000002  0.68115  0.68689  1.0000
  C   C11       1.0  0.28283  0.62329  0.31447  1.0000
  C   C12       1.0  0.15138  0.63737  0.3717  1.0000
  C   C13       1.0  0.01616  0.69924  0.38243  1.0000
  C   C14       1.0  0.99143  0.73635  0.3275100000000001  1.0000
  C   C15       1.0  0.13325  0.724  0.27185  1.0000
  C   C16       1.0  0.28163  0.6681400000000001  0.2661800000000001  1.0000
  C   C17       1.0  0.83018  0.78489  0.32555  1.0000
  C   C18       1.0  0.82977  0.82891  0.27680000000000005  1.0000
  C   C19       1.0  0.9769000000000002  0.82163  0.22603000000000004  1.0000
  C   C20       1.0  0.12681  0.76766  0.22176  1.0000
  C   C21       1.0  0.26903  0.757  0.16712  1.0000
  C   C22       1.0  0.41817  0.70293  0.16421  1.0000
  C   C23       1.0  0.42487  0.65793  0.21196000000000004  1.0000
  C   C24       1.0  0.97217  0.8667899999999997  0.17844000000000002  1.0000
  C   C25       1.0  0.1127  0.85828  0.12462  1.0000
  C   C26       1.0  0.25789  0.79996  0.11618  1.0000
  H   H3        1.0  0.38871000000000006  0.5774900000000001  0.30892  1.0000
  H   H4        1.0  0.70893  0.86689  0.27621  1.0000
  H   H5        1.0  0.85867  0.90982  0.18385000000000004  1.0000
  H   H6        1.0  0.53249  0.69527  0.12473000000000001  1.0000
  C   C27       1.0  0.6308300000000002  0.22038000000000002  0.90102  1.0000
  C   C28       1.0  0.62647  0.13606000000000004  0.87127  1.0000
  C   C29       1.0  0.63504  0.09919999999999998  0.79558  1.0000
  C   C30       1.0  0.65918  0.14700000000000005  0.74989  1.0000
  C   C31       1.0  0.63915  0.23107000000000005  0.7780500000000001  1.0000
  C   C32       1.0  0.6138100000000001  0.26848000000000005  0.8539000000000002  1.0000
  C   C33       1.0  0.70054  0.11191000000000006  0.6758700000000001  1.0000
  C   C34       1.0  0.71682  0.15744000000000002  0.6298000000000001  1.0000
  C   C35       1.0  0.68364  0.23989  0.65466  1.0000
  C   C36       1.0  0.64204  0.27701  0.72943  1.0000
  C   C37       1.0  0.60177  0.35938000000000003  0.75508  1.0000
  C   C38       1.0  0.59023  0.39817999999999987  0.8311300000000001  1.0000
  C   C39       1.0  0.58194  0.35262  0.87963  1.0000
  C   C40       1.0  0.69303  0.28564  0.60632  1.0000
  C   C41       1.0  0.63756  0.36647  0.63131  1.0000
  C   C42       1.0  0.57001  0.39999  0.70328  1.0000
  H   H7        1.0  0.7244500000000001  0.048580000000000005  0.65243  1.0000
  H   H8        1.0  0.75194  0.1261  0.5739  1.0000
  C   C43       1.0  0.7818300000000002  0.25793  0.29935  1.0000
  H   H9        1.0  0.89747  0.26259  0.33786  1.0000
  C   C44       1.0  0.77768  0.19279  0.23534  1.0000
  C   C45       1.0  0.62558  0.18437  0.18464  1.0000
  C   C46       1.0  0.48274999999999996  0.24274  0.20027  1.0000
  H   H10       1.0  0.36707  0.23741  0.16172000000000003  1.0000
  C   C47       1.0  0.48763  0.30861999999999995  0.26409  1.0000
  C   C48       1.0  0.63956  0.3164699999999999  0.3148900000000001  1.0000
  O   O11       1.0  0.77494  0.06046999999999998  0.9378  1.0000
  O   O12       1.0  0.44088  0.09373000000000001  0.08735  1.0000
  O   O13       1.0  0.26613  0.9396300000000001  0.06228  1.0000
  C   C49       1.0  0.61092  0.11593  0.11594  1.0000
  O   O14       1.0  0.44548  0.06996000000000005  0.9398200000000001  1.0000
  O   O15       1.0  0.27077  0.9156899999999999  0.91369  1.0000
  C   C50       1.0  0.61521  0.08601000000000006  0.9196300000000001  1.0000
  O   O16       1.0  0.7703  0.08441  0.08638  1.0000
  O   O17       1.0  0.6026000000000005  0.94951  0.9916700000000002  1.0000
  V   V3        1.0  0.32947  0.00937  0.00155  1.0000
  O   O18       1.0  0.94076  0.90616  0.9125600000000001  1.0000
  C   C51       1.0  0.10819999999999999  0.88445  0.8835500000000001  1.0000
  O   O19       1.0  0.9361500000000003  0.92993  0.06010000000000001  1.0000
  C   C52       1.0  0.10462000000000003  0.9119200000000001  0.07901  1.0000
  V   V4        1.0  0.8289299999999998  0.99045  0.9983100000000001  1.0000
  O   O20       1.0  0.10567  0.05048999999999999  0.008320000000000001  1.0000
  C   C53       1.0  0.39161  0.77917  0.05099000000000001  1.0000
  H   H11       1.0  0.39507  0.71344  0.02514  1.0000
  H   H12       1.0  0.34319  0.8021699999999998  0.0072900000000000005  1.0000
  H   H13       1.0  0.53918  0.8023099999999999  0.06824  1.0000
  C   C54       1.0  0.58786  0.60006  0.20421  1.0000
  H   H14       1.0  0.52911  0.53829  0.19093  1.0000
  H   H15       1.0  0.68958  0.60153  0.16035000000000005  1.0000
  H   H16       1.0  0.67121  0.61526  0.25548  1.0000
  C   C55       1.0  0.67378  0.25659  0.98158  1.0000
  H   H17       1.0  0.7497  0.21504  0.004170000000000001  1.0000
  H   H18       1.0  0.77511  0.30804  0.99124  1.0000
  H   H19       1.0  0.53846  0.27385  0.012780000000000001  1.0000
  C   C56       1.0  0.6190000000000001  0.009070000000000036  0.7630700000000001  1.0000
  H   H20       1.0  0.51176  0.99298  0.7184000000000001  1.0000
  H   H21       1.0  0.76145  0.9845399999999999  0.7419100000000002  1.0000
  H   H22       1.0  0.56771  0.97915  0.802  1.0000
  C   C57       1.0  0.74896  0.24618000000000004  0.5273500000000001  1.0000
  H   H23       1.0  0.74709  0.28621  0.49364  1.0000
  H   H24       1.0  0.8967600000000002  0.22228999999999996  0.52444  1.0000
  H   H25       1.0  0.64589  0.19684  0.50144  1.0000
  C   C58       1.0  0.44099999999999995  0.4723800000000001  0.7204200000000002  1.0000
  H   H26       1.0  0.35306  0.48021  0.7697900000000002  1.0000
  H   H27       1.0  0.52722  0.52715  0.72539  1.0000
  H   H28       1.0  0.33107  0.46415  0.67745  1.0000
  C   C59       1.0  0.6129300000000001  0.48676  0.86003  1.0000
  H   H29       1.0  0.7190800000000002  0.51637  0.83583  1.0000
  O   O21       1.0  0.50754  0.52741  0.9074  1.0000
  C   C60       1.0  0.51831  0.39261000000000007  0.9552300000000001  1.0000
  H   H30       1.0  0.38629  0.37282  0.97474  1.0000
  O   O22       1.0  0.61569  0.44566000000000006  0.9966300000000001  1.0000
  C   C61       1.0  0.93069  0.13336000000000003  0.22622000000000003  1.0000
  H   H31       1.0  0.93635  0.09760999999999999  0.26241  1.0000
  O   O23       1.0  0.05782  0.12746  0.18135  1.0000
  C   C62       1.0  0.33212  0.37007  0.27499  1.0000
  H   H32       1.0  0.39806  0.43035999999999996  0.28599  1.0000
  H   H33       1.0  0.23952  0.35867  0.22623  1.0000
  H   H34       1.0  0.23718  0.36868999999999996  0.32069  1.0000
  C   C63       1.0  0.77135  0.82734  0.77592  1.0000
  H   H35       1.0  0.7146800000000001  0.86842  0.82498  1.0000
  O   O24       1.0  0.6879000000000002  0.82139  0.71925  1.0000
  C   C64       1.0  0.79011  0.6495899999999999  0.7078900000000001  1.0000
  H   H36       1.0  0.83741  0.58902  0.70547  1.0000
  H   H37       1.0  0.68744  0.66825  0.75393  1.0000
  H   H38       1.0  0.7171200000000001  0.64687  0.6566  1.0000
  C   C65       1.0  0.93196  0.73398  0.45621  1.0000
  H   H39       1.0  0.88945  0.6966299999999999  0.48855  1.0000
  O   O25       1.0  0.9178700000000002  0.80618  0.48326  1.0000
  C   C66       1.0  0.64956  0.78318  0.36654  1.0000
  H   H40       1.0  0.61681  0.73324  0.38595  1.0000
  O   O26       1.0  0.53255  0.83666  0.37763  1.0000
