data_image0
_chemical_formula_structural       C48Cr6H16O26CH3CH3
_chemical_formula_sum              "C50 Cr6 H22 O26"
_cell_length_a       10.71696
_cell_length_b       10.78514
_cell_length_c       17.10825
_cell_angle_alpha    99.83594
_cell_angle_beta     100.03247999999999
_cell_angle_gamma    60.518060000000006

_space_group_name_H-M_alt    "P 1"
_space_group_IT_number       1

loop_
  _space_group_symop_operation_xyz
  'x, y, z'

loop_
  _atom_site_type_symbol
  _atom_site_label
  _atom_site_symmetry_multiplicity
  _atom_site_fract_x
  _atom_site_fract_y
  _atom_site_fract_z
  _atom_site_occupancy
  C   C1        1.0  0.3557399999999999  0.76806  0.39792  1.0000
  C   C2        1.0  0.8679600000000001  0.20386999999999997  0.20366  1.0000
  C   C3        1.0  0.8817700000000003  0.20365999999999995  0.28736  1.0000
  C   C4        1.0  0.8640200000000001  0.43838999999999995  0.30533  1.0000
  C   C5        1.0  0.85349  0.44296  0.22460000000000005  1.0000
  C   C6        1.0  0.86584  0.08310000000000001  0.15632000000000001  1.0000
  C   C7        1.0  0.90693  0.95788  0.19017  1.0000
  C   C8        1.0  0.9390500000000002  0.9537599999999999  0.27234  1.0000
  C   C9        1.0  0.92062  0.07743  0.3210500000000001  1.0000
  C   C10       1.0  0.85883  0.32959  0.33576  1.0000
  C   C11       1.0  0.34996  0.82694  0.16098000000000007  1.0000
  C   C12       1.0  0.36922  0.3466  0.35741  1.0000
  C   C13       1.0  0.43456  0.8693699999999999  0.22182000000000004  1.0000
  C   C14       1.0  0.4150000000000001  0.8774999999999998  0.3027  1.0000
  C   C15       1.0  0.27674000000000015  0.7487899999999997  0.25837  1.0000
  C   C16       1.0  0.2796100000000002  0.7588599999999998  0.18013000000000007  1.0000
  C   C17       1.0  0.53753  0.9037299999999999  0.20499  1.0000
  C   C18       1.0  0.61405  0.94886  0.26594  1.0000
  C   C19       1.0  0.5896100000000002  0.9634699999999998  0.3446  1.0000
  C   C20       1.0  0.47950000000000004  0.9434499999999999  0.36297  1.0000
  C   C21       1.0  0.33876  0.81186  0.32  1.0000
  C   C22       1.0  0.29847000000000007  0.2777200000000001  0.7994200000000002  1.0000
  C   C23       1.0  0.78323  0.3734299999999999  0.4068200000000001  1.0000
  C   C24       1.0  0.42372999999999994  0.17632000000000003  0.76214  1.0000
  C   C25       1.0  0.4770200000000002  0.2239  0.7116500000000002  1.0000
  C   C26       1.0  0.24866  0.44637  0.7069100000000003  1.0000
  C   C27       1.0  0.21058000000000002  0.41158  0.7702600000000002  1.0000
  C   C28       1.0  0.50145  0.030429999999999992  0.77669  1.0000
  C   C29       1.0  0.6396599999999999  0.9421  0.75397  1.0000
  C   C30       1.0  0.7031299999999999  0.99809  0.7167000000000002  1.0000
  C   C31       1.0  0.6229500000000001  0.13778  0.69583  1.0000
  C   C32       1.0  0.38071000000000005  0.3526799999999999  0.6763000000000002  1.0000
  C   C33       1.0  0.8180999999999999  0.34242999999999996  0.70906  1.0000
  C   C34       1.0  0.38134000000000007  0.7153999999999999  0.6315100000000002  1.0000
  C   C35       1.0  0.84525  0.3138  0.77663  1.0000
  C   C36       1.0  0.35851  0.76514  0.7137000000000002  1.0000
  C   C37       1.0  0.3256600000000001  0.81171  0.7805700000000002  1.0000
  C   C38       1.0  0.8975600000000001  0.30783  0.09048  1.0000
  C   C39       1.0  0.31938000000000005  0.29975  0.12016  1.0000
  C   C40       1.0  0.29749000000000003  0.88967  0.08516000000000003  1.0000
  C   C41       1.0  0.88652  0.29728  0.8589500000000002  1.0000
  C   C42       1.0  0.2787  0.25339  0.87702  1.0000
  C   C43       1.0  0.2809700000000001  0.8809899999999998  0.8577  1.0000
  C   C44       1.0  0.40738  0.37475  0.60007  1.0000
  C   C45       1.0  0.7731300000000001  0.38099  0.62984  1.0000
  C   C46       1.0  0.3426900000000001  0.33661999999999986  0.27411  1.0000
  C   C47       1.0  0.33171000000000017  0.3264099999999999  0.20340000000000005  1.0000
  C   C48       1.0  0.8580300000000001  0.32373999999999997  0.17143000000000005  1.0000
  Cr  Cr1       1.0  0.6081  0.61086  0.52225  1.0000
  Cr  Cr2       1.0  0.28889  0.59999  0.4884200000000001  1.0000
  Cr  Cr3       1.0  0.60304  0.28919  0.48939  1.0000
  Cr  Cr4       1.0  0.05396000000000002  0.052250000000000005  0.9673800000000001  1.0000
  Cr  Cr5       1.0  0.059890000000000006  0.37316  0.99271  1.0000
  Cr  Cr6       1.0  0.3733700000000001  0.06169000000000002  0.9917100000000001  1.0000
  H   H1        1.0  0.86131  0.52969  0.34472  1.0000
  H   H2        1.0  0.6904700000000001  0.9755299999999998  0.25156  1.0000
  H   H3        1.0  0.65079  0.99938  0.39095  1.0000
  H   H4        1.0  0.17515999999999998  0.54679  0.6821500000000001  1.0000
  H   H5        1.0  0.45658000000000004  0.9842699999999999  0.8061800000000001  1.0000
  H   H6        1.0  0.11296000000000009  0.4895399999999999  0.79659  1.0000
  H   H7        1.0  0.69875  0.83172  0.76743  1.0000
  H   H8        1.0  0.81298  0.93239  0.70203  1.0000
  H   H9        1.0  0.67594  0.17658999999999997  0.66667  1.0000
  H   H10       1.0  0.82962  0.08344  0.09343  1.0000
  H   H11       1.0  0.91055  0.86469  0.15273000000000006  1.0000
  H   H12       1.0  0.9699  0.8568699999999999  0.2986  1.0000
  H   H13       1.0  0.94147  0.07281999999999998  0.38503  1.0000
  H   H14       1.0  0.22575  0.68965  0.27041  1.0000
  H   H15       1.0  0.5698300000000001  0.8858799999999999  0.14609000000000005  1.0000
  H   H16       1.0  0.22029999999999997  0.71931  0.13448  1.0000
  O   O1        1.0  0.7498100000000002  0.49978999999999996  0.4380400000000001  1.0000
  O   O2        1.0  0.29897  0.4688  0.55739  1.0000
  O   O3        1.0  0.4894000000000001  0.2559299999999999  0.56191  1.0000
  O   O4        1.0  0.72389  0.30605  0.58461  1.0000
  O   O5        1.0  0.50001  0.50001  0.50002  1.0000
  O   O6        1.0  0.17110000000000014  0.91468  0.0531  1.0000
  O   O7        1.0  0.94168  0.18484  0.05071  1.0000
  O   O8        1.0  0.9220799999999999  0.40341999999999995  0.07261  1.0000
  O   O9        1.0  0.19688000000000003  0.36915  0.08385  1.0000
  O   O10       1.0  0.41173  0.18102  0.09153000000000003  1.0000
  O   O11       1.0  0.36501000000000006  0.9443599999999999  0.06332  1.0000
  O   O12       1.0  0.4776599999999999  0.72626  0.43929  1.0000
  O   O13       1.0  0.15938  0.90667  0.87621  1.0000
  O   O14       1.0  0.93082  0.17741999999999994  0.88673  1.0000
  O   O15       1.0  0.91036  0.39542  0.89572  1.0000
  O   O16       1.0  0.18600999999999998  0.36172999999999994  0.91987  1.0000
  O   O17       1.0  0.3999999999999999  0.17301000000000005  0.9146300000000003  1.0000
  O   O18       1.0  0.35414000000000007  0.93694  0.8993400000000003  1.0000
  O   O19       1.0  0.16241  0.16237  0.98393  1.0000
  O   O20       1.0  0.26015000000000005  0.743  0.41227000000000014  1.0000
  O   O21       1.0  0.29774  0.46655  0.3947200000000001  1.0000
  O   O22       1.0  0.48808000000000007  0.2535  0.38643  1.0000
  O   O23       1.0  0.72267  0.30380000000000007  0.42194000000000004  1.0000
  O   O24       1.0  0.7511300000000001  0.5022200000000001  0.6135200000000002  1.0000
  O   O25       1.0  0.4788899999999999  0.72851  0.60196  1.0000
  O   O26       1.0  0.26147  0.74543  0.58775  1.0000
  C   C49       1.0  0.42401000000000005  0.009919999999999995  0.44336  1.0000
  H   H17       1.0  0.40098000000000006  0.12276999999999999  0.45224  1.0000
  H   H18       1.0  0.3197  0.015169999999999998  0.44795  1.0000
  H   H19       1.0  0.50576  0.9522099999999999  0.49197  1.0000
  C   C50       1.0  0.8355000000000001  0.57966  0.19953  1.0000
  H   H20       1.0  0.8048800000000002  0.66729  0.24869  1.0000
  H   H21       1.0  0.9389100000000001  0.56295  0.18317  1.0000
  H   H22       1.0  0.7484800000000003  0.6178199999999999  0.14964  1.0000
