data_image0
_chemical_formula_structural       O4C2O4C2O2V2C36H18C2H4C2H6C6H4C6H8O4C2O4C2O2V2H4
_chemical_formula_sum              "O20 C60 V4 H44"
_cell_length_a       21.41063
_cell_length_b       7.24734
_cell_length_c       14.77231
_cell_angle_alpha    90.49689
_cell_angle_beta     74.40228
_cell_angle_gamma    89.87444

_symmetry_space_group_name_H-M    'P 1'
_symmetry_Int_Tables_number       1

loop_
  _symmetry_equiv_pos_as_xyz
  'x,y,z'

loop_
  _atom_site_type_symbol
  _atom_site_label
  _atom_site_symmetry_multiplicity
  _atom_site_fract_x
  _atom_site_fract_y
  _atom_site_fract_z
  _atom_site_occupancy
  O   O1        1.0  0.4641600000000001  0.50667  0.13007  1.0000
  O   O2        1.0  0.5358400000000001  0.006669999999999997  0.8699299999999998  1.0000
  O   O3        1.0  0.5897100000000001  0.17908  0.006709999999999998  1.0000
  O   O4        1.0  0.41029000000000004  0.6790800000000002  0.99329  1.0000
  C   C1        1.0  0.61633  0.344  0.00205  1.0000
  C   C2        1.0  0.3836800000000001  0.84461  0.9980299999999998  1.0000
  O   O5        1.0  0.4679400000000001  0.17722000000000004  0.13800999999999994  1.0000
  O   O6        1.0  0.53206  0.67722  0.8619899999999999  1.0000
  O   O7        1.0  0.4132  0.00281  0.0021699999999999996  1.0000
  O   O8        1.0  0.5868000000000001  0.50281  0.9978299999999998  1.0000
  C   C3        1.0  0.45626000000000005  0.34651  0.17433  1.0000
  C   C4        1.0  0.5437800000000003  0.8445200000000002  0.8255799999999998  1.0000
  O   O9        1.0  0.48218000000000005  0.33785  0.95528  1.0000
  O   O10       1.0  0.5178200000000001  0.83785  0.04471999999999999  1.0000
  V   V1        1.0  0.5033100000000001  0.0646  0.0083  1.0000
  V   V2        1.0  0.49669000000000013  0.5646000000000001  0.9917  1.0000
  C   C5        1.0  0.57151  0.84769  0.7238899999999998  1.0000
  C   C6        1.0  0.4283600000000001  0.35936  0.27581  1.0000
  C   C7        1.0  0.92846  0.8700600000000002  0.27627  1.0000
  C   C8        1.0  0.07166000000000002  0.3590300000000001  0.7240099999999999  1.0000
  C   C9        1.0  0.56031  0.79688  0.56749  1.0000
  C   C10       1.0  0.439  0.43677  0.43  1.0000
  C   C11       1.0  0.5325900000000001  0.8103  0.6639499999999999  1.0000
  C   C12       1.0  0.4669200000000001  0.4111200000000001  0.33417999999999987  1.0000
  C   C13       1.0  0.6383500000000001  0.8709900000000003  0.6875199999999998  1.0000
  C   C14       1.0  0.3617200000000001  0.33375  0.31298  1.0000
  C   C15       1.0  0.66819  0.8535200000000002  0.5898399999999998  1.0000
  C   C16       1.0  0.3317000000000001  0.3624500000000001  0.40991  1.0000
  C   C17       1.0  0.6275500000000003  0.8163400000000002  0.5301299999999999  1.0000
  C   C18       1.0  0.37195  0.41439  0.4681099999999999  1.0000
  C   C19       1.0  0.73676  0.8684600000000002  0.54983  1.0000
  C   C20       1.0  0.2633300000000001  0.34396  0.4505399999999999  1.0000
  C   C21       1.0  0.76333  0.84625  0.4504499999999999  1.0000
  C   C22       1.0  0.23654000000000006  0.37756  0.5490499999999999  1.0000
  C   C23       1.0  0.7204900000000001  0.8098800000000003  0.3944699999999999  1.0000
  C   C24       1.0  0.2789700000000001  0.42871  0.60355  1.0000
  C   C25       1.0  0.65415  0.7958600000000002  0.43368  1.0000
  C   C26       1.0  0.3451199999999999  0.44613  0.56373  1.0000
  C   C27       1.0  0.77963  0.9039900000000002  0.6058599999999997  1.0000
  C   C28       1.0  0.22085000000000002  0.29369  0.39596  1.0000
  C   C29       1.0  0.8459500000000001  0.91828  0.5666299999999997  1.0000
  C   C30       1.0  0.15471000000000001  0.27601000000000003  0.43578999999999996  1.0000
  C   C31       1.0  0.8725200000000001  0.8989500000000001  0.47012999999999994  1.0000
  C   C32       1.0  0.12795000000000004  0.30655000000000004  0.53152  1.0000
  C   C33       1.0  0.83187  0.8619800000000002  0.4103899999999999  1.0000
  C   C34       1.0  0.16821  0.35826  0.58975  1.0000
  C   C35       1.0  0.9397100000000003  0.9193400000000003  0.43274  1.0000
  C   C36       1.0  0.06094000000000005  0.28325  0.5696899999999998  1.0000
  C   C37       1.0  0.96739  0.9071000000000002  0.33623  1.0000
  C   C38       1.0  0.033079999999999984  0.30767  0.6656  1.0000
  C   C39       1.0  0.86166  0.8458100000000002  0.31265  1.0000
  C   C40       1.0  0.13825000000000007  0.38560000000000005  0.6867899999999998  1.0000
  H   H1        1.0  0.8345300000000002  0.8204  0.26213  1.0000
  H   H2        1.0  0.16508000000000003  0.42281000000000013  0.7362499999999997  1.0000
  H   H3        1.0  0.019060000000000007  0.92816  0.30816  1.0000
  H   H4        1.0  0.9815600000000001  0.2851900000000001  0.6944399999999997  1.0000
  H   H5        1.0  0.8768000000000002  0.94655  0.6125099999999998  1.0000
  H   H6        1.0  0.12417999999999998  0.23645  0.39105  1.0000
  H   H7        1.0  0.52926  0.7678300000000002  0.5220499999999998  1.0000
  H   H8        1.0  0.46975  0.47693  0.4742699999999999  1.0000
  H   H9        1.0  0.48089000000000004  0.7897700000000002  0.69203  1.0000
  H   H10       1.0  0.5184800000000003  0.43309  0.30537  1.0000
  H   H11       1.0  0.66546  0.8968600000000002  0.73802  1.0000
  H   H12       1.0  0.33492  0.2960500000000001  0.26356  1.0000
  H   H13       1.0  0.7364200000000002  0.79038  0.31948  1.0000
  H   H14       1.0  0.2628300000000001  0.45744  0.6777799999999998  1.0000
  H   H15       1.0  0.76374  0.92241  0.6808999999999997  1.0000
  H   H16       1.0  0.23693000000000003  0.2661  0.32161999999999996  1.0000
  H   H17       1.0  0.9707700000000002  0.9482000000000003  0.4782  1.0000
  H   H18       1.0  0.030190000000000015  0.24331000000000005  0.52539  1.0000
  C   C41       1.0  0.22886000000000004  0.77063  0.90944  1.0000
  C   C42       1.0  0.78757  0.15986  0.005589999999999999  1.0000
  H   H19       1.0  0.2115000000000002  0.62765  0.9032099999999997  1.0000
  H   H20       1.0  0.8163800000000002  0.07721  0.9446699999999998  1.0000
  H   H21       1.0  0.22323000000000012  0.8481500000000002  0.8473999999999998  1.0000
  H   H22       1.0  0.79382  0.09457  0.07055999999999997  1.0000
  C   C43       1.0  0.30172000000000004  0.7644300000000003  0.9081099999999998  1.0000
  C   C44       1.0  0.7152800000000002  0.15321  0.006839999999999998  1.0000
  H   H23       1.0  0.31872000000000006  0.61847  0.9012299999999998  1.0000
  H   H24       1.0  0.7099900000000001  0.06735  0.9464899999999998  1.0000
  H   H25       1.0  0.17913000000000004  0.60927  0.08351  1.0000
  H   H26       1.0  0.8311700000000003  0.3701600000000001  0.8454999999999998  1.0000
  H   H27       1.0  0.28626  0.59995  0.0819  1.0000
  H   H28       1.0  0.7235200000000002  0.36043  0.8473799999999998  1.0000
  C   C45       1.0  0.19720000000000001  0.75263  0.08583  1.0000
  C   C46       1.0  0.8018000000000002  0.4468800000000001  0.90818  1.0000
  C   C47       1.0  0.21476000000000006  0.06119  0.006989999999999998  1.0000
  C   C48       1.0  0.7700600000000001  0.47118  0.08465999999999999  1.0000
  C   C49       1.0  0.18740000000000004  0.86352  0.0012099999999999995  1.0000
  C   C50       1.0  0.81266  0.3619900000000001  0.9989899999999998  1.0000
  H   H29       1.0  0.18677000000000005  0.13209000000000004  0.07257999999999998  1.0000
  H   H30       1.0  0.78597  0.6176000000000001  0.08207  1.0000
  H   H31       1.0  0.20936000000000005  0.14494  0.9466899999999998  1.0000
  H   H32       1.0  0.7762800000000001  0.41228000000000004  0.15102999999999994  1.0000
  C   C51       1.0  0.31241  0.8526400000000002  0.9989899999999998  1.0000
  C   C52       1.0  0.68765  0.35052  0.0012  1.0000
  C   C53       1.0  0.27003  0.74638  0.08459  1.0000
  C   C54       1.0  0.7289599999999999  0.44027  0.90948  1.0000
  C   C55       1.0  0.28706  0.054820000000000015  0.00577  1.0000
  C   C56       1.0  0.69724  0.46454  0.08589999999999999  1.0000
  H   H33       1.0  0.3157600000000001  0.13538  0.9449399999999998  1.0000
  H   H34       1.0  0.66863  0.4025100000000001  0.15284  1.0000
  H   H35       1.0  0.29320000000000007  0.12228000000000003  0.07082  1.0000
  H   H36       1.0  0.6788600000000001  0.6077300000000002  0.08367  1.0000
  H   H37       1.0  0.16845000000000004  0.81701  0.15279  1.0000
  H   H38       1.0  0.8184800000000002  0.5926900000000003  0.90142  1.0000
  H   H39       1.0  0.27611  0.8077600000000003  0.15099999999999994  1.0000
  H   H40       1.0  0.7112899999999999  0.5829300000000002  0.90334  1.0000
  O   O11       1.0  0.9132100000000002  0.20855  0.00211  1.0000
  O   O12       1.0  0.08679000000000006  0.7085500000000002  0.9978899999999998  1.0000
  O   O13       1.0  0.03206000000000003  0.53996  0.8619799999999997  1.0000
  O   O14       1.0  0.96794  0.039960000000000016  0.13801999999999998  1.0000
  C   C57       1.0  0.04378000000000003  0.3716000000000001  0.8254999999999998  1.0000
  C   C58       1.0  0.95618  0.87354  0.17459  1.0000
  O   O15       1.0  0.9102900000000003  0.53802  0.9932799999999998  1.0000
  O   O16       1.0  0.08971  0.03802  0.0067199999999999985  1.0000
  O   O17       1.0  0.9641600000000001  0.7123400000000002  0.13009  1.0000
  O   O18       1.0  0.035840000000000045  0.21234000000000003  0.8699099999999997  1.0000
  C   C59       1.0  0.88399  0.36989000000000005  0.9979999999999998  1.0000
  C   C60       1.0  0.11602000000000001  0.8700400000000003  0.0021  1.0000
  O   O19       1.0  0.017820000000000003  0.37921  0.044689999999999994  1.0000
  O   O20       1.0  0.9821800000000005  0.8792100000000002  0.9553099999999998  1.0000
  V   V3        1.0  0.9966900000000003  0.6525000000000002  0.9917099999999998  1.0000
  V   V4        1.0  0.00331  0.1525  0.00829  1.0000
  H   H41       1.0  0.62333  0.76707  0.38783999999999996  1.0000
  H   H42       1.0  0.37563  0.4862500000000001  0.6084199999999997  1.0000
  H   H43       1.0  0.33092000000000005  0.8390100000000003  0.8454599999999998  1.0000
  H   H44       1.0  0.68739  0.08463  0.07237  1.0000
