data_image0
_chemical_formula_structural       C120Cr12H128O52H4
_chemical_formula_sum              "C120 Cr12 H132 O52"
_cell_length_a       19.3741
_cell_length_b       11.26282
_cell_length_c       18.71162
_cell_angle_alpha    90.0
_cell_angle_beta     90.22495
_cell_angle_gamma    90.0

_space_group_name_H-M_alt    "P 1"
_space_group_IT_number       1

loop_
  _space_group_symop_operation_xyz
  'x, y, z'

loop_
  _atom_site_type_symbol
  _atom_site_label
  _atom_site_symmetry_multiplicity
  _atom_site_fract_x
  _atom_site_fract_y
  _atom_site_fract_z
  _atom_site_occupancy
  C   C1        1.0  0.27241  0.04375999999999999  0.8540999999999997  1.0000
  C   C2        1.0  0.72759  0.04375999999999999  0.1459  1.0000
  C   C3        1.0  0.77241  0.54377  0.8540999999999997  1.0000
  C   C4        1.0  0.22759  0.54377  0.1459  1.0000
  C   C5        1.0  0.51976  0.72178  0.96456  1.0000
  C   C6        1.0  0.48023999999999994  0.72178  0.03544  1.0000
  C   C7        1.0  0.01976  0.22177999999999995  0.96456  1.0000
  C   C8        1.0  0.98024  0.22177999999999995  0.03544  1.0000
  C   C9        1.0  0.3121  0.52883  0.04399  1.0000
  C   C10       1.0  0.6879  0.52884  0.9560099999999999  1.0000
  C   C11       1.0  0.8121  0.02883  0.04399  1.0000
  C   C12       1.0  0.1879  0.02883  0.9560099999999999  1.0000
  C   C13       1.0  0.32141  0.55292  0.9635699999999998  1.0000
  C   C14       1.0  0.67859  0.55292  0.03643  1.0000
  C   C15       1.0  0.82141  0.052919999999999995  0.9635699999999998  1.0000
  C   C16       1.0  0.17859  0.052919999999999995  0.03643  1.0000
  C   C17       1.0  0.1795  0.5237799999999999  0.025889999999999993  1.0000
  C   C18       1.0  0.82049  0.5237799999999999  0.9741099999999999  1.0000
  C   C19       1.0  0.6795  0.02378  0.025889999999999993  1.0000
  C   C20       1.0  0.32049  0.02378  0.9741099999999999  1.0000
  C   C21       1.0  0.24060999999999996  0.70826  0.05662  1.0000
  C   C22       1.0  0.75939  0.70826  0.9433799999999999  1.0000
  C   C23       1.0  0.74061  0.20825999999999995  0.05662  1.0000
  C   C24       1.0  0.25939  0.20825999999999995  0.9433799999999999  1.0000
  C   C25       1.0  0.24100000000000002  0.57496  0.07028999999999999  1.0000
  C   C26       1.0  0.759  0.57496  0.92971  1.0000
  C   C27       1.0  0.741  0.07496  0.07028999999999999  1.0000
  C   C28       1.0  0.259  0.07496  0.92971  1.0000
  C   C29       1.0  0.25506  0.6101  0.9322999999999999  1.0000
  C   C30       1.0  0.74494  0.6101  0.0677  1.0000
  C   C31       1.0  0.75506  0.1101  0.9322999999999999  1.0000
  C   C32       1.0  0.24494  0.1101  0.0677  1.0000
  C   C33       1.0  0.19474  0.52484  0.94513  1.0000
  C   C34       1.0  0.80526  0.52484  0.054869999999999995  1.0000
  C   C35       1.0  0.69474  0.02484  0.94513  1.0000
  C   C36       1.0  0.30526  0.02484  0.054869999999999995  1.0000
  C   C37       1.0  0.23865000000000003  0.7260899999999999  0.9746699999999999  1.0000
  C   C38       1.0  0.76135  0.7260899999999999  0.02533  1.0000
  C   C39       1.0  0.73865  0.22608999999999996  0.9746699999999999  1.0000
  C   C40       1.0  0.26135  0.22608999999999996  0.02533  1.0000
  C   C41       1.0  0.50365  0.7009299999999999  0.46033999999999997  1.0000
  C   C42       1.0  0.49635000000000007  0.7009299999999999  0.53966  1.0000
  C   C43       1.0  0.00365  0.20092999999999997  0.46033999999999997  1.0000
  C   C44       1.0  0.9963500000000001  0.20092999999999997  0.53966  1.0000
  C   C45       1.0  0.44394  0.8170099999999999  0.86244  1.0000
  C   C46       1.0  0.55606  0.8170099999999999  0.13756  1.0000
  C   C47       1.0  0.94394  0.31700999999999996  0.86244  1.0000
  C   C48       1.0  0.056060000000000006  0.31700999999999996  0.13756  1.0000
  C   C49       1.0  0.56464  0.90536  0.4737199999999999  1.0000
  C   C50       1.0  0.43535999999999997  0.90536  0.52628  1.0000
  C   C51       1.0  0.06464  0.40536  0.4737199999999999  1.0000
  C   C52       1.0  0.9353599999999999  0.40536  0.52628  1.0000
  C   C53       1.0  0.44084  0.88756  0.44434  1.0000
  C   C54       1.0  0.55916  0.88756  0.55566  1.0000
  C   C55       1.0  0.9408399999999999  0.38756  0.44434  1.0000
  C   C56       1.0  0.05915999999999999  0.38756  0.55566  1.0000
  C   C57       1.0  0.51062  0.8292899999999999  0.43092  1.0000
  C   C58       1.0  0.48938  0.8292899999999999  0.56908  1.0000
  C   C59       1.0  0.01062  0.32928999999999997  0.43092  1.0000
  C   C60       1.0  0.98938  0.32928999999999997  0.56908  1.0000
  C   C61       1.0  0.17963  0.64722  0.4592399999999999  1.0000
  C   C62       1.0  0.82037  0.64722  0.54076  1.0000
  C   C63       1.0  0.67963  0.14722  0.4592399999999999  1.0000
  C   C64       1.0  0.32037  0.14722  0.54076  1.0000
  C   C65       1.0  0.18435  0.65966  0.53847  1.0000
  C   C66       1.0  0.81565  0.65966  0.46153  1.0000
  C   C67       1.0  0.68435  0.15966  0.53847  1.0000
  C   C68       1.0  0.31565  0.15966  0.46153  1.0000
  C   C69       1.0  0.2526  0.45447  0.47301  1.0000
  C   C70       1.0  0.7474  0.45447  0.52699  1.0000
  C   C71       1.0  0.7526  0.9544699999999999  0.47301  1.0000
  C   C72       1.0  0.2474  0.9544699999999999  0.52699  1.0000
  C   C73       1.0  0.30479  0.6479599999999999  0.44252  1.0000
  C   C74       1.0  0.69521  0.6479599999999999  0.55748  1.0000
  C   C75       1.0  0.80479  0.14796  0.44252  1.0000
  C   C76       1.0  0.19521  0.14796  0.55748  1.0000
  C   C77       1.0  0.24060999999999996  0.5725099999999999  0.42998999999999993  1.0000
  C   C78       1.0  0.75939  0.5725099999999999  0.57001  1.0000
  C   C79       1.0  0.74061  0.07251  0.42998999999999993  1.0000
  C   C80       1.0  0.25939  0.07251  0.57001  1.0000
  C   C81       1.0  0.25283  0.6060399999999999  0.5675599999999998  1.0000
  C   C82       1.0  0.74718  0.6060399999999999  0.43243999999999994  1.0000
  C   C83       1.0  0.75282  0.10603999999999997  0.5675599999999998  1.0000
  C   C84       1.0  0.24718  0.10603999999999997  0.43243999999999994  1.0000
  C   C85       1.0  0.24732  0.4727099999999999  0.5547499999999999  1.0000
  C   C86       1.0  0.75268  0.4727099999999999  0.44525  1.0000
  C   C87       1.0  0.74732  0.9727099999999997  0.5547499999999999  1.0000
  C   C88       1.0  0.25268  0.9727099999999997  0.44525  1.0000
  C   C89       1.0  0.26216  0.6418599999999999  0.8550999999999999  1.0000
  C   C90       1.0  0.73784  0.6418599999999999  0.1449  1.0000
  C   C91       1.0  0.76216  0.14185999999999999  0.8550999999999999  1.0000
  C   C92       1.0  0.23784  0.14185999999999999  0.1449  1.0000
  C   C93       1.0  0.31753  0.64849  0.52425  1.0000
  C   C94       1.0  0.68247  0.64849  0.47575  1.0000
  C   C95       1.0  0.81752  0.14849  0.52425  1.0000
  C   C96       1.0  0.18247  0.14849  0.47575  1.0000
  C   C97       1.0  0.27306  0.043379999999999995  0.64572  1.0000
  C   C98       1.0  0.72694  0.043379999999999995  0.3542799999999999  1.0000
  C   C99       1.0  0.77306  0.5433799999999999  0.64572  1.0000
  C   C100      1.0  0.22694  0.5433799999999999  0.3542799999999999  1.0000
  C   C101      1.0  0.46872  0.82314  0.64532  1.0000
  C   C102      1.0  0.53128  0.82314  0.35468  1.0000
  C   C103      1.0  0.9687199999999999  0.32314  0.64532  1.0000
  C   C104      1.0  0.03128  0.32314  0.35468  1.0000
  C   C105      1.0  0.26095  0.6401399999999999  0.64351  1.0000
  C   C106      1.0  0.73905  0.6401399999999999  0.35649  1.0000
  C   C107      1.0  0.76095  0.14014  0.64351  1.0000
  C   C108      1.0  0.23905  0.14014  0.35649  1.0000
  C   C109      1.0  0.47973999999999994  0.9159399999999998  0.03567  1.0000
  C   C110      1.0  0.52026  0.9159399999999998  0.9643299999999999  1.0000
  C   C111      1.0  0.9797400000000002  0.4159399999999999  0.03567  1.0000
  C   C112      1.0  0.02026  0.4159399999999999  0.9643299999999999  1.0000
  C   C113      1.0  0.43139  0.8177799999999998  0.0066  1.0000
  C   C114      1.0  0.56861  0.81777  0.9934  1.0000
  C   C115      1.0  0.93139  0.31778  0.0066  1.0000
  C   C116      1.0  0.06861  0.31777  0.9934  1.0000
  C   C117      1.0  0.47186  0.8195  0.9360699999999998  1.0000
  C   C118      1.0  0.52814  0.8195  0.06393  1.0000
  C   C119      1.0  0.9718599999999998  0.3195  0.9360699999999998  1.0000
  C   C120      1.0  0.02814  0.3195  0.06393  1.0000
  Cr  Cr1       1.0  0.22962000000000002  0.83604  0.74911  1.0000
  Cr  Cr2       1.0  0.77038  0.83604  0.25089  1.0000
  Cr  Cr3       1.0  0.72962  0.33604  0.74911  1.0000
  Cr  Cr4       1.0  0.27038  0.33604  0.25089  1.0000
  Cr  Cr5       1.0  0.38763  0.99068  0.75073  1.0000
  Cr  Cr6       1.0  0.61237  0.99068  0.24927  1.0000
  Cr  Cr7       1.0  0.88763  0.49068  0.75073  1.0000
  Cr  Cr8       1.0  0.11236999999999998  0.49068  0.24927  1.0000
  Cr  Cr9       1.0  0.38602  0.6765899999999999  0.74921  1.0000
  Cr  Cr10      1.0  0.61398  0.6765899999999999  0.25079  1.0000
  Cr  Cr11      1.0  0.88602  0.17658999999999997  0.74921  1.0000
  Cr  Cr12      1.0  0.11398000000000001  0.17658999999999997  0.25079  1.0000
  H   H1        1.0  0.37651  0.80454  0.01762  1.0000
  H   H2        1.0  0.62349  0.80454  0.9823799999999998  1.0000
  H   H3        1.0  0.87651  0.30454  0.01762  1.0000
  H   H4        1.0  0.12349  0.30454  0.9823799999999998  1.0000
  H   H5        1.0  0.28721  0.7471399999999998  0.08147999999999998  1.0000
  H   H6        1.0  0.71279  0.7471399999999998  0.91852  1.0000
  H   H7        1.0  0.78721  0.24713999999999997  0.08147999999999998  1.0000
  H   H8        1.0  0.21278999999999998  0.24713999999999997  0.91852  1.0000
  H   H9        1.0  0.27354  0.79598  0.95837  1.0000
  H   H10       1.0  0.72646  0.79598  0.041629999999999986  1.0000
  H   H11       1.0  0.77354  0.29597999999999997  0.95837  1.0000
  H   H12       1.0  0.22646  0.29597999999999997  0.041629999999999986  1.0000
  H   H13       1.0  0.18513  0.7522399999999999  0.96046  1.0000
  H   H14       1.0  0.81487  0.7522399999999999  0.03953999999999999  1.0000
  H   H15       1.0  0.68513  0.25223999999999996  0.96046  1.0000
  H   H16       1.0  0.31487  0.25223999999999996  0.03953999999999999  1.0000
  H   H17       1.0  0.63263  0.07927999999999999  0.03465  1.0000
  H   H18       1.0  0.36737  0.07926999999999998  0.96535  1.0000
  H   H19       1.0  0.13263  0.5792799999999999  0.03465  1.0000
  H   H20       1.0  0.86737  0.57927  0.96535  1.0000
  H   H21       1.0  0.14818  0.55427  0.9151599999999999  1.0000
  H   H22       1.0  0.85182  0.55427  0.08484  1.0000
  H   H23       1.0  0.64818  0.05427  0.9151599999999999  1.0000
  H   H24       1.0  0.35182  0.05427  0.08484  1.0000
  H   H25       1.0  0.54665  0.64365  0.44609999999999994  1.0000
  H   H26       1.0  0.45335  0.64365  0.5539  1.0000
  H   H27       1.0  0.04665  0.14365  0.44609999999999994  1.0000
  H   H28       1.0  0.9533499999999999  0.14365  0.5539  1.0000
  H   H29       1.0  0.45849  0.65624  0.43569  1.0000
  H   H30       1.0  0.54151  0.65624  0.56431  1.0000
  H   H31       1.0  0.95849  0.15623999999999996  0.43569  1.0000
  H   H32       1.0  0.04151  0.15623999999999996  0.56431  1.0000
  H   H33       1.0  0.61672  0.89718  0.4537  1.0000
  H   H34       1.0  0.38328  0.89718  0.5463  1.0000
  H   H35       1.0  0.11671  0.39717999999999987  0.4537  1.0000
  H   H36       1.0  0.88328  0.39717999999999987  0.5463  1.0000
  H   H37       1.0  0.60124  0.83091  0.57614  1.0000
  H   H38       1.0  0.39876  0.83091  0.42386  1.0000
  H   H39       1.0  0.10124  0.3309099999999999  0.57614  1.0000
  H   H40       1.0  0.8987600000000001  0.3309099999999999  0.42386  1.0000
  H   H41       1.0  0.46487  0.9969799999999998  0.06545  1.0000
  H   H42       1.0  0.53513  0.9969799999999998  0.93455  1.0000
  H   H43       1.0  0.96487  0.4969799999999999  0.06545  1.0000
  H   H44       1.0  0.035129999999999995  0.4969799999999999  0.93455  1.0000
  H   H45       1.0  0.43779  0.9738499999999998  0.41589  1.0000
  H   H46       1.0  0.56221  0.97386  0.58411  1.0000
  H   H47       1.0  0.93779  0.47385  0.41589  1.0000
  H   H48       1.0  0.06221  0.47386  0.58411  1.0000
  H   H49       1.0  0.44977000000000006  0.9987  0.53636  1.0000
  H   H50       1.0  0.55023  0.9987  0.46364  1.0000
  H   H51       1.0  0.94977  0.49871  0.53636  1.0000
  H   H52       1.0  0.05023  0.49871  0.46364  1.0000
  H   H53       1.0  0.12925  0.61105  0.44548999999999994  1.0000
  H   H54       1.0  0.87075  0.61105  0.55451  1.0000
  H   H55       1.0  0.62925  0.11104999999999998  0.44548999999999994  1.0000
  H   H56       1.0  0.37075  0.11104999999999998  0.55451  1.0000
  H   H57       1.0  0.17925  0.73642  0.43406999999999996  1.0000
  H   H58       1.0  0.82075  0.73642  0.5659299999999999  1.0000
  H   H59       1.0  0.67925  0.23642  0.43406999999999996  1.0000
  H   H60       1.0  0.32075  0.23642  0.5659299999999999  1.0000
  H   H61       1.0  0.17775  0.7529199999999999  0.55205  1.0000
  H   H62       1.0  0.82225  0.7529199999999999  0.44795  1.0000
  H   H63       1.0  0.67775  0.2529199999999999  0.55205  1.0000
  H   H64       1.0  0.32225  0.2529199999999999  0.44795  1.0000
  H   H65       1.0  0.1395  0.61556  0.5637799999999998  1.0000
  H   H66       1.0  0.8604999999999999  0.61556  0.43622  1.0000
  H   H67       1.0  0.6395  0.11555999999999997  0.5637799999999998  1.0000
  H   H68       1.0  0.3605  0.11555999999999997  0.43622  1.0000
  H   H69       1.0  0.72225  0.8803799999999998  0.45364  1.0000
  H   H70       1.0  0.27775  0.8803799999999998  0.5463599999999997  1.0000
  H   H71       1.0  0.22224  0.38037999999999994  0.45364  1.0000
  H   H72       1.0  0.77775  0.38037999999999994  0.5463599999999997  1.0000
  H   H73       1.0  0.69804  0.9384099999999999  0.57565  1.0000
  H   H74       1.0  0.30196  0.9384099999999999  0.4243499999999999  1.0000
  H   H75       1.0  0.19804  0.43839999999999996  0.57565  1.0000
  H   H76       1.0  0.80196  0.43839999999999996  0.4243499999999999  1.0000
  H   H77       1.0  0.34945  0.6091599999999999  0.4138299999999999  1.0000
  H   H78       1.0  0.65055  0.6091599999999999  0.5861699999999999  1.0000
  H   H79       1.0  0.84945  0.10916  0.4138299999999999  1.0000
  H   H80       1.0  0.15055  0.10916  0.5861699999999999  1.0000
  H   H81       1.0  0.29682  0.73873  0.42178  1.0000
  H   H82       1.0  0.70318  0.73873  0.57822  1.0000
  H   H83       1.0  0.79682  0.23873  0.42178  1.0000
  H   H84       1.0  0.20318  0.23873  0.57822  1.0000
  H   H85       1.0  0.53479  0.64019  0.9354  1.0000
  H   H86       1.0  0.46521000000000007  0.64019  0.0646  1.0000
  H   H87       1.0  0.03479  0.14019  0.9354  1.0000
  H   H88       1.0  0.96521  0.14019  0.0646  1.0000
  H   H89       1.0  0.33916  0.7310699999999999  0.54349  1.0000
  H   H90       1.0  0.66084  0.7310699999999999  0.45650999999999997  1.0000
  H   H91       1.0  0.8391599999999999  0.23107  0.54349  1.0000
  H   H92       1.0  0.16084  0.23107  0.45650999999999997  1.0000
  H   H93       1.0  0.35768  0.5809099999999999  0.53422  1.0000
  H   H94       1.0  0.64232  0.5809099999999999  0.46578  1.0000
  H   H95       1.0  0.8576800000000001  0.08091  0.53422  1.0000
  H   H96       1.0  0.14232  0.08091  0.46578  1.0000
  H   H97       1.0  0.3067  0.42907  0.4625  1.0000
  H   H98       1.0  0.6933  0.42907  0.5375  1.0000
  H   H99       1.0  0.8067  0.9290699999999997  0.4625  1.0000
  H   H100      1.0  0.1933  0.9290699999999997  0.5375  1.0000
  H   H101      1.0  0.28969  0.42549999999999993  0.5829799999999998  1.0000
  H   H102      1.0  0.71032  0.42549999999999993  0.41701999999999995  1.0000
  H   H103      1.0  0.78968  0.9255  0.5829799999999998  1.0000
  H   H104      1.0  0.21032  0.9255  0.41701999999999995  1.0000
  H   H105      1.0  0.3184  0.43437999999999993  0.05508  1.0000
  H   H106      1.0  0.6816  0.43437999999999993  0.9449199999999999  1.0000
  H   H107      1.0  0.8184  0.9343799999999998  0.05508  1.0000
  H   H108      1.0  0.1816  0.9343799999999998  0.9449199999999999  1.0000
  H   H109      1.0  0.35394  0.57327  0.07459999999999999  1.0000
  H   H110      1.0  0.64606  0.57327  0.9254  1.0000
  H   H111      1.0  0.8539399999999999  0.07327  0.07459999999999999  1.0000
  H   H112      1.0  0.14606  0.07327  0.9254  1.0000
  H   H113      1.0  0.36621  0.6126899999999998  0.9554399999999998  1.0000
  H   H114      1.0  0.63379  0.6126899999999998  0.04456  1.0000
  H   H115      1.0  0.86621  0.11269  0.9554399999999998  1.0000
  H   H116      1.0  0.13379  0.11269  0.04456  1.0000
  H   H117      1.0  0.33304  0.46831  0.93543  1.0000
  H   H118      1.0  0.66696  0.46831  0.06457  1.0000
  H   H119      1.0  0.83304  0.96831  0.93543  1.0000
  H   H120      1.0  0.16696  0.96831  0.06457  1.0000
  H   H121      1.0  0.66412  0.93836  0.047199999999999985  1.0000
  H   H122      1.0  0.33588  0.93836  0.9528  1.0000
  H   H123      1.0  0.16412  0.4383599999999999  0.047199999999999985  1.0000
  H   H124      1.0  0.83588  0.4383599999999999  0.9528  1.0000
  H   H125      1.0  0.7082  0.93581  0.92571  1.0000
  H   H126      1.0  0.2918  0.93581  0.07429  1.0000
  H   H127      1.0  0.2082  0.43580999999999986  0.92571  1.0000
  H   H128      1.0  0.7918  0.43580999999999986  0.07429  1.0000
  O   O1        1.0  0.21412999999999993  0.7085699999999999  0.8298899999999998  1.0000
  O   O2        1.0  0.78587  0.7085699999999999  0.17011  1.0000
  O   O3        1.0  0.71413  0.20856999999999995  0.8298899999999998  1.0000
  O   O4        1.0  0.28587  0.20856999999999995  0.17011  1.0000
  O   O5        1.0  0.44636  0.9199899999999999  0.67523  1.0000
  O   O6        1.0  0.55364  0.9199899999999999  0.32477  1.0000
  O   O7        1.0  0.9463600000000001  0.4199899999999999  0.67523  1.0000
  O   O8        1.0  0.05364  0.4199899999999999  0.32477  1.0000
  O   O9        1.0  0.4571700000000001  0.7172999999999999  0.66838  1.0000
  O   O10       1.0  0.54283  0.7172999999999999  0.33161999999999997  1.0000
  O   O11       1.0  0.9571700000000001  0.21729999999999994  0.66838  1.0000
  O   O12       1.0  0.04283  0.21729999999999994  0.33161999999999997  1.0000
  O   O13       1.0  0.32087  0.6248899999999998  0.67313  1.0000
  O   O14       1.0  0.67913  0.6248899999999998  0.32687  1.0000
  O   O15       1.0  0.82087  0.12489  0.67313  1.0000
  O   O16       1.0  0.17913  0.12489  0.32687  1.0000
  O   O17       1.0  0.33443  0.83443  0.74968  1.0000
  O   O18       1.0  0.66557  0.83443  0.25032  1.0000
  O   O19       1.0  0.83443  0.33442999999999995  0.74968  1.0000
  O   O20       1.0  0.16557  0.33442999999999995  0.25032  1.0000
  O   O21       1.0  0.23605000000000004  0.9591499999999997  0.8252699999999997  1.0000
  O   O22       1.0  0.76395  0.9591499999999997  0.17472999999999994  1.0000
  O   O23       1.0  0.73605  0.45915  0.8252699999999997  1.0000
  O   O24       1.0  0.26395  0.45915  0.17472999999999994  1.0000
  O   O25       1.0  0.3321  0.07665  0.83231  1.0000
  O   O26       1.0  0.6679  0.07665  0.16769  1.0000
  O   O27       1.0  0.8321  0.57665  0.83231  1.0000
  O   O28       1.0  0.1679  0.57665  0.16769  1.0000
  O   O29       1.0  0.44650000000000006  0.9186199999999999  0.8262399999999999  1.0000
  O   O30       1.0  0.5535  0.9186199999999999  0.17376  1.0000
  O   O31       1.0  0.9465  0.41862  0.8262399999999999  1.0000
  O   O32       1.0  0.05349999999999999  0.41862  0.17376  1.0000
  O   O33       1.0  0.45731000000000005  0.71583  0.8312799999999998  1.0000
  O   O34       1.0  0.54269  0.71583  0.16871999999999995  1.0000
  O   O35       1.0  0.95731  0.21582999999999997  0.8312799999999998  1.0000
  O   O36       1.0  0.04269  0.21582999999999997  0.16871999999999995  1.0000
  O   O37       1.0  0.321  0.62352  0.82413  1.0000
  O   O38       1.0  0.679  0.62352  0.17587  1.0000
  O   O39       1.0  0.821  0.12352  0.82413  1.0000
  O   O40       1.0  0.179  0.12352  0.17587  1.0000
  O   O41       1.0  0.21399  0.7100399999999999  0.667  1.0000
  O   O42       1.0  0.78601  0.7100399999999999  0.333  1.0000
  O   O43       1.0  0.71399  0.21004  0.667  1.0000
  O   O44       1.0  0.28601  0.21004  0.333  1.0000
  O   O45       1.0  0.23592000000000002  0.96052  0.67426  1.0000
  O   O46       1.0  0.76408  0.96052  0.32573999999999986  1.0000
  O   O47       1.0  0.73592  0.46051999999999993  0.67426  1.0000
  O   O48       1.0  0.26408  0.46051999999999993  0.32573999999999986  1.0000
  O   O49       1.0  0.33196  0.07811999999999998  0.66941  1.0000
  O   O50       1.0  0.66804  0.07811999999999998  0.33059  1.0000
  O   O51       1.0  0.83196  0.57812  0.66941  1.0000
  O   O52       1.0  0.16804  0.57812  0.33059  1.0000
  H   H129      1.0  0.19503  0.7519699999999999  0.08129  1.0000
  H   H130      1.0  0.80497  0.7519699999999999  0.91871  1.0000
  H   H131      1.0  0.69503  0.25197  0.08129  1.0000
  H   H132      1.0  0.30497  0.25197  0.91871  1.0000
