data_image0
_chemical_formula_structural       C140Cr12H68O52SO3HSO3HSO3HSO3H
_chemical_formula_sum              "C140 Cr12 H72 O64 S4"
_cell_length_a       19.48175
_cell_length_b       11.0935
_cell_length_c       18.66464
_cell_angle_alpha    89.87372999999998
_cell_angle_beta     91.83352000000001
_cell_angle_gamma    88.87236

_symmetry_space_group_name_H-M    'P 1'
_symmetry_Int_Tables_number       1

loop_
  _symmetry_equiv_pos_as_xyz
  'x,y,z'

loop_
  _atom_site_type_symbol
  _atom_site_label
  _atom_site_symmetry_multiplicity
  _atom_site_fract_x
  _atom_site_fract_y
  _atom_site_fract_z
  _atom_site_occupancy
  C   C1        1.0  0.72913  0.37928  0.14754  1.0000
  C   C2        1.0  0.2727  0.37473999999999996  0.85437  1.0000
  C   C3        1.0  0.22913  0.8792799999999998  0.14754  1.0000
  C   C4        1.0  0.77271  0.8747399999999999  0.85437  1.0000
  C   C5        1.0  0.44681  0.0871  0.04369  1.0000
  C   C6        1.0  0.4919200000000001  0.05126  0.9801499999999999  1.0000
  C   C7        1.0  0.94681  0.5871  0.04369  1.0000
  C   C8        1.0  0.99192  0.55126  0.9801499999999999  1.0000
  C   C9        1.0  0.76122  0.9135  0.92869  1.0000
  C   C10       1.0  0.24961000000000003  0.93984  0.08111  1.0000
  C   C11       1.0  0.26122  0.4134999999999999  0.92869  1.0000
  C   C12       1.0  0.74961  0.43983999999999995  0.08111  1.0000
  C   C13       1.0  0.6992600000000002  0.886  0.9600299999999999  1.0000
  C   C14       1.0  0.31307  0.9102199999999999  0.05237  1.0000
  C   C15       1.0  0.19926  0.386  0.9600299999999999  1.0000
  C   C16       1.0  0.81307  0.41022  0.05237  1.0000
  C   C17       1.0  0.69669  0.87271  0.0353  1.0000
  C   C18       1.0  0.32198  0.92627  0.9776999999999999  1.0000
  C   C19       1.0  0.1967  0.37271  0.0353  1.0000
  C   C20       1.0  0.82198  0.42627  0.9776999999999999  1.0000
  C   C21       1.0  0.81342  0.9384300000000001  0.04765  1.0000
  C   C22       1.0  0.21947000000000003  0.05272  0.9729899999999999  1.0000
  C   C23       1.0  0.31342  0.43843  0.04765  1.0000
  C   C24       1.0  0.71947  0.55272  0.9729899999999999  1.0000
  C   C25       1.0  0.81836  0.94588  0.97401  1.0000
  C   C26       1.0  0.20073  0.007619999999999999  0.03814  1.0000
  C   C27       1.0  0.31836000000000003  0.44588  0.97401  1.0000
  C   C28       1.0  0.70073  0.50762  0.03814  1.0000
  C   C29       1.0  0.64046  0.8640599999999999  0.91722  1.0000
  C   C30       1.0  0.36581  0.8546599999999999  0.09521  1.0000
  C   C31       1.0  0.14046000000000003  0.36407  0.91722  1.0000
  C   C32       1.0  0.86581  0.35466  0.09521  1.0000
  C   C33       1.0  0.08881  0.29769  0.94429  1.0000
  C   C34       1.0  0.91957  0.29635  0.06437  1.0000
  C   C35       1.0  0.58881  0.7976899999999999  0.94429  1.0000
  C   C36       1.0  0.41957  0.7963499999999999  0.06437  1.0000
  C   C37       1.0  0.58811  0.7749300000000001  0.01756  1.0000
  C   C38       1.0  0.42389000000000004  0.79976  0.99075  1.0000
  C   C39       1.0  0.08811  0.27493  0.01756  1.0000
  C   C40       1.0  0.9238900000000001  0.29977  0.99075  1.0000
  C   C41       1.0  0.64019  0.81468  0.06341  1.0000
  C   C42       1.0  0.3788  0.86743  0.9482299999999999  1.0000
  C   C43       1.0  0.14019  0.31468  0.06341  1.0000
  C   C44       1.0  0.8788  0.36743  0.9482299999999999  1.0000
  C   C45       1.0  0.53246  0.15652  0.14456  1.0000
  C   C46       1.0  0.43803000000000003  0.15134  0.8623200000000001  1.0000
  C   C47       1.0  0.03246  0.65652  0.14456  1.0000
  C   C48       1.0  0.93803  0.65134  0.8623200000000001  1.0000
  C   C49       1.0  0.75197  0.91275  0.07907  1.0000
  C   C50       1.0  0.27315  0.99825  0.9372400000000001  1.0000
  C   C51       1.0  0.25197  0.41275  0.07907  1.0000
  C   C52       1.0  0.77314  0.49825  0.9372400000000001  1.0000
  C   C53       1.0  0.466  0.16118  0.56515  1.0000
  C   C54       1.0  0.5360800000000001  0.15256  0.43605  1.0000
  C   C55       1.0  0.9660000000000001  0.66118  0.56515  1.0000
  C   C56       1.0  0.03608  0.65256  0.43605  1.0000
  C   C57       1.0  0.46484000000000003  0.05691  0.52278  1.0000
  C   C58       1.0  0.51044  0.04546  0.46689  1.0000
  C   C59       1.0  0.96484  0.55691  0.52278  1.0000
  C   C60       1.0  0.01044  0.54546  0.46689  1.0000
  C   C61       1.0  0.52981  0.26124  0.47357  1.0000
  C   C62       1.0  0.4981100000000001  0.26407  0.53963  1.0000
  C   C63       1.0  0.02981  0.7612400000000001  0.47357  1.0000
  C   C64       1.0  0.99811  0.76407  0.53963  1.0000
  C   C65       1.0  0.4194  0.96298  0.53478  1.0000
  C   C66       1.0  0.52332  0.92775  0.44047  1.0000
  C   C67       1.0  0.9194  0.46297999999999995  0.53478  1.0000
  C   C68       1.0  0.02332  0.4277500000000001  0.44047  1.0000
  C   C69       1.0  0.92546  0.35507  0.49824000000000007  1.0000
  C   C70       1.0  0.9772700000000001  0.33691  0.45117999999999997  1.0000
  C   C71       1.0  0.4254600000000001  0.85507  0.49824000000000007  1.0000
  C   C72       1.0  0.47727  0.8369099999999999  0.45117999999999997  1.0000
  C   C73       1.0  0.7615600000000001  0.90303  0.56649  1.0000
  C   C74       1.0  0.22246  0.85807  0.44072999999999996  1.0000
  C   C75       1.0  0.26156000000000007  0.40303000000000005  0.56649  1.0000
  C   C76       1.0  0.7224600000000001  0.35807  0.44072999999999996  1.0000
  C   C77       1.0  0.8172  0.9498699999999999  0.52739  1.0000
  C   C78       1.0  0.17856  0.94018  0.4769  1.0000
  C   C79       1.0  0.3172  0.44987  0.52739  1.0000
  C   C80       1.0  0.67856  0.44018  0.4769  1.0000
  C   C81       1.0  0.8221700000000001  0.9203099999999999  0.45480000000000004  1.0000
  C   C82       1.0  0.17053  0.92243  0.55037  1.0000
  C   C83       1.0  0.32216  0.4203  0.45480000000000004  1.0000
  C   C84       1.0  0.67053  0.42243  0.55037  1.0000
  C   C85       1.0  0.70748  0.84498  0.4540600000000001  1.0000
  C   C86       1.0  0.27194  0.79849  0.55718  1.0000
  C   C87       1.0  0.20748  0.34498  0.4540600000000001  1.0000
  C   C88       1.0  0.77194  0.29849  0.55718  1.0000
  C   C89       1.0  0.74166  0.96788  0.1497  1.0000
  C   C90       1.0  0.27259  0.01896  0.85889  1.0000
  C   C91       1.0  0.24166  0.46788  0.1497  1.0000
  C   C92       1.0  0.7725799999999999  0.51896  0.85889  1.0000
  C   C93       1.0  0.70774  0.8476400000000001  0.52846  1.0000
  C   C94       1.0  0.26412  0.77853  0.4828799999999999  1.0000
  C   C95       1.0  0.20775000000000002  0.34764  0.52846  1.0000
  C   C96       1.0  0.7641200000000001  0.27853  0.4828799999999999  1.0000
  C   C97       1.0  0.86729  0.027320000000000004  0.5566  1.0000
  C   C98       1.0  0.14646  0.04415  0.44599  1.0000
  C   C99       1.0  0.36729  0.52732  0.5566  1.0000
  C   C100      1.0  0.64646  0.54415  0.44599  1.0000
  C   C101      1.0  0.92436  0.05636  0.51817  1.0000
  C   C102      1.0  0.10243000000000002  0.11524  0.48606000000000005  1.0000
  C   C103      1.0  0.42436000000000007  0.55636  0.51817  1.0000
  C   C104      1.0  0.60243  0.61524  0.48606000000000005  1.0000
  C   C105      1.0  0.9345500000000001  0.0081  0.45073  1.0000
  C   C106      1.0  0.08642  0.08179  0.55507  1.0000
  C   C107      1.0  0.43455  0.5081  0.45073  1.0000
  C   C108      1.0  0.58642  0.58179  0.55507  1.0000
  C   C109      1.0  0.8838  0.9384699999999999  0.4191  1.0000
  C   C110      1.0  0.11444  0.9766999999999999  0.58404  1.0000
  C   C111      1.0  0.3838  0.43847  0.4191  1.0000
  C   C112      1.0  0.61444  0.4767  0.58404  1.0000
  C   C113      1.0  0.76161  0.8934500000000001  0.41718  1.0000
  C   C114      1.0  0.22921  0.8824000000000001  0.58979  1.0000
  C   C115      1.0  0.26161000000000006  0.39343999999999996  0.41718  1.0000
  C   C116      1.0  0.72921  0.3824  0.58979  1.0000
  C   C117      1.0  0.7143  0.33779  0.36275  1.0000
  C   C118      1.0  0.27156  0.37531000000000003  0.64324  1.0000
  C   C119      1.0  0.21430000000000002  0.83779  0.36275  1.0000
  C   C120      1.0  0.77156  0.8753099999999999  0.64324  1.0000
  C   C121      1.0  0.56012  0.15194  0.36179  1.0000
  C   C122      1.0  0.44098  0.15479  0.63845  1.0000
  C   C123      1.0  0.06012  0.65194  0.36179  1.0000
  C   C124      1.0  0.94098  0.65479  0.63845  1.0000
  C   C125      1.0  0.7446900000000001  0.96405  0.35245  1.0000
  C   C126      1.0  0.25374  0.9597299999999999  0.65013  1.0000
  C   C127      1.0  0.24469000000000002  0.4640500000000001  0.35245  1.0000
  C   C128      1.0  0.75374  0.4597300000000001  0.65013  1.0000
  C   C129      1.0  0.51822  0.23942999999999998  0.96539  1.0000
  C   C130      1.0  0.4733800000000001  0.27522  0.029899999999999996  1.0000
  C   C131      1.0  0.018220000000000004  0.73943  0.96539  1.0000
  C   C132      1.0  0.97338  0.77522  0.029899999999999996  1.0000
  C   C133      1.0  0.54921  0.13173  0.00839  1.0000
  C   C134      1.0  0.4155400000000001  0.19421  0.00057  1.0000
  C   C135      1.0  0.04921  0.63173  0.00839  1.0000
  C   C136      1.0  0.9155400000000001  0.69421  0.00057  1.0000
  C   C137      1.0  0.5039600000000001  0.16679  0.07119  1.0000
  C   C138      1.0  0.46092000000000005  0.15844  0.93787  1.0000
  C   C139      1.0  0.00396  0.66679  0.07119  1.0000
  C   C140      1.0  0.96092  0.65844  0.93787  1.0000
  Cr  Cr1       1.0  0.77282  0.16982  0.25264  1.0000
  Cr  Cr2       1.0  0.22718000000000002  0.16982  0.74736  1.0000
  Cr  Cr3       1.0  0.27282  0.66982  0.25264  1.0000
  Cr  Cr4       1.0  0.72718  0.66982  0.74736  1.0000
  Cr  Cr5       1.0  0.61504  0.32361  0.24915  1.0000
  Cr  Cr6       1.0  0.3849600000000001  0.32361  0.75085  1.0000
  Cr  Cr7       1.0  0.11504000000000002  0.8236100000000001  0.24915  1.0000
  Cr  Cr8       1.0  0.8849600000000001  0.8236100000000001  0.75085  1.0000
  Cr  Cr9       1.0  0.61672  0.011129999999999996  0.25066  1.0000
  Cr  Cr10      1.0  0.38328  0.011130000000000001  0.74934  1.0000
  Cr  Cr11      1.0  0.11672  0.51113  0.25066  1.0000
  Cr  Cr12      1.0  0.8832800000000001  0.51113  0.74934  1.0000
  H   H1        1.0  0.60454  0.10586  0.01308  1.0000
  H   H2        1.0  0.35964  0.21385  0.9955  1.0000
  H   H3        1.0  0.10454  0.60586  0.01308  1.0000
  H   H4        1.0  0.8596400000000001  0.71385  0.9955  1.0000
  H   H5        1.0  0.54975  0.34337  0.45195  1.0000
  H   H6        1.0  0.49753000000000003  0.34675  0.57007  1.0000
  H   H7        1.0  0.04975000000000001  0.8433699999999998  0.45195  1.0000
  H   H8        1.0  0.99753  0.84675  0.57007  1.0000
  H   H9        1.0  0.37768000000000007  0.97498  0.56981  1.0000
  H   H10       1.0  0.56632  0.90557  0.40818  1.0000
  H   H11       1.0  0.87768  0.47498  0.56981  1.0000
  H   H12       1.0  0.06632  0.40556999999999993  0.40818  1.0000
  H   H13       1.0  0.89209  0.28313  0.50779  1.0000
  H   H14       1.0  0.9812800000000002  0.25266  0.42258  1.0000
  H   H15       1.0  0.39209  0.7831299999999999  0.50779  1.0000
  H   H16       1.0  0.48128  0.75266  0.42258  1.0000
  H   H17       1.0  0.6638  0.812  0.42434  1.0000
  H   H18       1.0  0.3128000000000001  0.75518  0.5885  1.0000
  H   H19       1.0  0.1638  0.312  0.42434  1.0000
  H   H20       1.0  0.8128000000000001  0.25518  0.5885  1.0000
  H   H21       1.0  0.8617000000000001  0.07205  0.6074  1.0000
  H   H22       1.0  0.15983  0.07995  0.39463  1.0000
  H   H23       1.0  0.3617  0.57205  0.6074  1.0000
  H   H24       1.0  0.6598300000000001  0.57995  0.39463  1.0000
  H   H25       1.0  0.66566  0.80833  0.55617  1.0000
  H   H26       1.0  0.2943  0.70846  0.45772  1.0000
  H   H27       1.0  0.16566  0.30833  0.55617  1.0000
  H   H28       1.0  0.79431  0.20846000000000003  0.45772  1.0000
  H   H29       1.0  0.95874  0.12071  0.54041  1.0000
  H   H30       1.0  0.08292  0.1984  0.46446  1.0000
  H   H31       1.0  0.45874  0.62071  0.54041  1.0000
  H   H32       1.0  0.58292  0.6984  0.46446  1.0000
  H   H33       1.0  0.97967  0.02972  0.42139  1.0000
  H   H34       1.0  0.056850000000000005  0.14141  0.58844  1.0000
  H   H35       1.0  0.47967  0.52972  0.42139  1.0000
  H   H36       1.0  0.55685  0.64141  0.58844  1.0000
  H   H37       1.0  0.8899900000000001  0.9073000000000001  0.36465  1.0000
  H   H38       1.0  0.10287  0.95353  0.63877  1.0000
  H   H39       1.0  0.38999000000000006  0.4073  0.36465  1.0000
  H   H40       1.0  0.60288  0.45352999999999993  0.63877  1.0000
  H   H41       1.0  0.54792  0.29889  0.93049  1.0000
  H   H42       1.0  0.4673300000000001  0.36368  0.05603999999999999  1.0000
  H   H43       1.0  0.04791  0.79889  0.93049  1.0000
  H   H44       1.0  0.9673300000000001  0.86368  0.05603999999999999  1.0000
  H   H45       1.0  0.42063000000000006  0.04275  0.08685  1.0000
  H   H46       1.0  0.50204  0.9649800000000001  0.9541200000000001  1.0000
  H   H47       1.0  0.9206300000000001  0.54275  0.08685  1.0000
  H   H48       1.0  0.002040000000000003  0.46498  0.9541200000000001  1.0000
  H   H49       1.0  0.8566900000000001  0.9633599999999999  0.08175  1.0000
  H   H50       1.0  0.18346  0.11118  0.9437700000000001  1.0000
  H   H51       1.0  0.35668  0.46336  0.08175  1.0000
  H   H52       1.0  0.68346  0.61118  0.9437700000000001  1.0000
  H   H53       1.0  0.63593  0.89038  0.8614000000000002  1.0000
  H   H54       1.0  0.36894000000000005  0.86278  0.15287  1.0000
  H   H55       1.0  0.13593000000000002  0.39037999999999995  0.8614000000000002  1.0000
  H   H56       1.0  0.86894  0.36277999999999994  0.15287  1.0000
  H   H57       1.0  0.05034999999999999  0.26441  0.90694  1.0000
  H   H58       1.0  0.9567900000000001  0.24813999999999997  0.09825  1.0000
  H   H59       1.0  0.55035  0.76441  0.90694  1.0000
  H   H60       1.0  0.45679  0.7481400000000001  0.09825  1.0000
  H   H61       1.0  0.04859  0.22242  0.03898  1.0000
  H   H62       1.0  0.96216  0.24921  0.96447  1.0000
  H   H63       1.0  0.54859  0.72242  0.03898  1.0000
  H   H64       1.0  0.46216  0.7492100000000002  0.96447  1.0000
  H   H65       1.0  0.63851  0.7891599999999999  0.11920000000000001  1.0000
  H   H66       1.0  0.3922800000000001  0.86825  0.8933200000000001  1.0000
  H   H67       1.0  0.13851  0.28916  0.11920000000000001  1.0000
  H   H68       1.0  0.89228  0.36824999999999997  0.8933200000000001  1.0000
  O   O1        1.0  0.78819  0.043  0.17252  1.0000
  O   O2        1.0  0.21181  0.04299999999999999  0.82748  1.0000
  O   O3        1.0  0.28819  0.543  0.17252  1.0000
  O   O4        1.0  0.71181  0.543  0.82748  1.0000
  O   O5        1.0  0.55655  0.25326  0.32348  1.0000
  O   O6        1.0  0.44345000000000007  0.25326  0.67652  1.0000
  O   O7        1.0  0.056549999999999996  0.75326  0.32348  1.0000
  O   O8        1.0  0.94345  0.75326  0.67652  1.0000
  O   O9        1.0  0.54583  0.05161  0.33016  1.0000
  O   O10       1.0  0.4541700000000001  0.05161  0.66984  1.0000
  O   O11       1.0  0.045829999999999996  0.55161  0.33016  1.0000
  O   O12       1.0  0.9541700000000001  0.55161  0.66984  1.0000
  O   O13       1.0  0.68192  0.95972  0.32707  1.0000
  O   O14       1.0  0.31808  0.95972  0.67293  1.0000
  O   O15       1.0  0.18191999999999997  0.45972  0.32707  1.0000
  O   O16       1.0  0.8180799999999999  0.45972  0.67293  1.0000
  O   O17       1.0  0.66819  0.16819  0.25082  1.0000
  O   O18       1.0  0.33181  0.16819  0.74918  1.0000
  O   O19       1.0  0.16819  0.66819  0.25082  1.0000
  O   O20       1.0  0.8318100000000002  0.66819  0.74918  1.0000
  O   O21       1.0  0.76624  0.2923  0.17686  1.0000
  O   O22       1.0  0.23376000000000002  0.2923  0.82314  1.0000
  O   O23       1.0  0.26624  0.7923  0.17686  1.0000
  O   O24       1.0  0.73376  0.7923  0.82314  1.0000
  O   O25       1.0  0.67031  0.40916  0.16872  1.0000
  O   O26       1.0  0.32969  0.40916  0.83128  1.0000
  O   O27       1.0  0.17031  0.90916  0.16872  1.0000
  O   O28       1.0  0.82969  0.90916  0.83128  1.0000
  O   O29       1.0  0.5561600000000001  0.2519  0.17338  1.0000
  O   O30       1.0  0.44384  0.2519  0.82662  1.0000
  O   O31       1.0  0.05616000000000001  0.7519  0.17338  1.0000
  O   O32       1.0  0.9438400000000001  0.7519  0.82662  1.0000
  O   O33       1.0  0.54541  0.05014  0.16824  1.0000
  O   O34       1.0  0.45459  0.05014  0.83176  1.0000
  O   O35       1.0  0.045410000000000006  0.55014  0.16824  1.0000
  O   O36       1.0  0.9545900000000002  0.55014  0.83176  1.0000
  O   O37       1.0  0.68153  0.95835  0.17697  1.0000
  O   O38       1.0  0.31847  0.95835  0.82303  1.0000
  O   O39       1.0  0.18153  0.45835  0.17697  1.0000
  O   O40       1.0  0.8184700000000001  0.45835  0.82303  1.0000
  O   O41       1.0  0.78861  0.04448000000000001  0.33445  1.0000
  O   O42       1.0  0.21139000000000002  0.04448  0.66555  1.0000
  O   O43       1.0  0.28861  0.54448  0.33445  1.0000
  O   O44       1.0  0.7113900000000001  0.54448  0.66555  1.0000
  O   O45       1.0  0.7666300000000001  0.29367  0.32697  1.0000
  O   O46       1.0  0.23337  0.29367  0.67303  1.0000
  O   O47       1.0  0.26663  0.7936700000000001  0.32697  1.0000
  O   O48       1.0  0.73337  0.7936700000000001  0.67303  1.0000
  O   O49       1.0  0.67073  0.41064  0.33064  1.0000
  O   O50       1.0  0.32927  0.41064  0.66936  1.0000
  O   O51       1.0  0.17073000000000002  0.91064  0.33064  1.0000
  O   O52       1.0  0.8292700000000001  0.91064  0.66936  1.0000
  S   S1        1.0  0.8931400000000002  0.017770000000000005  0.9444799999999999  1.0000
  O   O53       1.0  0.93402  0.0605  0.00839  1.0000
  O   O54       1.0  0.93939  0.93568  0.90422  1.0000
  O   O55       1.0  0.8691700000000001  0.13162  0.889  1.0000
  H   H69       1.0  0.8206900000000003  0.15075  0.8997000000000002  1.0000
  S   S2        1.0  0.11177000000000001  0.98551  0.04346  1.0000
  O   O56       1.0  0.07328  0.020879999999999996  0.9753300000000001  1.0000
  O   O57       1.0  0.10672000000000001  0.8528899999999999  0.05387  1.0000
  O   O58       1.0  0.07847  0.05703  0.11429  1.0000
  H   H70       1.0  0.03392  0.01824  0.12182  1.0000
  S   S3        1.0  0.39314  0.51777  0.9444799999999999  1.0000
  O   O59       1.0  0.4340200000000001  0.5605  0.00839  1.0000
  O   O60       1.0  0.43939  0.43568000000000007  0.90422  1.0000
  O   O61       1.0  0.36917  0.63162  0.889  1.0000
  H   H71       1.0  0.32069  0.65075  0.8997000000000002  1.0000
  S   S4        1.0  0.61177  0.48551000000000005  0.04346  1.0000
  O   O62       1.0  0.57327  0.52088  0.9753300000000001  1.0000
  O   O63       1.0  0.60672  0.35289  0.05387  1.0000
  O   O64       1.0  0.57847  0.55703  0.11429  1.0000
  H   H72       1.0  0.53392  0.51824  0.12182  1.0000
