data_image0
_chemical_formula_structural       O3CO2CO2VOCOCVOC14H5C16H8C16H9C14H7O3CO2CO2VOCOCVONHCH3OCH2CH3NHCH3
_chemical_formula_sum              "O21 C72 V4 H42 N2"
_cell_length_a       6.95038
_cell_length_b       17.572
_cell_length_c       19.36109
_cell_angle_alpha    108.49789000000001
_cell_angle_beta     89.22167000000002
_cell_angle_gamma    90.56523000000001

_symmetry_space_group_name_H-M    'P 1'
_symmetry_Int_Tables_number       1

loop_
  _symmetry_equiv_pos_as_xyz
  'x,y,z'

loop_
  _atom_site_type_symbol
  _atom_site_label
  _atom_site_symmetry_multiplicity
  _atom_site_fract_x
  _atom_site_fract_y
  _atom_site_fract_z
  _atom_site_occupancy
  O   O1        1.0  0.49433  0.41572  0.41372  1.0000
  O   O2        1.0  0.8193299999999999  0.43007  0.56021  1.0000
  O   O3        1.0  0.99432  0.58428  0.58628  1.0000
  C   C1        1.0  0.64928  0.41528999999999994  0.58187  1.0000
  O   O4        1.0  0.82373  0.4063  0.41267  1.0000
  O   O5        1.0  0.99876  0.56034  0.43769  1.0000
  C   C2        1.0  0.65538  0.38349  0.38506  1.0000
  O   O6        1.0  0.48989  0.43966  0.56231  1.0000
  O   O7        1.0  0.6623399999999999  0.55056  0.50838  1.0000
  V   V1        1.0  0.93537  0.49062  0.49845  1.0000
  O   O8        1.0  0.32875  0.56993  0.43979  1.0000
  C   C3        1.0  0.16090999999999997  0.58528  0.41843  1.0000
  O   O9        1.0  0.32434  0.5937  0.58733  1.0000
  C   C4        1.0  0.15542  0.61405  0.61662  1.0000
  V   V2        1.0  0.4359399999999999  0.50938  0.50155  1.0000
  O   O10       1.0  0.15909999999999996  0.44944  0.49162  1.0000
  C   C5        1.0  0.24881999999999996  0.59723  0.76079  1.0000
  C   C6        1.0  0.30573  0.59267  0.82858  1.0000
  C   C7        1.0  0.2909400000000001  0.6584400000000001  0.8907000000000002  1.0000
  C   C8        1.0  0.22559999999999994  0.73091  0.88613  1.0000
  C   C9        1.0  0.1804  0.7405  0.8182  1.0000
  C   C10       1.0  0.19238999999999998  0.67271  0.75366  1.0000
  C   C11       1.0  0.12792  0.8171099999999998  0.81463  1.0000
  C   C12       1.0  0.10092999999999995  0.8283899999999998  0.74547  1.0000
  C   C13       1.0  0.09546999999999999  0.7595699999999999  0.68193  1.0000
  C   C14       1.0  0.14483  0.6825  0.68545  1.0000
  C   C15       1.0  0.08488999999999998  0.90634  0.7369  1.0000
  C   C16       1.0  0.03194999999999999  0.9123899999999999  0.66875  1.0000
  C   C17       1.0  0.007960000000000007  0.8444100000000001  0.60828  1.0000
  C   C18       1.0  0.04677999999999999  0.7693  0.61451  1.0000
  H   H1        1.0  0.35658000000000006  0.53639  0.83313  1.0000
  H   H2        1.0  0.32973999999999987  0.6531899999999999  0.9429699999999999  1.0000
  H   H3        1.0  0.21547  0.7797499999999998  0.9367799999999998  1.0000
  H   H4        1.0  0.018949999999999998  0.9701999999999998  0.66073  1.0000
  H   H5        1.0  0.038019999999999984  0.7185399999999998  0.56532  1.0000
  C   C19       1.0  0.99054  0.63075  0.32558  1.0000
  C   C20       1.0  0.15272  0.6350599999999998  0.36949  1.0000
  C   C21       1.0  0.3059  0.68683  0.36618  1.0000
  C   C22       1.0  0.2973899999999999  0.73414  0.31992  1.0000
  C   C23       1.0  0.13525  0.72858  0.27537  1.0000
  C   C24       1.0  0.98156  0.67654  0.27816  1.0000
  C   C25       1.0  0.44819  0.78691  0.31732  1.0000
  C   C26       1.0  0.4401299999999999  0.8327799999999999  0.2701  1.0000
  C   C27       1.0  0.28092  0.8267899999999999  0.22478  1.0000
  C   C28       1.0  0.12698  0.77494  0.22777999999999998  1.0000
  C   C29       1.0  0.9649999999999999  0.76921  0.18312  1.0000
  C   C30       1.0  0.8137299999999997  0.71679  0.18602  1.0000
  C   C31       1.0  0.8218599999999999  0.67087  0.23316  1.0000
  C   C32       1.0  0.27293  0.8717499999999999  0.17658  1.0000
  C   C33       1.0  0.11148  0.86672  0.1321  1.0000
  C   C34       1.0  0.9574300000000001  0.8157  0.13617  1.0000
  H   H6        1.0  0.8722  0.59072  0.3274  1.0000
  H   H7        1.0  0.43081  0.69096  0.40016  1.0000
  H   H8        1.0  0.57328  0.79224  0.35139  1.0000
  H   H9        1.0  0.55924  0.87255  0.26865  1.0000
  H   H10       1.0  0.3916  0.9114800000000001  0.17439  1.0000
  H   H11       1.0  0.83271  0.81129  0.10205  1.0000
  H   H12       1.0  0.68856  0.7115  0.15201  1.0000
  H   H13       1.0  0.70276  0.6311  0.23459999999999998  1.0000
  C   C35       1.0  0.65539  0.21754  0.8967  1.0000
  C   C36       1.0  0.62368  0.13431000000000007  0.86922  1.0000
  C   C37       1.0  0.58997  0.09814999999999999  0.79453  1.0000
  C   C38       1.0  0.5927899999999998  0.14402  0.74681  1.0000
  C   C39       1.0  0.62428  0.22765  0.77456  1.0000
  C   C40       1.0  0.65393  0.26467  0.8499  1.0000
  C   C41       1.0  0.56454  0.10778  0.67182  1.0000
  C   C42       1.0  0.57018  0.15368999999999997  0.62443  1.0000
  C   C43       1.0  0.6009699999999999  0.23697000000000001  0.65133  1.0000
  C   C44       1.0  0.6258799999999999  0.27432  0.72691  1.0000
  C   C45       1.0  0.6523  0.35827  0.7549  1.0000
  C   C46       1.0  0.6786299999999997  0.3946  0.83001  1.0000
  C   C47       1.0  0.68068  0.34819000000000006  0.8770000000000001  1.0000
  C   C48       1.0  0.6081099999999999  0.2835  0.60408  1.0000
  C   C49       1.0  0.63647  0.36690999999999996  0.63167  1.0000
  C   C50       1.0  0.65334  0.4042  0.7072  1.0000
  H   H14       1.0  0.67869  0.24556999999999998  0.9544999999999999  1.0000
  H   H15       1.0  0.56581  0.03391  0.7734  1.0000
  H   H16       1.0  0.53843  0.04378000000000001  0.64981  1.0000
  H   H17       1.0  0.54982  0.12405000000000001  0.5667  1.0000
  H   H18       1.0  0.59172  0.25502  0.54597  1.0000
  H   H19       1.0  0.6695999999999998  0.46883  0.72864  1.0000
  H   H20       1.0  0.69938  0.45894  0.85237  1.0000
  H   H21       1.0  0.7026399999999998  0.3777  0.93466  1.0000
  H   H22       1.0  0.8148699999999998  0.13165  0.42961  1.0000
  C   C51       1.0  0.55319  0.40764  0.24923  1.0000
  C   C52       1.0  0.50208  0.42125  0.18483  1.0000
  C   C53       1.0  0.48865999999999987  0.35745  0.1205  1.0000
  C   C54       1.0  0.52623  0.27956  0.12011  1.0000
  C   C55       1.0  0.5777600000000003  0.26376  0.18469  1.0000
  C   C56       1.0  0.59129  0.32911999999999997  0.25065  1.0000
  C   C57       1.0  0.6190299999999999  0.18466  0.18406  1.0000
  C   C58       1.0  0.6733  0.17089  0.24947  1.0000
  C   C59       1.0  0.68687  0.23624999999999996  0.31543  1.0000
  C   C60       1.0  0.6456  0.31535  0.31605  1.0000
  C   C61       1.0  0.71135  0.09236  0.25089  1.0000
  C   C62       1.0  0.7624699999999999  0.07875  0.31531  1.0000
  C   C63       1.0  0.77598  0.14256  0.37962  1.0000
  C   C64       1.0  0.7384699999999997  0.22046  0.38001  1.0000
  H   H23       1.0  0.56395  0.45946  0.29758  1.0000
  H   H24       1.0  0.4736499999999999  0.48172  0.1848  1.0000
  H   H25       1.0  0.44981000000000004  0.36836  0.07051  1.0000
  H   H26       1.0  0.51537  0.23211999999999997  0.06857  1.0000
  H   H27       1.0  0.7005599999999997  0.04054  0.20255  1.0000
  H   H28       1.0  0.79087  0.018280000000000005  0.31534  1.0000
  H   H29       1.0  0.74946  0.26791  0.43153  1.0000
  O   O11       1.0  0.7752  0.060470000000000065  0.9378000000000001  1.0000
  O   O12       1.0  0.44111  0.09372  0.08735  1.0000
  O   O13       1.0  0.26633  0.93963  0.06228000000000001  1.0000
  C   C65       1.0  0.60939  0.11654  0.11504  1.0000
  O   O14       1.0  0.44575  0.06995000000000001  0.93982  1.0000
  O   O15       1.0  0.271  0.9157  0.9137  1.0000
  C   C66       1.0  0.6151599999999999  0.08535000000000001  0.91864  1.0000
  O   O16       1.0  0.77053  0.0844  0.08638  1.0000
  O   O17       1.0  0.6028300000000001  0.94951  0.99168  1.0000
  V   V3        1.0  0.32970999999999995  0.00937  0.00155  1.0000
  O   O18       1.0  0.9409899999999998  0.9061699999999999  0.91257  1.0000
  C   C67       1.0  0.11083999999999997  0.88515  0.8837599999999999  1.0000
  O   O19       1.0  0.93635  0.92994  0.0601  1.0000
  C   C68       1.0  0.10404  0.9152699999999999  0.08205  1.0000
  V   V4        1.0  0.8291599999999998  0.9904499999999999  0.9983099999999999  1.0000
  O   O20       1.0  0.10591  0.05048  0.00832  1.0000
  N   N1        1.0  0.9625899999999997  0.85188  0.53907  1.0000
  H   H30       1.0  0.9842499999999998  0.80066  0.49532  1.0000
  C   C69       1.0  0.7808799999999998  0.8899499999999999  0.53563  1.0000
  H   H31       1.0  0.7592399999999999  0.89192  0.4794800000000001  1.0000
  H   H32       1.0  0.7798299999999999  0.95254  0.57309  1.0000
  H   H33       1.0  0.66036  0.85541  0.54985  1.0000
  O   O21       1.0  0.25739  0.52746  0.70212  1.0000
  C   C70       1.0  0.09986  0.47746999999999995  0.70654  1.0000
  H   H34       1.0  0.97163  0.49723  0.68362  1.0000
  H   H35       1.0  0.0638  0.47864000000000007  0.76321  1.0000
  C   C71       1.0  0.14485  0.39075  0.66308  1.0000
  H   H36       1.0  0.26671  0.3694700000000001  0.68807  1.0000
  H   H37       1.0  0.02014  0.35142  0.66399  1.0000
  H   H38       1.0  0.17972999999999995  0.3851  0.60567  1.0000
  N   N2        1.0  0.1473  0.97647  0.79351  1.0000
  H   H39       1.0  0.28588  0.97173  0.80982  1.0000
  C   C72       1.0  0.10575  0.055720000000000006  0.7901  1.0000
  H   H40       1.0  0.13900000000000004  0.1012  0.84327  1.0000
  H   H41       1.0  0.9519699999999998  0.06037  0.7788  1.0000
  H   H42       1.0  0.19504  0.06868999999999996  0.74715  1.0000
