data_image0
_chemical_formula_structural       O2CO2CO2CO2CO2CO2CCr3OCH2CH4C3H2C3H5C10H6C10H6C10H5C10H6C10H4O2CO2CO2CO2CO2CO2CCr3OCHOCHO
_chemical_formula_sum              "O28 C72 Cr6 H42"
_cell_length_a       10.99702
_cell_length_b       10.87468
_cell_length_c       18.82578
_cell_angle_alpha    90.12411000000002
_cell_angle_beta     89.72858
_cell_angle_gamma    60.62761

_symmetry_space_group_name_H-M    'P 1'
_symmetry_Int_Tables_number       1

loop_
  _symmetry_equiv_pos_as_xyz
  'x,y,z'

loop_
  _atom_site_type_symbol
  _atom_site_label
  _atom_site_symmetry_multiplicity
  _atom_site_fract_x
  _atom_site_fract_y
  _atom_site_fract_z
  _atom_site_occupancy
  O   O1        1.0  0.5073399999999999  0.25569  0.58143  1.0000
  O   O2        1.0  0.2803599999999999  0.52738  0.57891  1.0000
  C   C1        1.0  0.24034000000000003  0.64378  0.61122  1.0000
  O   O3        1.0  0.2606  0.73961  0.58458  1.0000
  O   O4        1.0  0.5323699999999999  0.69505  0.5738300000000001  1.0000
  C   C2        1.0  0.65351  0.62271  0.6007800000000001  1.0000
  O   O5        1.0  0.7448499999999998  0.50343  0.57638  1.0000
  O   O6        1.0  0.69908  0.2765  0.57195  1.0000
  C   C3        1.0  0.6277  0.22829  0.60293  1.0000
  O   O7        1.0  0.49885999999999997  0.25652  0.4198600000000001  1.0000
  O   O8        1.0  0.27249  0.52815  0.42914000000000013  1.0000
  C   C4        1.0  0.28521999999999986  0.6245  0.39204  1.0000
  O   O9        1.0  0.25211  0.74044  0.42301  1.0000
  O   O10       1.0  0.5245099999999998  0.69582  0.42405  1.0000
  C   C5        1.0  0.64571  0.62089  0.3922000000000001  1.0000
  O   O11       1.0  0.73637  0.50426  0.41481000000000007  1.0000
  O   O12       1.0  0.6912199999999997  0.27727  0.42218  1.0000
  C   C6        1.0  0.61362  0.22861  0.39513000000000004  1.0000
  Cr  Cr1       1.0  0.39294  0.39795  0.50223  1.0000
  Cr  Cr2       1.0  0.39839999999999987  0.7085  0.50126  1.0000
  Cr  Cr3       1.0  0.7086399999999998  0.39353  0.4964600000000001  1.0000
  O   O13       1.0  0.49998999999999966  0.49999  0.49998000000000004  1.0000
  C   C7        1.0  0.5815899999999999  0.81653  0.78071  1.0000
  H   H1        1.0  0.60472  0.9040599999999999  0.7901400000000002  1.0000
  H   H2        1.0  0.4807599999999999  0.84522  0.8077100000000003  1.0000
  C   C8        1.0  0.56699  0.8021  0.7002300000000002  1.0000
  H   H3        1.0  0.45765000000000006  0.8304199999999999  0.6884900000000002  1.0000
  H   H4        1.0  0.5894499999999998  0.87765  0.67097  1.0000
  H   H5        1.0  0.8656299999999999  0.72197  0.7774400000000002  1.0000
  H   H6        1.0  0.84293  0.69187  0.65879  1.0000
  C   C9        1.0  0.8367199999999998  0.63797  0.76984  1.0000
  C   C10       1.0  0.6620999999999999  0.55857  0.80039  1.0000
  C   C11       1.0  0.70046  0.67555  0.81161  1.0000
  H   H7        1.0  0.74645  0.45621  0.8208200000000002  1.0000
  H   H8        1.0  0.56466  0.58421  0.8301000000000002  1.0000
  C   C12       1.0  0.66975  0.64894  0.6760700000000001  1.0000
  C   C13       1.0  0.81959  0.61942  0.69036  1.0000
  C   C14       1.0  0.64124  0.54472  0.72074  1.0000
  H   H9        1.0  0.53297  0.56522  0.7116100000000002  1.0000
  H   H10       1.0  0.7130099999999999  0.43402  0.70391  1.0000
  H   H11       1.0  0.92357  0.53808  0.79028  1.0000
  H   H12       1.0  0.89548  0.50952  0.6742400000000002  1.0000
  H   H13       1.0  0.44692999999999994  0.24297  0.69961  1.0000
  C   C15       1.0  0.69014  0.16374  0.8250200000000002  1.0000
  C   C16       1.0  0.80619  0.14192  0.78219  1.0000
  C   C17       1.0  0.7941999999999998  0.14157  0.70687  1.0000
  C   C18       1.0  0.54906  0.21128  0.7206800000000002  1.0000
  C   C19       1.0  0.5616  0.20719  0.79288  1.0000
  C   C20       1.0  0.93276  0.12188  0.8112500000000002  1.0000
  C   C21       1.0  0.04646000000000001  0.09208  0.7674800000000003  1.0000
  C   C22       1.0  0.03737  0.08128  0.69442  1.0000
  C   C23       1.0  0.91356  0.10309  0.66428  1.0000
  C   C24       1.0  0.66273  0.18053  0.6764600000000001  1.0000
  H   H14       1.0  0.94476  0.13451  0.8671400000000001  1.0000
  H   H15       1.0  0.47084999999999994  0.22792  0.82393  1.0000
  H   H16       1.0  0.14388  0.07273  0.79047  1.0000
  H   H17       1.0  0.12723  0.054509999999999996  0.6608600000000002  1.0000
  H   H18       1.0  0.91362  0.08713  0.60761  1.0000
  H   H19       1.0  0.25785  0.81957  0.7030000000000002  1.0000
  C   C25       1.0  0.19516000000000003  0.65615  0.8378100000000003  1.0000
  C   C26       1.0  0.19775  0.54197  0.80007  1.0000
  C   C27       1.0  0.19109  0.54622  0.72466  1.0000
  C   C28       1.0  0.23215999999999995  0.74643  0.72828  1.0000
  C   C29       1.0  0.22436999999999999  0.74993  0.8015200000000002  1.0000
  C   C30       1.0  0.20615999999999998  0.42411999999999994  0.8357300000000002  1.0000
  C   C31       1.0  0.19509  0.31945  0.79879  1.0000
  C   C32       1.0  0.17226  0.33159  0.72599  1.0000
  C   C33       1.0  0.16841999999999996  0.44447  0.6892  1.0000
  C   C34       1.0  0.20873999999999998  0.65106  0.68815  1.0000
  H   H20       1.0  0.22790000000000002  0.40834999999999994  0.89196  1.0000
  H   H21       1.0  0.23394  0.83152  0.82976  1.0000
  H   H22       1.0  0.20407999999999998  0.22951  0.82735  1.0000
  H   H23       1.0  0.15963999999999998  0.25254  0.69742  1.0000
  H   H24       1.0  0.14419000000000004  0.45128  0.6334400000000002  1.0000
  H   H25       1.0  0.5763499999999998  0.8683200000000001  0.32425  1.0000
  C   C35       1.0  0.6639  0.67598  0.17106  1.0000
  C   C36       1.0  0.71986  0.53947  0.19922  1.0000
  C   C37       1.0  0.7506999999999999  0.52155  0.2719100000000001  1.0000
  C   C38       1.0  0.62041  0.77619  0.29005  1.0000
  C   C39       1.0  0.6254999999999997  0.79185  0.21701  1.0000
  C   C40       1.0  0.76678  0.4195900000000001  0.15466000000000002  1.0000
  C   C41       1.0  0.8725499999999999  0.28951  0.17694  1.0000
  C   C42       1.0  0.92258  0.27444  0.24563000000000004  1.0000
  C   C43       1.0  0.8614699999999997  0.38753  0.29318  1.0000
  C   C44       1.0  0.67589  0.64143  0.31827  1.0000
  H   H26       1.0  0.7317800000000002  0.42894999999999994  0.10025000000000002  1.0000
  H   H27       1.0  0.5942300000000001  0.8959  0.19616  1.0000
  H   H28       1.0  0.91837  0.20128  0.14029  1.0000
  H   H29       1.0  0.008550000000000002  0.17437  0.26224  1.0000
  H   H30       1.0  0.91275  0.36922  0.34378  1.0000
  C   C45       1.0  0.65567  0.1518  0.17737  1.0000
  C   C46       1.0  0.5215799999999999  0.21548  0.20778  1.0000
  C   C47       1.0  0.5111100000000001  0.20212999999999998  0.28119  1.0000
  C   C48       1.0  0.7630599999999998  0.09485  0.29413000000000006  1.0000
  C   C49       1.0  0.7743  0.08404  0.2209  1.0000
  C   C50       1.0  0.3991299999999999  0.27609  0.16615000000000002  1.0000
  C   C51       1.0  0.2746799999999999  0.29235  0.19368  1.0000
  C   C52       1.0  0.26736  0.26102  0.2644  1.0000
  C   C53       1.0  0.38373999999999997  0.21544000000000002  0.30770000000000003  1.0000
  C   C54       1.0  0.6314  0.16826  0.32407000000000014  1.0000
  H   H31       1.0  0.40041  0.30446  0.1112  1.0000
  H   H32       1.0  0.87705  0.01898  0.19790000000000002  1.0000
  H   H33       1.0  0.18386000000000005  0.32919  0.16011  1.0000
  H   H34       1.0  0.17185  0.27043  0.28584  1.0000
  H   H35       1.0  0.37362  0.18119  0.36007  1.0000
  H   H36       1.0  0.12470999999999999  0.5351  0.33246  1.0000
  C   C55       1.0  0.17246999999999998  0.65461  0.17640000000000003  1.0000
  C   C56       1.0  0.263  0.70446  0.19672000000000006  1.0000
  C   C57       1.0  0.27057999999999993  0.73235  0.26936  1.0000
  C   C58       1.0  0.16126  0.58654  0.29568  1.0000
  C   C59       1.0  0.11868999999999998  0.59981  0.22628  1.0000
  C   C60       1.0  0.32094  0.75313  0.14443  1.0000
  C   C61       1.0  0.3405299999999999  0.8660000000000001  0.15916  1.0000
  C   C62       1.0  0.3222700000000001  0.9167499999999998  0.22786000000000003  1.0000
  C   C63       1.0  0.29528  0.84935  0.28427  1.0000
  C   C64       1.0  0.23935  0.64919  0.31855  1.0000
  H   H37       1.0  0.33104999999999996  0.71811  0.08968000000000002  1.0000
  H   H38       1.0  0.04220999999999995  0.56878  0.21180000000000004  1.0000
  H   H39       1.0  0.36796  0.91592  0.11718000000000002  1.0000
  H   H40       1.0  0.3367299999999999  0.00621  0.23742  1.0000
  O   O14       1.0  0.08957000000000004  0.82545  0.93059  1.0000
  O   O15       1.0  0.8186999999999999  0.05426  0.92986  1.0000
  C   C65       1.0  0.70309  0.10356  0.8964300000000002  1.0000
  O   O16       1.0  0.60631  0.07700999999999998  0.91552  1.0000
  O   O17       1.0  0.64673  0.80654  0.91756  1.0000
  C   C66       1.0  0.72513  0.68878  0.8877000000000002  1.0000
  O   O18       1.0  0.83729  0.59324  0.91524  1.0000
  O   O19       1.0  0.06531999999999995  0.63531  0.93158  1.0000
  C   C67       1.0  0.12252000000000002  0.70293  0.90688  1.0000
  O   O20       1.0  0.06847  0.82862  0.09185  1.0000
  O   O21       1.0  0.79915  0.057199999999999994  0.07935  1.0000
  C   C68       1.0  0.6758899999999998  0.10671999999999998  0.10394000000000003  1.0000
  O   O22       1.0  0.58522  0.08018  0.07677  1.0000
  O   O23       1.0  0.62717  0.80948  0.06705  1.0000
  C   C69       1.0  0.6972799999999999  0.69096  0.09796  1.0000
  O   O24       1.0  0.8161999999999999  0.59641  0.0765  1.0000
  O   O25       1.0  0.04577  0.63824  0.08107  1.0000
  C   C70       1.0  0.09645999999999998  0.70648  0.11112000000000001  1.0000
  Cr  Cr4       1.0  0.9378799999999995  0.93832  0.00762  1.0000
  Cr  Cr5       1.0  0.62556  0.93722  0.9945100000000001  1.0000
  Cr  Cr6       1.0  0.9380799999999999  0.62501  0.00119  1.0000
  O   O26       1.0  0.8338399999999998  0.83352  0.00111  1.0000
  C   C71       1.0  0.8856599999999999  0.0115  0.33896  1.0000
  H   H41       1.0  0.88348  0.029949999999999997  0.39568  1.0000
  O   O27       1.0  0.9896799999999999  0.9139899999999999  0.3130400000000001  1.0000
  C   C72       1.0  0.2721299999999999  0.9282  0.35156000000000004  1.0000
  H   H42       1.0  0.35733  0.93581  0.3757200000000001  1.0000
  O   O28       1.0  0.15525999999999998  0.99863  0.37651  1.0000
