data_image0
_chemical_formula_structural       C56Cr6H24O26H4NHCH3NHCH3NHCH3NHCH3
_chemical_formula_sum              "C60 Cr6 H44 O26 N4"
_cell_length_a       11.41418
_cell_length_b       18.65372
_cell_length_c       10.03337
_cell_angle_alpha    90.00003000000001
_cell_angle_beta     108.93525
_cell_angle_gamma    89.99910999999999

_symmetry_space_group_name_H-M    'P 1'
_symmetry_Int_Tables_number       1

loop_
  _symmetry_equiv_pos_as_xyz
  'x,y,z'

loop_
  _atom_site_type_symbol
  _atom_site_label
  _atom_site_symmetry_multiplicity
  _atom_site_fract_x
  _atom_site_fract_y
  _atom_site_fract_z
  _atom_site_occupancy
  C   C1        1.0  0.07145  0.64678  0.14098  1.0000
  C   C2        1.0  0.92856  0.35321  0.8590299999999998  1.0000
  C   C3        1.0  0.92854  0.14678  0.85902  1.0000
  C   C4        1.0  0.07144  0.85321  0.14097  1.0000
  C   C5        1.0  0.4296000000000001  0.4720099999999999  0.5819  1.0000
  C   C6        1.0  0.57041  0.5279899999999998  0.4182  1.0000
  C   C7        1.0  0.57037  0.9720099999999999  0.41808  1.0000
  C   C8        1.0  0.4295800000000001  0.02799  0.5818  1.0000
  C   C9        1.0  0.42193000000000014  0.91881  0.9156800000000002  1.0000
  C   C10       1.0  0.57806  0.08118  0.0843  1.0000
  C   C11       1.0  0.57806  0.41881  0.08432  1.0000
  C   C12       1.0  0.42194  0.58119  0.9157  1.0000
  C   C13       1.0  0.45952  0.9717  0.00937  1.0000
  C   C14       1.0  0.54041  0.028319999999999998  0.99057  1.0000
  C   C15       1.0  0.54047  0.47169999999999995  0.9906200000000001  1.0000
  C   C16       1.0  0.45959  0.52832  0.00942  1.0000
  C   C17       1.0  0.015040000000000003  0.9243499999999999  0.12084000000000002  1.0000
  C   C18       1.0  0.9848700000000001  0.07563  0.87913  1.0000
  C   C19       1.0  0.9849400000000001  0.4243499999999999  0.87916  1.0000
  C   C20       1.0  0.0151  0.57563  0.12086  1.0000
  C   C21       1.0  0.9928900000000002  0.96015  0.99871  1.0000
  C   C22       1.0  0.007050000000000001  0.03982  0.00126  1.0000
  C   C23       1.0  0.00709  0.46016  0.00128  1.0000
  C   C24       1.0  0.9929300000000001  0.53983  0.99874  1.0000
  C   C25       1.0  0.43625  0.63731  0.37369  1.0000
  C   C26       1.0  0.56376  0.36267999999999995  0.62634  1.0000
  C   C27       1.0  0.56375  0.13730999999999996  0.62631  1.0000
  C   C28       1.0  0.43624  0.8626799999999998  0.37365  1.0000
  C   C29       1.0  0.3785300000000001  0.6461199999999998  0.9632199999999999  1.0000
  C   C30       1.0  0.62147  0.35388  0.03678  1.0000
  C   C31       1.0  0.62147  0.14612  0.03678  1.0000
  C   C32       1.0  0.3785300000000001  0.85388  0.9632199999999999  1.0000
  C   C33       1.0  0.54193  0.43884  0.58355  1.0000
  C   C34       1.0  0.45808  0.56116  0.41653  1.0000
  C   C35       1.0  0.4580500000000001  0.93884  0.41644  1.0000
  C   C36       1.0  0.54191  0.06115999999999999  0.58346  1.0000
  C   C37       1.0  0.35833  0.44942  0.6677  1.0000
  C   C38       1.0  0.6417  0.5505599999999999  0.33241  1.0000
  C   C39       1.0  0.6416400000000001  0.9494199999999999  0.33227  1.0000
  C   C40       1.0  0.3583000000000001  0.05056  0.6676  1.0000
  C   C41       1.0  0.23886  0.4749399999999999  0.64504  1.0000
  C   C42       1.0  0.7611900000000001  0.52504  0.35511  1.0000
  C   C43       1.0  0.7611200000000001  0.97495  0.35494  1.0000
  C   C44       1.0  0.23882000000000006  0.025029999999999997  0.64491  1.0000
  C   C45       1.0  0.18709000000000003  0.52171  0.53468  1.0000
  C   C46       1.0  0.81296  0.4783  0.46554  1.0000
  C   C47       1.0  0.81289  0.02171  0.46532000000000007  1.0000
  C   C48       1.0  0.18705000000000002  0.9782899999999999  0.53449  1.0000
  C   C49       1.0  0.25867  0.54585  0.45524  1.0000
  C   C50       1.0  0.7413500000000001  0.45419  0.54498  1.0000
  C   C51       1.0  0.74132  0.04583  0.54479  1.0000
  C   C52       1.0  0.25864  0.9541799999999999  0.45503  1.0000
  C   C53       1.0  0.38297  0.5276  0.48605  1.0000
  C   C54       1.0  0.61704  0.47239999999999993  0.51407  1.0000
  C   C55       1.0  0.61701  0.027599999999999996  0.51394  1.0000
  C   C56       1.0  0.38295000000000007  0.9723999999999999  0.4859299999999999  1.0000
  Cr  Cr1       1.0  0.18761  0.7499999999999998  0.97986  1.0000
  Cr  Cr2       1.0  0.8123900000000001  0.25  0.02014  1.0000
  Cr  Cr3       1.0  0.24581  0.7499999999999998  0.34164  1.0000
  Cr  Cr4       1.0  0.75419  0.25  0.65836  1.0000
  Cr  Cr5       1.0  0.4857600000000001  0.7499999999999998  0.21991000000000002  1.0000
  Cr  Cr6       1.0  0.51424  0.25  0.78009  1.0000
  H   H1        1.0  0.09151000000000002  0.53831  0.50866  1.0000
  H   H2        1.0  0.9085500000000002  0.46172  0.49162000000000006  1.0000
  H   H3        1.0  0.9084800000000001  0.0383  0.4913600000000001  1.0000
  H   H4        1.0  0.09146  0.9616999999999999  0.50843  1.0000
  H   H5        1.0  0.39284000000000013  0.41189  0.75296  1.0000
  H   H6        1.0  0.60721  0.58809  0.24713  1.0000
  H   H7        1.0  0.60714  0.91189  0.24701999999999996  1.0000
  H   H8        1.0  0.39279  0.08808999999999999  0.75287  1.0000
  H   H9        1.0  0.21684000000000003  0.5738299999999998  0.3618  1.0000
  H   H10       1.0  0.78316  0.42624  0.63851  1.0000
  H   H11       1.0  0.78315  0.07378  0.63832  1.0000
  H   H12       1.0  0.21683000000000005  0.92623  0.3615  1.0000
  H   H13       1.0  0.5658  0.02897  0.8950699999999999  1.0000
  H   H14       1.0  0.43409  0.9710599999999999  0.10483  1.0000
  H   H15       1.0  0.4342  0.52897  0.10491  1.0000
  H   H16       1.0  0.5659  0.47105  0.89515  1.0000
  H   H17       1.0  0.55915  0.08113  0.1836  1.0000
  H   H18       1.0  0.44097000000000003  0.91883  0.81646  1.0000
  H   H19       1.0  0.44088  0.58114  0.81642  1.0000
  H   H20       1.0  0.55903  0.41883  0.18354  1.0000
  H   H21       1.0  0.97625  0.04715999999999999  0.78283  1.0000
  H   H22       1.0  0.02362000000000001  0.9528199999999999  0.21713  1.0000
  H   H23       1.0  0.023700000000000002  0.54717  0.21717  1.0000
  H   H24       1.0  0.9763599999999999  0.45282  0.78286  1.0000
  O   O1        1.0  0.26771  0.6681999999999999  0.90211  1.0000
  O   O2        1.0  0.73229  0.33179999999999993  0.09789  1.0000
  O   O3        1.0  0.73229  0.16819999999999996  0.09789  1.0000
  O   O4        1.0  0.26771  0.8318  0.90211  1.0000
  O   O5        1.0  0.09948  0.67446  0.03885  1.0000
  O   O6        1.0  0.9005200000000002  0.32554  0.9611499999999998  1.0000
  O   O7        1.0  0.9005200000000002  0.17446  0.9611499999999998  1.0000
  O   O8        1.0  0.09948  0.82554  0.03885  1.0000
  O   O9        1.0  0.11672000000000003  0.66921  0.26766  1.0000
  O   O10       1.0  0.88328  0.33079  0.73234  1.0000
  O   O11       1.0  0.88328  0.16921  0.73234  1.0000
  O   O12       1.0  0.11672000000000003  0.83079  0.26766  1.0000
  O   O13       1.0  0.3667100000000001  0.67544  0.42759  1.0000
  O   O14       1.0  0.63329  0.32455999999999996  0.57241  1.0000
  O   O15       1.0  0.63329  0.17543999999999996  0.57241  1.0000
  O   O16       1.0  0.3667100000000001  0.82456  0.42759  1.0000
  O   O17       1.0  0.53487  0.66939  0.37176  1.0000
  O   O18       1.0  0.4651300000000001  0.33061  0.62824  1.0000
  O   O19       1.0  0.4651300000000001  0.16939  0.62824  1.0000
  O   O20       1.0  0.53487  0.8306099999999998  0.37176  1.0000
  O   O21       1.0  0.45308  0.67448  0.07516  1.0000
  O   O22       1.0  0.54692  0.32552  0.9248400000000001  1.0000
  O   O23       1.0  0.5469200000000001  0.17447999999999997  0.9248400000000001  1.0000
  O   O24       1.0  0.45308  0.8255199999999998  0.07516  1.0000
  O   O25       1.0  0.30639000000000005  0.7499999999999998  0.18047  1.0000
  O   O26       1.0  0.69361  0.25  0.81953  1.0000
  H   H25       1.0  0.18520000000000003  0.45609999999999995  0.70935  1.0000
  H   H26       1.0  0.81486  0.54386  0.29081  1.0000
  H   H27       1.0  0.81477  0.9561099999999999  0.29062  1.0000
  H   H28       1.0  0.18515  0.04385999999999999  0.70922  1.0000
  N   N1        1.0  0.05797000000000001  0.07712999999999999  0.13253  1.0000
  H   H29       1.0  0.11361  0.12053999999999998  0.13101  1.0000
  C   C57       1.0  0.9795300000000001  0.08742  0.21921  1.0000
  H   H30       1.0  0.96363  0.14548999999999998  0.23036  1.0000
  H   H31       1.0  0.027180000000000003  0.06618  0.32614  1.0000
  H   H32       1.0  0.8889200000000002  0.05982  0.17429  1.0000
  N   N2        1.0  0.94202  0.92285  0.8674499999999999  1.0000
  H   H33       1.0  0.8863900000000002  0.87943  0.86894  1.0000
  C   C58       1.0  0.02048000000000001  0.91259  0.78078  1.0000
  H   H34       1.0  0.03641  0.85453  0.76962  1.0000
  H   H35       1.0  0.11107  0.9402  0.82572  1.0000
  H   H36       1.0  0.9728300000000002  0.93383  0.67385  1.0000
  N   N3        1.0  0.94204  0.57714  0.8674699999999999  1.0000
  H   H37       1.0  0.8864100000000003  0.62056  0.86897  1.0000
  C   C59       1.0  0.020509999999999997  0.58741  0.7808  1.0000
  H   H38       1.0  0.03645  0.64548  0.76967  1.0000
  H   H39       1.0  0.9728300000000001  0.5661899999999999  0.67384  1.0000
  H   H40       1.0  0.11109  0.55978  0.82571  1.0000
  N   N4        1.0  0.05797000000000001  0.4228499999999999  0.13256  1.0000
  H   H41       1.0  0.11359  0.37943  0.13106  1.0000
  C   C60       1.0  0.9795000000000001  0.41259  0.21923  1.0000
  H   H42       1.0  0.96356  0.3545299999999999  0.23037  1.0000
  H   H43       1.0  0.8889200000000002  0.44021  0.1743  1.0000
  H   H44       1.0  0.02717000000000002  0.43383  0.32617  1.0000
