data_image0
_chemical_formula_structural       C18Cu2H10N2O12
_chemical_formula_sum              "C18 Cu2 H10 N2 O12"
_cell_length_a       10.73803
_cell_length_b       8.688549999999998
_cell_length_c       7.49186
_cell_angle_alpha    102.50789
_cell_angle_beta     93.64627
_cell_angle_gamma    92.10402

_symmetry_space_group_name_H-M    'P 1'
_symmetry_Int_Tables_number       1

loop_
  _symmetry_equiv_pos_as_xyz
  'x,y,z'

loop_
  _atom_site_type_symbol
  _atom_site_label
  _atom_site_symmetry_multiplicity
  _atom_site_fract_x
  _atom_site_fract_y
  _atom_site_fract_z
  _atom_site_occupancy
  C   C1        1.0  0.49653999999999987  0.20009  0.45378  1.0000
  C   C2        1.0  0.5096  0.7994900000000003  0.545  1.0000
  C   C3        1.0  0.73672  0.49662  0.4957500000000001  1.0000
  C   C4        1.0  0.12795  0.8058300000000002  0.6646300000000003  1.0000
  C   C5        1.0  0.06593  0.94588  0.66765  1.0000
  C   C6        1.0  0.9405599999999998  0.9405799999999999  0.60743  1.0000
  C   C7        1.0  0.8745  0.7958600000000001  0.55139  1.0000
  C   C8        1.0  0.9363399999999998  0.65364  0.53773  1.0000
  C   C9        1.0  0.23637999999999998  0.8177300000000002  0.79847  1.0000
  C   C10       1.0  0.40456  0.31550000000000006  0.9359100000000002  1.0000
  C   C11       1.0  0.06715999999999998  0.65817  0.5754000000000001  1.0000
  C   C12       1.0  0.12918  0.51504  0.5189700000000002  1.0000
  C   C13       1.0  0.06082  0.3714600000000002  0.4550100000000001  1.0000
  C   C14       1.0  0.9317999999999997  0.36643  0.44667  1.0000
  C   C15       1.0  0.87007  0.50638  0.48831000000000013  1.0000
  C   C16       1.0  0.4901  0.03209999999999998  0.42827  1.0000
  C   C17       1.0  0.52592  0.9663800000000001  0.56586  1.0000
  C   C18       1.0  0.26322  0.51065  0.50593  1.0000
  Cu  Cu1       1.0  0.51392  0.51738  0.68438  1.0000
  Cu  Cu2       1.0  0.48608  0.48262000000000005  0.31562  1.0000
  H   H1        1.0  0.1079  0.26243  0.41414  1.0000
  H   H2        1.0  0.23917  0.41443  0.9171700000000003  1.0000
  H   H3        1.0  0.58315  0.63652  0.05075000000000002  1.0000
  H   H4        1.0  0.31581  0.74304  0.013740000000000004  1.0000
  H   H5        1.0  0.11162  0.05960000000000004  0.7308100000000002  1.0000
  H   H6        1.0  0.8925  0.048979999999999996  0.6156300000000001  1.0000
  H   H7        1.0  0.77542  0.79598  0.51509  1.0000
  H   H8        1.0  0.87983  0.25356000000000006  0.4060100000000001  1.0000
  H   H9        1.0  0.45238999999999996  0.96215  0.29611  1.0000
  H   H10       1.0  0.56897  0.0351  0.69441  1.0000
  N   N1        1.0  0.4651  0.45643  0.03852000000000001  1.0000
  N   N2        1.0  0.5349  0.54357  0.96148  1.0000
  O   O1        1.0  0.50905  0.28613  0.61977  1.0000
  O   O2        1.0  0.24007999999999996  0.71843  0.92243  1.0000
  O   O3        1.0  0.45739  0.19276  0.92533  1.0000
  O   O4        1.0  0.2788  0.31018  0.87395  1.0000
  O   O5        1.0  0.48553999999999997  0.25678  0.30836  1.0000
  O   O6        1.0  0.33141  0.51468  0.6557400000000002  1.0000
  O   O7        1.0  0.3079  0.48533000000000004  0.34433  1.0000
  O   O8        1.0  0.51446  0.7432200000000002  0.69164  1.0000
  O   O9        1.0  0.49095  0.71387  0.38023  1.0000
  O   O10       1.0  0.6921  0.51467  0.65567  1.0000
  O   O11       1.0  0.66859  0.48532  0.3442600000000001  1.0000
  O   O12       1.0  0.31566  0.92476  0.8139900000000002  1.0000
