data_image0
_chemical_formula_structural       C42ClCr6H17O30
_chemical_formula_sum              "C42 Cl1 Cr6 H17 O30"
_cell_length_a       10.68735
_cell_length_b       10.59049
_cell_length_c       16.94289
_cell_angle_alpha    98.47626
_cell_angle_beta     98.59062000000002
_cell_angle_gamma    61.540319999999994

_symmetry_space_group_name_H-M    'P 1'
_symmetry_Int_Tables_number       1

loop_
  _symmetry_equiv_pos_as_xyz
  'x,y,z'

loop_
  _atom_site_type_symbol
  _atom_site_label
  _atom_site_symmetry_multiplicity
  _atom_site_fract_x
  _atom_site_fract_y
  _atom_site_fract_z
  _atom_site_occupancy
  C   C1        1.0  0.35362  0.7771  0.3992399999999999  1.0000
  C   C2        1.0  0.4249000000000001  0.6969299999999999  0.25649999999999995  1.0000
  C   C3        1.0  0.3422  0.8184  0.31982  1.0000
  C   C4        1.0  0.37084  0.34682  0.35872  1.0000
  C   C5        1.0  0.38347999999999965  0.9212200000000001  0.28894  1.0000
  C   C6        1.0  0.24471000000000004  0.9715599999999999  0.23164  1.0000
  C   C7        1.0  0.20747999999999994  0.86628  0.26263  1.0000
  C   C8        1.0  0.28670999999999996  0.74587  0.19928  1.0000
  C   C9        1.0  0.32726  0.84929  0.16857  1.0000
  C   C10       1.0  0.4795399999999999  0.28036999999999995  0.7920099999999998  1.0000
  C   C11       1.0  0.42985  0.42459  0.7589  1.0000
  C   C12       1.0  0.7147  0.33281  0.23444999999999994  1.0000
  C   C13       1.0  0.37843999999999994  0.36654  0.67974  1.0000
  C   C14       1.0  0.4293899999999999  0.21956999999999993  0.7128599999999998  1.0000
  C   C15       1.0  0.28104000000000007  0.28269  0.74304  1.0000
  C   C16       1.0  0.7203900000000001  0.40863  0.38981  1.0000
  C   C17       1.0  0.22796000000000005  0.42801999999999996  0.70884  1.0000
  C   C18       1.0  0.28090000000000004  0.48632  0.7899499999999998  1.0000
  C   C19       1.0  0.33276  0.33924  0.82286  1.0000
  C   C20       1.0  0.82048  0.33974999999999994  0.7089799999999998  1.0000
  C   C21       1.0  0.84705  0.31355  0.77756  1.0000
  C   C22       1.0  0.33719000000000005  0.81406  0.7094  1.0000
  C   C23       1.0  0.7831099999999999  0.37064  0.3143599999999999  1.0000
  C   C24       1.0  0.3120800000000001  0.84132  0.77811  1.0000
  C   C25       1.0  0.95144  0.28717  0.10297  1.0000
  C   C26       1.0  0.31907  0.29983  0.12021999999999998  1.0000
  C   C27       1.0  0.29629  0.88767  0.08726  1.0000
  C   C28       1.0  0.35633  0.77208  0.62702  1.0000
  C   C29       1.0  0.88623  0.29904  0.86048  1.0000
  C   C30       1.0  0.31071999999999994  0.29778  0.89499  1.0000
  C   C31       1.0  0.2794500000000001  0.8856599999999999  0.85876  1.0000
  C   C32       1.0  0.40875999999999996  0.37799000000000005  0.60117  1.0000
  C   C33       1.0  0.77559  0.37840999999999997  0.6292499999999998  1.0000
  C   C34       1.0  0.92996  0.24476999999999996  0.2979699999999999  1.0000
  C   C35       1.0  0.34413000000000005  0.33669  0.275  1.0000
  C   C36       1.0  0.3319299999999999  0.32682  0.20383  1.0000
  C   C37       1.0  0.8625  0.20636  0.21655  1.0000
  C   C38       1.0  0.96209  0.34734  0.2581  1.0000
  C   C39       1.0  0.81507  0.47227  0.27523999999999993  1.0000
  C   C40       1.0  0.7462700000000001  0.43621000000000004  0.19488999999999998  1.0000
  C   C41       1.0  0.89311  0.31031  0.17847  1.0000
  C   C42       1.0  0.46544  0.80088  0.22408  1.0000
  Cl  Cl1       1.0  0.7959599999999999  0.64581  0.31443  1.0000
  Cr  Cr1       1.0  0.6083400000000001  0.61104  0.5204299999999998  1.0000
  Cr  Cr2       1.0  0.28765  0.60112  0.48934999999999995  1.0000
  Cr  Cr3       1.0  0.6040399999999999  0.28787  0.49027999999999994  1.0000
  Cr  Cr4       1.0  0.05401999999999995  0.05269999999999998  0.9708499999999999  1.0000
  Cr  Cr5       1.0  0.05923  0.37512  0.99339  1.0000
  Cr  Cr6       1.0  0.37495  0.06119999999999999  0.99234  1.0000
  H   H1        1.0  0.61299  0.32621  0.22631  1.0000
  H   H2        1.0  0.67239  0.51308  0.15091  1.0000
  H   H3        1.0  0.49512  0.5849399999999999  0.2711999999999999  1.0000
  H   H4        1.0  0.5685999999999999  0.77543  0.20266999999999993  1.0000
  H   H5        1.0  0.4213900000000001  0.9930399999999999  0.32716  1.0000
  H   H6        1.0  0.026760000000000058  0.86363  0.24087  1.0000
  H   H7        1.0  0.52678  0.52184  0.8229899999999999  1.0000
  H   H8        1.0  0.68272  0.16295  0.79878  1.0000
  H   H9        1.0  0.18357  0.18558  0.67889  1.0000
  H   H10       1.0  0.17355000000000004  0.08368  0.21718999999999994  1.0000
  H   H11       1.0  0.24829  0.67399  0.16153  1.0000
  H   H12       1.0  0.48817999999999995  0.11046999999999996  0.6818899999999998  1.0000
  H   H13       1.0  0.12439999999999996  0.48527  0.67283  1.0000
  H   H14       1.0  0.22323  0.59373  0.82283  1.0000
  H   H15       1.0  0.8819399999999998  0.09764000000000002  0.18904  1.0000
  H   H16       1.0  0.0032600000000000203  0.16964999999999997  0.34284  1.0000
  H   H17       1.0  0.06407000000000002  0.35336  0.2662  1.0000
  O   O1        1.0  0.75122  0.49922999999999995  0.43517  1.0000
  O   O2        1.0  0.41298999999999997  0.18075  0.09161  1.0000
  O   O3        1.0  0.3666199999999997  0.94313  0.06575999999999997  1.0000
  O   O4        1.0  0.47722  0.7275999999999999  0.43686999999999987  1.0000
  O   O5        1.0  0.16050999999999999  0.90633  0.8792099999999999  1.0000
  O   O6        1.0  0.93019  0.17905  0.88945  1.0000
  O   O7        1.0  0.90914  0.39817  0.8967099999999998  1.0000
  O   O8        1.0  0.18619000000000002  0.36345999999999995  0.91883  1.0000
  O   O9        1.0  0.4016699999999999  0.17319999999999994  0.9133099999999997  1.0000
  O   O10       1.0  0.35611999999999994  0.9361300000000001  0.90047  1.0000
  O   O11       1.0  0.16274  0.16301  0.98553  1.0000
  O   O12       1.0  0.29788  0.46908  0.56005  1.0000
  O   O13       1.0  0.25865000000000005  0.74512  0.4114699999999999  1.0000
  O   O14       1.0  0.29707  0.46724  0.39596  1.0000
  O   O15       1.0  0.48883  0.25261  0.38779  1.0000
  O   O16       1.0  0.7243999999999999  0.30239  0.4209799999999999  1.0000
  O   O17       1.0  0.7520999999999999  0.50121  0.61219  1.0000
  O   O18       1.0  0.47804  0.7294400000000001  0.60097  1.0000
  O   O19       1.0  0.25952999999999987  0.74711  0.5884899999999997  1.0000
  O   O20       1.0  0.07360999999999995  0.90159  0.28591  1.0000
  O   O21       1.0  0.51105  0.4975  0.76484  1.0000
  O   O22       1.0  0.6093900000000002  0.20765  0.83769  1.0000
  O   O23       1.0  0.48972000000000004  0.25459  0.56481  1.0000
  O   O24       1.0  0.20074000000000003  0.2085  0.73707  1.0000
  O   O25       1.0  0.72522  0.30423  0.58508  1.0000
  O   O26       1.0  0.50001  0.50001  0.50002  1.0000
  O   O27       1.0  0.17183000000000007  0.91388  0.057509999999999985  1.0000
  O   O28       1.0  0.94069  0.18605  0.05473  1.0000
  O   O29       1.0  0.92047  0.40572  0.07501  1.0000
  O   O30       1.0  0.19669  0.37046  0.08412  1.0000
