data_image0
_chemical_formula_structural       C176Cu12H4N16O48Cl4Br8Cl4Br24Cl4Br4Cl4Br4Cl8Br8Cl8Br4Cl8Br4Cl4Br8Cl4Br8Cl4
_chemical_formula_sum              "C176 Cu12 H4 N16 O48 Cl52 Br72"
_cell_length_a       38.81246
_cell_length_b       45.41119
_cell_length_c       29.811520000000005
_cell_angle_alpha    89.99825
_cell_angle_beta     130.52005
_cell_angle_gamma    90.00005999999999

_symmetry_space_group_name_H-M    'P 1'
_symmetry_Int_Tables_number       1

loop_
  _symmetry_equiv_pos_as_xyz
  'x,y,z'

loop_
  _atom_site_type_symbol
  _atom_site_label
  _atom_site_symmetry_multiplicity
  _atom_site_fract_x
  _atom_site_fract_y
  _atom_site_fract_z
  _atom_site_occupancy
  C   C1        1.0  0.79002  0.78999  0.07998  1.0000
  C   C2        1.0  0.20999  0.78999  0.92002  1.0000
  C   C3        1.0  0.29001  0.28999  0.07999  1.0000
  C   C4        1.0  0.70999  0.28999  0.92002  1.0000
  C   C5        1.0  0.64556  0.7499200000000001  0.99986  1.0000
  C   C6        1.0  0.35441  0.74989  0.00015999999999999999  1.0000
  C   C7        1.0  0.14551999999999998  0.24992  0.9998299999999999  1.0000
  C   C8        1.0  0.8543799999999999  0.2499  0.00011999999999999998  1.0000
  C   C9        1.0  0.4648699999999999  0.74994  0.9999999999999998  1.0000
  C   C10       1.0  0.5347  0.74999  0.99994  1.0000
  C   C11       1.0  0.96477  0.24996  0.9998699999999999  1.0000
  C   C12       1.0  0.03461000000000004  0.25  0.99982  1.0000
  C   C13       1.0  0.90022  0.8407199999999999  0.26881  1.0000
  C   C14       1.0  0.09297  0.8465200000000002  0.74296  1.0000
  C   C15       1.0  0.40468999999999994  0.3437  0.26270999999999994  1.0000
  C   C16       1.0  0.5987099999999999  0.34114  0.7320499999999998  1.0000
  C   C17       1.0  0.8694199999999999  0.8803699999999999  0.19128  1.0000
  C   C18       1.0  0.15078999999999992  0.88463  0.8184299999999999  1.0000
  C   C19       1.0  0.35677999999999993  0.38337000000000004  0.18406999999999998  1.0000
  C   C20       1.0  0.63244  0.38097000000000003  0.8099099999999999  1.0000
  C   C21       1.0  0.8851199999999999  0.90732  0.23371999999999998  1.0000
  C   C22       1.0  0.12138000000000002  0.90875  0.76906  1.0000
  C   C23       1.0  0.38653  0.40699  0.23443999999999998  1.0000
  C   C24       1.0  0.6167899999999998  0.40777  0.7671899999999999  1.0000
  C   C25       1.0  0.93782  0.9375900000000001  0.37567  1.0000
  C   C26       1.0  0.06222999999999994  0.93762  0.6244099999999999  1.0000
  C   C27       1.0  0.4377499999999999  0.43763  0.37556999999999996  1.0000
  C   C28       1.0  0.56219  0.43759000000000003  0.62433  1.0000
  C   C29       1.0  0.85452  0.8536700000000002  0.20950999999999997  1.0000
  C   C30       1.0  0.14587999999999998  0.8536  0.79039  1.0000
  C   C31       1.0  0.3538799999999999  0.35368  0.20945999999999995  1.0000
  C   C32       1.0  0.64545  0.35367  0.79048  1.0000
  C   C33       1.0  0.9282699999999999  0.86689  0.31559  1.0000
  C   C34       1.0  0.06992999999999999  0.86873  0.68869  1.0000
  C   C35       1.0  0.4266  0.36641  0.31601  1.0000
  C   C36       1.0  0.57088  0.36744  0.68551  1.0000
  C   C37       1.0  0.89613  0.8954499999999999  0.29259  1.0000
  C   C38       1.0  0.10423999999999999  0.89555  0.70769  1.0000
  C   C39       1.0  0.39564  0.3956  0.29221  1.0000
  C   C40       1.0  0.60386  0.3954500000000001  0.7074099999999999  1.0000
  C   C41       1.0  0.8493199999999999  0.88611  0.27669  1.0000
  C   C42       1.0  0.14746999999999993  0.8834  0.7170599999999999  1.0000
  C   C43       1.0  0.34772  0.38765  0.27442  1.0000
  C   C44       1.0  0.64959  0.38511  0.72131  1.0000
  C   C45       1.0  0.68358  0.7499300000000001  0.9998499999999999  1.0000
  C   C46       1.0  0.31641  0.7499200000000001  0.00016999999999999999  1.0000
  C   C47       1.0  0.18356999999999996  0.24993  0.9998499999999999  1.0000
  C   C48       1.0  0.8164  0.24993  0.00015999999999999999  1.0000
  C   C49       1.0  0.82146  0.8654500000000002  0.21978999999999996  1.0000
  C   C50       1.0  0.16760999999999995  0.85543  0.7597999999999999  1.0000
  C   C51       1.0  0.32666000000000006  0.35959  0.23185  1.0000
  C   C52       1.0  0.67773  0.36446  0.77823  1.0000
  C   C53       1.0  0.91908  0.91868  0.33831999999999995  1.0000
  C   C54       1.0  0.08106000000000001  0.91875  0.66184  1.0000
  C   C55       1.0  0.41888  0.41877000000000003  0.33811  1.0000
  C   C56       1.0  0.58091  0.41868  0.66168  1.0000
  C   C57       1.0  0.8312899999999999  0.8308999999999999  0.16266999999999998  1.0000
  C   C58       1.0  0.16895999999999992  0.83087  0.8372399999999999  1.0000
  C   C59       1.0  0.33094  0.3309  0.1627  1.0000
  C   C60       1.0  0.6687099999999999  0.3309  0.83732  1.0000
  C   C61       1.0  0.8124  0.81226  0.12477999999999999  1.0000
  C   C62       1.0  0.18772999999999992  0.81226  0.8751899999999998  1.0000
  C   C63       1.0  0.31224  0.31227  0.1248  1.0000
  C   C64       1.0  0.68761  0.31226  0.87522  1.0000
  C   C65       1.0  0.8457  0.74611  0.94613  1.0000
  C   C66       1.0  0.15418  0.74649  0.05381  1.0000
  C   C67       1.0  0.34580999999999984  0.24613  0.9462699999999997  1.0000
  C   C68       1.0  0.65431  0.24647  0.05397999999999999  1.0000
  C   C69       1.0  0.8818699999999999  0.7464700000000001  0.9459299999999999  1.0000
  C   C70       1.0  0.11787999999999998  0.74668  0.05373  1.0000
  C   C71       1.0  0.3820199999999999  0.24649000000000001  0.94615  1.0000
  C   C72       1.0  0.6180499999999998  0.24665  0.05397999999999999  1.0000
  C   C73       1.0  0.9268099999999999  0.75003  0.9993299999999999  1.0000
  C   C74       1.0  0.0731  0.74994  0.00025  1.0000
  C   C75       1.0  0.4269299999999999  0.25005  0.9995799999999999  1.0000
  C   C76       1.0  0.57324  0.24986  0.00054  1.0000
  C   C77       1.0  0.93519  0.7535599999999999  0.05271  1.0000
  C   C78       1.0  0.06464  0.75313  0.94689  1.0000
  C   C79       1.0  0.43525  0.25361  0.05290999999999999  1.0000
  C   C80       1.0  0.5647099999999999  0.25299  0.9471099999999998  1.0000
  C   C81       1.0  0.899  0.7537  0.05272999999999999  1.0000
  C   C82       1.0  0.10084999999999991  0.7533  0.9468999999999999  1.0000
  C   C83       1.0  0.39902  0.25377  0.05285  1.0000
  C   C84       1.0  0.6008699999999999  0.25317  0.94704  1.0000
  C   C85       1.0  0.85417  0.74989  0.9995199999999999  1.0000
  C   C86       1.0  0.14575  0.7499200000000001  0.00033999999999999997  1.0000
  C   C87       1.0  0.35422000000000003  0.24993  0.99962  1.0000
  C   C88       1.0  0.64581  0.24987  0.00046  1.0000
  C   C89       1.0  0.70999  0.71001  0.91991  1.0000
  C   C90       1.0  0.29001  0.71001  0.08007999999999998  1.0000
  C   C91       1.0  0.2099799999999999  0.21001  0.91992  1.0000
  C   C92       1.0  0.7900099999999999  0.21001  0.08007999999999998  1.0000
  C   C93       1.0  0.03508  0.74997  3.9999999999999996e-05  1.0000
  C   C94       1.0  0.96495  0.7500399999999999  0.99945  1.0000
  C   C95       1.0  0.53526  0.24989  0.00041  1.0000
  C   C96       1.0  0.4651199999999999  0.25002  0.9997899999999998  1.0000
  C   C97       1.0  0.6306499999999998  0.6193  0.8110699999999997  1.0000
  C   C98       1.0  0.36396  0.61763  0.18558  1.0000
  C   C99       1.0  0.14337999999999995  0.11583  0.8179999999999998  1.0000
  C   C100      1.0  0.8692  0.11925  0.18881  1.0000
  C   C101      1.0  0.60169  0.65938  0.73037  1.0000
  C   C102      1.0  0.40144  0.65823  0.26733  1.0000
  C   C103      1.0  0.09521000000000002  0.15624  0.73671  1.0000
  C   C104      1.0  0.89842  0.15934  0.26956  1.0000
  C   C105      1.0  0.57291  0.63313  0.68462  1.0000
  C   C106      1.0  0.42941999999999997  0.63157  0.31225  1.0000
  C   C107      1.0  0.06837  0.12906  0.69281  1.0000
  C   C108      1.0  0.9271599999999999  0.13308  0.31528  1.0000
  C   C109      1.0  0.5624299999999999  0.56231  0.6249799999999999  1.0000
  C   C110      1.0  0.43756  0.56229  0.37499  1.0000
  C   C111      1.0  0.062439999999999954  0.0623  0.6249999999999999  1.0000
  C   C112      1.0  0.93756  0.0623  0.375  1.0000
  C   C113      1.0  0.6458499999999998  0.64589  0.7916599999999998  1.0000
  C   C114      1.0  0.35416999999999993  0.64588  0.20832  1.0000
  C   C115      1.0  0.14580999999999986  0.14588  0.7916599999999998  1.0000
  C   C116      1.0  0.8541599999999999  0.14589  0.20833  1.0000
  C   C117      1.0  0.6138299999999999  0.59243  0.7666799999999998  1.0000
  C   C118      1.0  0.38077  0.59116  0.23077  1.0000
  C   C119      1.0  0.1264199999999999  0.08995000000000002  0.7716199999999998  1.0000
  C   C120      1.0  0.8860099999999999  0.09237999999999999  0.23321  1.0000
  C   C121      1.0  0.60422  0.60418  0.70853  1.0000
  C   C122      1.0  0.39577  0.60416  0.29143  1.0000
  C   C123      1.0  0.10422999999999999  0.10416  0.70856  1.0000
  C   C124      1.0  0.89577  0.10417  0.29145  1.0000
  C   C125      1.0  0.65177  0.61261  0.72559  1.0000
  C   C126      1.0  0.35129999999999995  0.61539  0.27999999999999997  1.0000
  C   C127      1.0  0.14370999999999998  0.11913  0.7124699999999999  1.0000
  C   C128      1.0  0.8482999999999999  0.11268  0.27455  1.0000
  C   C129      1.0  0.6796299999999998  0.63341  0.7824399999999999  1.0000
  C   C130      1.0  0.32268  0.63617  0.22312999999999994  1.0000
  C   C131      1.0  0.17327999999999996  0.13999  0.7692  1.0000
  C   C132      1.0  0.8204299999999999  0.13349  0.21769999999999998  1.0000
  C   C133      1.0  0.8162700000000002  0.7499300000000001  0.99974  1.0000
  C   C134      1.0  0.18371  0.74994  0.00022  1.0000
  C   C135      1.0  0.31627999999999984  0.24994  0.9997699999999998  1.0000
  C   C136      1.0  0.68373  0.24993  0.00025  1.0000
  C   C137      1.0  0.58118  0.58109  0.66252  1.0000
  C   C138      1.0  0.41881  0.58107  0.33742999999999995  1.0000
  C   C139      1.0  0.08119999999999998  0.08107  0.66256  1.0000
  C   C140      1.0  0.9188099999999999  0.08108  0.33745  1.0000
  C   C141      1.0  0.66888  0.66895  0.8377  1.0000
  C   C142      1.0  0.33114  0.66894  0.16228  1.0000
  C   C143      1.0  0.16883999999999996  0.16895  0.83771  1.0000
  C   C144      1.0  0.83113  0.16895  0.16228999999999996  1.0000
  C   C145      1.0  0.6876599999999998  0.68772  0.8752499999999999  1.0000
  C   C146      1.0  0.31236  0.68772  0.12473999999999998  1.0000
  C   C147      1.0  0.18763  0.18772000000000003  0.87526  1.0000
  C   C148      1.0  0.81235  0.18772000000000003  0.12473999999999998  1.0000
  C   C149      1.0  0.03994  0.96003  0.57984  1.0000
  C   C150      1.0  0.9600599999999999  0.96003  0.42017  1.0000
  C   C151      1.0  0.5399399999999999  0.46003000000000005  0.57983  1.0000
  C   C152      1.0  0.4600600000000001  0.46003000000000005  0.42016  1.0000
  C   C153      1.0  0.45986999999999995  0.54  0.41968999999999995  1.0000
  C   C154      1.0  0.54012  0.54001  0.5802999999999999  1.0000
  C   C155      1.0  0.9598799999999998  0.04  0.41968999999999995  1.0000
  C   C156      1.0  0.04011999999999997  0.04  0.58031  1.0000
  C   C157      1.0  0.6312  0.77652  0.00755  1.0000
  C   C158      1.0  0.36821  0.77642  0.9913  1.0000
  C   C159      1.0  0.1306  0.27659  0.006429999999999999  1.0000
  C   C160      1.0  0.86781  0.27637  0.99058  1.0000
  C   C161      1.0  0.59466  0.77664  0.006949999999999998  1.0000
  C   C162      1.0  0.40454999999999985  0.77646  0.9915199999999997  1.0000
  C   C163      1.0  0.09401999999999999  0.27671  0.00573  1.0000
  C   C164      1.0  0.9041199999999999  0.27641  0.9907399999999997  1.0000
  C   C165      1.0  0.5727899999999999  0.75001  0.9998899999999998  1.0000
  C   C166      1.0  0.42693999999999993  0.74994  0.9999899999999999  1.0000
  C   C167      1.0  0.07269999999999988  0.25002  0.9997699999999998  1.0000
  C   C168      1.0  0.9268499999999998  0.24996  0.9998699999999999  1.0000
  C   C169      1.0  0.5874499999999998  0.72337  0.9926299999999998  1.0000
  C   C170      1.0  0.41307999999999995  0.7234199999999998  0.00854  1.0000
  C   C171      1.0  0.08791000000000006  0.22331  0.99363  1.0000
  C   C172      1.0  0.91333  0.22349  0.009109999999999998  1.0000
  C   C173      1.0  0.62337  0.72336  0.992  1.0000
  C   C174      1.0  0.37709  0.72338  0.00904  1.0000
  C   C175      1.0  0.12382000000000008  0.22329000000000002  0.99297  1.0000
  C   C176      1.0  0.8773599999999999  0.22345  0.00961  1.0000
  Cu  Cu1       1.0  0.77067  0.72933  0.04128999999999999  1.0000
  Cu  Cu2       1.0  0.22933  0.72933  0.95871  1.0000
  Cu  Cu3       1.0  0.27067  0.22933000000000003  0.04128999999999999  1.0000
  Cu  Cu4       1.0  0.72933  0.22933000000000003  0.95871  1.0000
  Cu  Cu5       1.0  0.7293199999999997  0.7706500000000001  0.9585699999999998  1.0000
  Cu  Cu6       1.0  0.2706799999999999  0.7706500000000001  0.04143  1.0000
  Cu  Cu7       1.0  0.22931999999999986  0.27065  0.9585699999999998  1.0000
  Cu  Cu8       1.0  0.77068  0.27065  0.04143  1.0000
  Cu  Cu9       1.0  0.53414  0.5000600000000001  0.49978999999999996  1.0000
  Cu  Cu10      1.0  0.4658599999999999  0.50006  0.5002099999999999  1.0000
  Cu  Cu11      1.0  0.03413999999999996  6.000000000000001e-05  0.49978999999999996  1.0000
  Cu  Cu12      1.0  0.96586  6.000000000000001e-05  0.5002099999999999  1.0000
  H   H1        1.0  0.89945  0.8730400000000001  0.19733  1.0000
  H   H2        1.0  0.13828000000000001  0.88246  0.84272  1.0000
  H   H3        1.0  0.3731  0.37846  0.16526  1.0000
  H   H4        1.0  0.60277  0.37433  0.80527  1.0000
  N   N1        1.0  0.4945099999999999  0.73726  0.9551099999999999  1.0000
  N   N2        1.0  0.46023  0.73717  0.95519  1.0000
  N   N3        1.0  0.9947099999999999  0.23677000000000004  0.9555699999999998  1.0000
  N   N4        1.0  0.96043  0.23668  0.95566  1.0000
  N   N5        1.0  0.50498  0.7626500000000002  0.04487  1.0000
  N   N6        1.0  0.53932  0.7626  0.044899999999999995  1.0000
  N   N7        1.0  0.004599999999999997  0.26317  0.044149999999999995  1.0000
  N   N8        1.0  0.03894  0.26312  0.04418999999999999  1.0000
  N   N9        1.0  0.995  0.77268  0.02408  1.0000
  N   N10       1.0  0.005079999999999884  0.72733  0.9753399999999999  1.0000
  N   N11       1.0  0.4952399999999999  0.27262  0.02451  1.0000
  N   N12       1.0  0.5051999999999999  0.22729  0.9756299999999999  1.0000
  N   N13       1.0  0.02949999999999999  0.77263  0.024449999999999996  1.0000
  N   N14       1.0  0.9706999999999999  0.72733  0.97521  1.0000
  N   N15       1.0  0.52974  0.27255  0.024889999999999992  1.0000
  N   N16       1.0  0.47080999999999984  0.22732  0.9754899999999997  1.0000
  O   O1        1.0  0.79759  0.76269  0.09513999999999999  1.0000
  O   O2        1.0  0.20240999999999995  0.76269  0.9048599999999999  1.0000
  O   O3        1.0  0.29759  0.26269  0.09513999999999999  1.0000
  O   O4        1.0  0.70241  0.26269  0.9048599999999999  1.0000
  O   O5        1.0  0.0012199999999999965  0.96991  0.56016  1.0000
  O   O6        1.0  0.9987799999999999  0.96991  0.43984  1.0000
  O   O7        1.0  0.50122  0.46991  0.56016  1.0000
  O   O8        1.0  0.49877999999999995  0.46991  0.43984  1.0000
  O   O9        1.0  0.49864  0.5302  0.43945  1.0000
  O   O10       1.0  0.50136  0.5302  0.56055  1.0000
  O   O11       1.0  0.9986399999999999  0.030200000000000005  0.43945  1.0000
  O   O12       1.0  0.001360000000000014  0.030200000000000005  0.56055  1.0000
  O   O13       1.0  0.4408599999999999  0.53019  0.43947999999999987  1.0000
  O   O14       1.0  0.55914  0.53019  0.56052  1.0000
  O   O15       1.0  0.94086  0.03019  0.43947999999999987  1.0000
  O   O16       1.0  0.05913999999999999  0.03019  0.56052  1.0000
  O   O17       1.0  0.76267  0.79758  0.02529  1.0000
  O   O18       1.0  0.23732999999999985  0.79758  0.9747099999999997  1.0000
  O   O19       1.0  0.26267  0.29758  0.02529  1.0000
  O   O20       1.0  0.7373299999999998  0.29758  0.9747099999999997  1.0000
  O   O21       1.0  0.71753  0.7325500000000001  0.03486  1.0000
  O   O22       1.0  0.28246999999999983  0.7325500000000001  0.9651399999999998  1.0000
  O   O23       1.0  0.21753  0.23255  0.03486  1.0000
  O   O24       1.0  0.7824699999999999  0.23255  0.9651399999999998  1.0000
  O   O25       1.0  0.68261  0.76744  0.9650099999999999  1.0000
  O   O26       1.0  0.31739  0.76744  0.03499  1.0000
  O   O27       1.0  0.18261000000000002  0.26744  0.9650099999999999  1.0000
  O   O28       1.0  0.81739  0.26744  0.03499  1.0000
  O   O29       1.0  0.73731  0.70241  0.97457  1.0000
  O   O30       1.0  0.26269  0.70241  0.025429999999999998  1.0000
  O   O31       1.0  0.2373099999999999  0.20241  0.97457  1.0000
  O   O32       1.0  0.7626899999999999  0.20241  0.025429999999999998  1.0000
  O   O33       1.0  0.7023899999999998  0.73729  0.9047199999999999  1.0000
  O   O34       1.0  0.29760999999999993  0.73729  0.09528  1.0000
  O   O35       1.0  0.20238999999999988  0.23728999999999997  0.9047199999999999  1.0000
  O   O36       1.0  0.79761  0.23728999999999997  0.09528  1.0000
  O   O37       1.0  0.81738  0.7325500000000001  0.03485  1.0000
  O   O38       1.0  0.18261999999999992  0.7325500000000001  0.96515  1.0000
  O   O39       1.0  0.31738  0.23255  0.03485  1.0000
  O   O40       1.0  0.6826199999999998  0.23255  0.96515  1.0000
  O   O41       1.0  0.7824599999999999  0.76743  0.965  1.0000
  O   O42       1.0  0.21753999999999998  0.76743  0.034999999999999996  1.0000
  O   O43       1.0  0.28246  0.26743  0.965  1.0000
  O   O44       1.0  0.71754  0.26743  0.034999999999999996  1.0000
  O   O45       1.0  0.05900000000000002  0.96992  0.56014  1.0000
  O   O46       1.0  0.9409999999999998  0.96992  0.43985999999999986  1.0000
  O   O47       1.0  0.559  0.46992  0.56014  1.0000
  O   O48       1.0  0.44099999999999995  0.46992  0.43985999999999986  1.0000
  Cl  Cl1       1.0  0.66007  0.8098  0.02017  1.0000
  Cl  Cl2       1.0  0.33864999999999995  0.80957  0.9771699999999999  1.0000
  Cl  Cl3       1.0  0.15883  0.31001  0.01784  1.0000
  Cl  Cl4       1.0  0.83784  0.30942  0.97568  1.0000
  Br  Br1       1.0  0.8425099999999999  0.9405000000000001  0.1957  1.0000
  Br  Br2       1.0  0.1501399999999998  0.9478600000000001  0.7898499999999998  1.0000
  Br  Br3       1.0  0.36373  0.44768  0.21044  1.0000
  Br  Br4       1.0  0.66057  0.44032000000000004  0.80394  1.0000
  Br  Br5       1.0  0.7870499999999999  0.8339600000000001  0.22103999999999996  1.0000
  Br  Br6       1.0  0.1599099999999999  0.8186  0.7195499999999999  1.0000
  Br  Br7       1.0  0.3244  0.32456  0.26854  1.0000
  Br  Br8       1.0  0.71009  0.33209  0.77521  1.0000
  Cl  Cl5       1.0  0.7742799999999999  0.8844400000000001  0.15458999999999998  1.0000
  Cl  Cl6       1.0  0.22880999999999999  0.85553  0.81404  1.0000
  Cl  Cl7       1.0  0.26656  0.36315  0.17067999999999997  1.0000
  Cl  Cl8       1.0  0.7262999999999998  0.38305  0.8426299999999999  1.0000
  Br  Br9       1.0  0.8584  0.86776  0.34339  1.0000
  Br  Br10      1.0  0.13565000000000005  0.8765199999999999  0.64275  1.0000
  Br  Br11      1.0  0.3503899999999999  0.38385  0.34256999999999993  1.0000
  Br  Br12      1.0  0.63807  0.36616  0.65341  1.0000
  Br  Br13      1.0  0.8889200000000002  0.8074900000000002  0.29988999999999993  1.0000
  Br  Br14      1.0  0.07899999999999993  0.8047  0.7196599999999999  1.0000
  Br  Br15      1.0  0.4106  0.30207  0.28570999999999996  1.0000
  Br  Br16      1.0  0.60761  0.30725  0.69964  1.0000
  Br  Br17      1.0  0.959  0.85555  0.39776  1.0000
  Br  Br18      1.0  0.04917999999999993  0.8488799999999999  0.6162799999999999  1.0000
  Br  Br19      1.0  0.43727000000000005  0.34867  0.38423  1.0000
  Br  Br20      1.0  0.53806  0.35586  0.6028599999999998  1.0000
  Br  Br21      1.0  0.81356  0.91968  0.26908999999999994  1.0000
  Br  Br22      1.0  0.19377999999999998  0.9138700000000001  0.7458499999999999  1.0000
  Br  Br23      1.0  0.30542  0.42119  0.23943  1.0000
  Br  Br24      1.0  0.6857799999999997  0.41784999999999994  0.7272299999999998  1.0000
  Br  Br25      1.0  0.7847599999999998  0.73906  0.8733999999999998  1.0000
  Br  Br26      1.0  0.21507  0.7398199999999999  0.12684  1.0000
  Br  Br27      1.0  0.2848999999999998  0.23903  0.8735199999999999  1.0000
  Br  Br28      1.0  0.7152399999999999  0.23984  0.12698  1.0000
  Br  Br29      1.0  0.86928  0.74347  0.8718599999999997  1.0000
  Br  Br30      1.0  0.12924  0.7413  0.12659  1.0000
  Br  Br31      1.0  0.3694899999999999  0.2435  0.87211  1.0000
  Br  Br32      1.0  0.62951  0.24131000000000002  0.12691999999999998  1.0000
  Cl  Cl9       1.0  0.9913399999999999  0.75679  0.12050999999999999  1.0000
  Cl  Cl10      1.0  0.008529999999999968  0.7579  0.87981  1.0000
  Cl  Cl11      1.0  0.49137  0.25686  0.12076999999999999  1.0000
  Cl  Cl12      1.0  0.50856  0.25768  0.88006  1.0000
  Br  Br33      1.0  0.5735  0.81373  0.01291  1.0000
  Br  Br34      1.0  0.42251000000000005  0.8126999999999999  0.97796  1.0000
  Br  Br35      1.0  0.07202  0.31386  0.01002  1.0000
  Br  Br36      1.0  0.9215400000000001  0.31257  0.97613  1.0000
  Cl  Cl13      1.0  0.9100799999999999  0.75979  0.11973  1.0000
  Cl  Cl14      1.0  0.08969999999999989  0.75918  0.8798199999999998  1.0000
  Cl  Cl15      1.0  0.41002  0.25992  0.11979  1.0000
  Cl  Cl16      1.0  0.58962  0.25895  0.87987  1.0000
  Br  Br37      1.0  0.5631799999999998  0.57008  0.7505899999999998  1.0000
  Br  Br38      1.0  0.4267  0.5658  0.24083  1.0000
  Br  Br39      1.0  0.08758999999999992  0.06073  0.7692899999999999  1.0000
  Br  Br40      1.0  0.93653  0.06994  0.24912999999999996  1.0000
  Cl  Cl17      1.0  0.5878099999999999  0.63064  0.8141499999999999  1.0000
  Cl  Cl18      1.0  0.4042299999999999  0.62574  0.17603  1.0000
  Cl  Cl19      1.0  0.10767999999999987  0.11953  0.8364199999999998  1.0000
  Cl  Cl20      1.0  0.9119799999999999  0.13049  0.18555  1.0000
  Cl  Cl21      1.0  0.6164799999999999  0.68664  0.7015099999999999  1.0000
  Cl  Cl22      1.0  0.3929  0.68744  0.3001  1.0000
  Cl  Cl23      1.0  0.09519999999999998  0.18757  0.69967  1.0000
  Cl  Cl24      1.0  0.88381  0.18666000000000002  0.29855  1.0000
  Br  Br41      1.0  0.56592  0.68587  0.73901  1.0000
  Br  Br42      1.0  0.43613  0.68177  0.25274  1.0000
  Br  Br43      1.0  0.06312000000000001  0.17557  0.75975  1.0000
  Br  Br44      1.0  0.9341699999999998  0.18575000000000003  0.26077  1.0000
  Br  Br45      1.0  0.51537  0.62623  0.6675  1.0000
  Br  Br46      1.0  0.48324999999999996  0.62114  0.3223  1.0000
  Br  Br47      1.0  0.020629999999999933  0.11392000000000001  0.6922399999999999  1.0000
  Br  Br48      1.0  0.98461  0.12607  0.3322  1.0000
  Cl  Cl25      1.0  0.54779  0.64286  0.61006  1.0000
  Cl  Cl26      1.0  0.45994999999999997  0.642  0.38821  1.0000
  Cl  Cl27      1.0  0.030879999999999963  0.13991  0.61604  1.0000
  Cl  Cl28      1.0  0.95244  0.14283  0.38989  1.0000
  Cl  Cl29      1.0  0.7272099999999998  0.61442  0.8471599999999998  1.0000
  Cl  Cl30      1.0  0.27144  0.61847  0.16096999999999997  1.0000
  Cl  Cl31      1.0  0.2284599999999999  0.12458  0.8267499999999998  1.0000
  Cl  Cl32      1.0  0.77274  0.11454000000000002  0.15303  1.0000
  Br  Br49      1.0  0.71529  0.66421  0.78186  1.0000
  Br  Br50      1.0  0.29281  0.66944  0.22867  1.0000
  Br  Br51      1.0  0.19495999999999997  0.1762  0.75774  1.0000
  Br  Br52      1.0  0.78493  0.16437  0.21841999999999998  1.0000
  Cl  Cl33      1.0  0.68382  0.58068  0.7349499999999998  1.0000
  Cl  Cl34      1.0  0.31793999999999994  0.58555  0.27484  1.0000
  Cl  Cl35      1.0  0.17776000000000006  0.09251  0.71117  1.0000
  Cl  Cl36      1.0  0.81619  0.08082  0.26528  1.0000
  Cl  Cl37      1.0  0.5619899999999998  0.68955  0.9864299999999999  1.0000
  Cl  Cl38      1.0  0.44192  0.69025  0.020609999999999996  1.0000
  Cl  Cl39      1.0  0.06316999999999998  0.18943  0.9888599999999999  1.0000
  Cl  Cl40      1.0  0.94261  0.1904  0.02206  1.0000
  Br  Br53      1.0  0.6767999999999998  0.60816  0.89509  1.0000
  Br  Br54      1.0  0.31311  0.60698  0.10256  1.0000
  Br  Br55      1.0  0.19979999999999998  0.10642  0.89849  1.0000
  Br  Br56      1.0  0.8229099999999999  0.10812000000000001  0.10480999999999997  1.0000
  Cl  Cl41      1.0  0.6539499999999999  0.56253  0.80117  1.0000
  Cl  Cl42      1.0  0.3379999999999999  0.56306  0.19994  1.0000
  Cl  Cl43      1.0  0.17165999999999998  0.0648  0.7965099999999999  1.0000
  Cl  Cl44      1.0  0.8458  0.06253  0.19880999999999996  1.0000
  Br  Br57      1.0  0.64459  0.62977  0.65931  1.0000
  Br  Br58      1.0  0.3653  0.63423  0.34966  1.0000
  Br  Br59      1.0  0.12059999999999998  0.13965  0.63945  1.0000
  Br  Br60      1.0  0.8556799999999999  0.1299  0.34093  1.0000
  Br  Br61      1.0  0.6404699999999999  0.68698  0.97739  1.0000
  Br  Br62      1.0  0.36084  0.68719  0.0253  1.0000
  Br  Br63      1.0  0.1415099999999999  0.18676  0.9796199999999999  1.0000
  Br  Br64      1.0  0.86148  0.18735  0.02666  1.0000
  Cl  Cl45      1.0  0.9795  0.87509  0.32839999999999997  1.0000
  Cl  Cl46      1.0  0.01482000000000004  0.88111  0.66058  1.0000
  Cl  Cl47      1.0  0.4852099999999999  0.37439  0.35295  1.0000
  Cl  Cl48      1.0  0.5209  0.37679  0.67501  1.0000
  Br  Br65      1.0  0.93507  0.81994  0.25113  1.0000
  Br  Br66      1.0  0.06574999999999996  0.8483100000000001  0.78054  1.0000
  Br  Br67      1.0  0.43931999999999993  0.34038  0.23537  1.0000
  Br  Br68      1.0  0.56461  0.32149  0.75199  1.0000
  Br  Br69      1.0  0.82885  0.89001  0.10662999999999999  1.0000
  Br  Br70      1.0  0.21326  0.89633  0.88551  1.0000
  Br  Br71      1.0  0.29867  0.39781  0.11145  1.0000
  Br  Br72      1.0  0.6748499999999998  0.3906200000000001  0.8945999999999997  1.0000
  Cl  Cl49      1.0  0.93203  0.92527  0.246  1.0000
  Cl  Cl50      1.0  0.07587000000000002  0.91954  0.76716  1.0000
  Cl  Cl51      1.0  0.43765  0.41290999999999994  0.2461  1.0000
  Cl  Cl52      1.0  0.57137  0.4267500000000001  0.75699  1.0000
