data_image0
_chemical_formula_structural       C108Cr12H48O80
_chemical_formula_sum              "C108 Cr12 H48 O80"
_cell_length_a       18.98882
_cell_length_b       10.93799
_cell_length_c       18.89502
_cell_angle_alpha    89.80053
_cell_angle_beta     90.2557
_cell_angle_gamma    90.13395

_symmetry_space_group_name_H-M    'P 1'
_symmetry_Int_Tables_number       1

loop_
  _symmetry_equiv_pos_as_xyz
  'x,y,z'

loop_
  _atom_site_type_symbol
  _atom_site_label
  _atom_site_symmetry_multiplicity
  _atom_site_fract_x
  _atom_site_fract_y
  _atom_site_fract_z
  _atom_site_occupancy
  C   C1        1.0  0.72825  0.95252  0.8518300000000001  1.0000
  C   C2        1.0  0.25166  0.3989400000000001  0.91827  1.0000
  C   C3        1.0  0.652  0.72008  0.05213  1.0000
  C   C4        1.0  0.5134899999999999  0.40809000000000006  0.55735  1.0000
  C   C5        1.0  0.56731  0.35223  0.41242  1.0000
  C   C6        1.0  0.01349  0.9080900000000001  0.55735  1.0000
  C   C7        1.0  0.06731  0.8522300000000002  0.41242  1.0000
  C   C8        1.0  0.45427999999999996  0.93639  0.43866000000000005  1.0000
  C   C9        1.0  0.4475199999999999  0.96901  0.58918  1.0000
  C   C10       1.0  0.95428  0.43639  0.43866000000000005  1.0000
  C   C11       1.0  0.9475199999999999  0.46901000000000004  0.58918  1.0000
  C   C12       1.0  0.26257  0.9307200000000001  0.07055  1.0000
  C   C13       1.0  0.75166  0.89894  0.91827  1.0000
  C   C14       1.0  0.82179  0.42092  0.026970000000000004  1.0000
  C   C15       1.0  0.20752999999999994  0.31475  0.9505800000000001  1.0000
  C   C16       1.0  0.32179  0.92092  0.026970000000000004  1.0000
  C   C17       1.0  0.70753  0.8147500000000001  0.9505800000000001  1.0000
  C   C18       1.0  0.81533  0.41952  0.9539100000000001  1.0000
  C   C19       1.0  0.21139  0.29328  0.02255  1.0000
  C   C20       1.0  0.31533  0.91952  0.9539100000000001  1.0000
  C   C21       1.0  0.27442  0.9584  0.14501  1.0000
  C   C22       1.0  0.71139  0.79328  0.02255  1.0000
  C   C23       1.0  0.7474  0.4204  0.92316  1.0000
  C   C24       1.0  0.26737  0.34781  0.06298  1.0000
  C   C25       1.0  0.2474  0.9204100000000001  0.92316  1.0000
  C   C26       1.0  0.7673699999999999  0.84781  0.06298  1.0000
  C   C27       1.0  0.51583  0.28111  0.52887  1.0000
  C   C28       1.0  0.52887  0.26193  0.45736  1.0000
  C   C29       1.0  0.01583  0.78111  0.52887  1.0000
  C   C30       1.0  0.028869999999999996  0.76193  0.45736  1.0000
  C   C31       1.0  0.5010699999999998  0.15645000000000003  0.42619  1.0000
  C   C32       1.0  0.22824999999999998  0.4525200000000001  0.8518300000000001  1.0000
  C   C33       1.0  0.4996399999999999  0.17829  0.57266  1.0000
  C   C34       1.0  0.0010699999999999998  0.65644  0.42619  1.0000
  C   C35       1.0  0.9996399999999999  0.67829  0.57266  1.0000
  C   C36       1.0  0.47835  0.05517000000000001  0.46899  1.0000
  C   C37       1.0  0.47619  0.06831  0.54291  1.0000
  C   C38       1.0  0.97835  0.55517  0.46899  1.0000
  C   C39       1.0  0.97619  0.56831  0.54291  1.0000
  C   C40       1.0  0.77911  0.29925  0.52553  1.0000
  C   C41       1.0  0.18519  0.40626  0.45397  1.0000
  C   C42       1.0  0.27911  0.79925  0.52553  1.0000
  C   C43       1.0  0.77442  0.4584  0.14501  1.0000
  C   C44       1.0  0.68519  0.9062600000000002  0.45397  1.0000
  C   C45       1.0  0.77492  0.31058  0.45214000000000004  1.0000
  C   C46       1.0  0.17621  0.4136600000000001  0.527  1.0000
  C   C47       1.0  0.27492  0.81058  0.45214000000000004  1.0000
  C   C48       1.0  0.6762  0.9136600000000002  0.527  1.0000
  C   C49       1.0  0.53126  0.17736000000000002  0.8516800000000001  1.0000
  C   C50       1.0  0.47063  0.17814  0.14957  1.0000
  C   C51       1.0  0.03126  0.6773600000000001  0.8516800000000001  1.0000
  C   C52       1.0  0.9706299999999999  0.67814  0.14957  1.0000
  C   C53       1.0  0.75068  0.4204900000000001  0.42322  1.0000
  C   C54       1.0  0.69585  0.43911000000000006  0.04063000000000001  1.0000
  C   C55       1.0  0.23597  0.43073  0.57127  1.0000
  C   C56       1.0  0.25068  0.92049  0.42322  1.0000
  C   C57       1.0  0.7359699999999999  0.93073  0.57127  1.0000
  C   C58       1.0  0.72154  0.51096  0.46693000000000007  1.0000
  C   C59       1.0  0.3030399999999999  0.43635000000000007  0.5426200000000001  1.0000
  C   C60       1.0  0.22154  0.01095  0.46693000000000007  1.0000
  C   C61       1.0  0.80304  0.93635  0.5426200000000001  1.0000
  C   C62       1.0  0.71985  0.49657  0.53992  1.0000
  C   C63       1.0  0.31214  0.43106000000000005  0.46998  1.0000
  C   C64       1.0  0.21984999999999996  0.99657  0.53992  1.0000
  C   C65       1.0  0.30821  0.44895  0.9554100000000001  1.0000
  C   C66       1.0  0.81214  0.9310700000000001  0.46998  1.0000
  C   C67       1.0  0.74777  0.3887200000000001  0.5697600000000003  1.0000
  C   C68       1.0  0.25278  0.4104800000000001  0.42527000000000004  1.0000
  C   C69       1.0  0.24776999999999996  0.88872  0.5697600000000003  1.0000
  C   C70       1.0  0.75278  0.91048  0.42527000000000004  1.0000
  C   C71       1.0  0.73807  0.36578  0.85257  1.0000
  C   C72       1.0  0.27418  0.31814  0.1392  1.0000
  C   C73       1.0  0.23806999999999998  0.8657800000000001  0.85257  1.0000
  C   C74       1.0  0.77418  0.8181400000000001  0.1392  1.0000
  C   C75       1.0  0.72551  0.95895  0.64566  1.0000
  C   C76       1.0  0.19585  0.93911  0.04063000000000001  1.0000
  C   C77       1.0  0.27166  0.95577  0.35232000000000013  1.0000
  C   C78       1.0  0.22551  0.45895  0.64566  1.0000
  C   C79       1.0  0.77166  0.45577000000000006  0.35232000000000013  1.0000
  C   C80       1.0  0.52892  0.17811  0.6446000000000001  1.0000
  C   C81       1.0  0.47075999999999996  0.17386  0.3554  1.0000
  C   C82       1.0  0.02892  0.67811  0.6446000000000001  1.0000
  C   C83       1.0  0.9707599999999998  0.67386  0.3554  1.0000
  C   C84       1.0  0.73878  0.35814000000000007  0.64461  1.0000
  C   C85       1.0  0.26148  0.36221  0.35398  1.0000
  C   C86       1.0  0.23878  0.85814  0.64461  1.0000
  C   C87       1.0  0.8082  0.9489500000000001  0.9554100000000001  1.0000
  C   C88       1.0  0.76148  0.8622100000000003  0.35398  1.0000
  C   C89       1.0  0.50251  0.16685  0.9232500000000001  1.0000
  C   C90       1.0  0.5054599999999999  0.17233  0.08076000000000001  1.0000
  C   C91       1.0  0.0025100000000000005  0.66685  0.9232500000000001  1.0000
  C   C92       1.0  0.00546  0.6723400000000002  0.08076000000000001  1.0000
  C   C93       1.0  0.50513  0.07046  0.04166  1.0000
  C   C94       1.0  0.52232  0.07376  0.96581  1.0000
  C   C95       1.0  0.00513  0.57046  0.04166  1.0000
  C   C96       1.0  0.02232  0.57376  0.96581  1.0000
  C   C97       1.0  0.68756  0.44074  0.9671  1.0000
  C   C98       1.0  0.76257  0.43072  0.07055  1.0000
  C   C99       1.0  0.31694  0.42513  0.027520000000000003  1.0000
  C   C100      1.0  0.18756  0.9407400000000001  0.9671  1.0000
  C   C101      1.0  0.8169399999999999  0.9251300000000001  0.027520000000000003  1.0000
  C   C102      1.0  0.6166699999999999  0.4702100000000001  0.93849  1.0000
  C   C103      1.0  0.37391  0.49428000000000005  0.06361  1.0000
  C   C104      1.0  0.11666999999999998  0.9702100000000002  0.93849  1.0000
  C   C105      1.0  0.8739099999999999  0.9942800000000002  0.06361  1.0000
  C   C106      1.0  0.8811500000000001  0.41895  0.9119  1.0000
  C   C107      1.0  0.152  0.22008  0.05213  1.0000
  C   C108      1.0  0.38115  0.91895  0.9119  1.0000
  Cr  Cr1       1.0  0.7692699999999999  0.16373000000000004  0.75071  1.0000
  Cr  Cr2       1.0  0.38584  0.3225  0.25229000000000007  1.0000
  Cr  Cr3       1.0  0.11415999999999998  0.8225000000000001  0.74771  1.0000
  Cr  Cr4       1.0  0.88584  0.8225000000000001  0.25229000000000007  1.0000
  Cr  Cr5       1.0  0.23072999999999996  0.16373000000000001  0.24929  1.0000
  Cr  Cr6       1.0  0.26927  0.6637300000000002  0.75071  1.0000
  Cr  Cr7       1.0  0.73073  0.6637300000000002  0.24929  1.0000
  Cr  Cr8       1.0  0.6126199999999999  0.009789999999999998  0.74878  1.0000
  Cr  Cr9       1.0  0.38737999999999995  0.00979  0.25122  1.0000
  Cr  Cr10      1.0  0.11261999999999998  0.50979  0.74878  1.0000
  Cr  Cr11      1.0  0.88738  0.50979  0.25122  1.0000
  Cr  Cr12      1.0  0.61416  0.3225  0.74771  1.0000
  H   H1        1.0  0.49146  0.98294  0.06512000000000001  1.0000
  H   H2        1.0  0.47254999999999997  0.24307000000000004  0.9441000000000003  1.0000
  H   H3        1.0  0.023349999999999996  0.7580200000000001  0.057730000000000004  1.0000
  H   H4        1.0  0.9725499999999999  0.74307  0.9441000000000003  1.0000
  H   H5        1.0  0.65065  0.45054  0.07478000000000003  1.0000
  H   H6        1.0  0.34238  0.51481  0.9295600000000002  1.0000
  H   H7        1.0  0.15065  0.95053  0.07478000000000003  1.0000
  H   H8        1.0  0.84238  0.01481  0.9295600000000002  1.0000
  H   H9        1.0  0.8741099999999999  0.42038  0.04986  1.0000
  H   H10       1.0  0.16529999999999997  0.27258  0.92036  1.0000
  H   H11       1.0  0.37411  0.9203800000000001  0.04986  1.0000
  H   H12       1.0  0.5512899999999998  0.9965800000000002  0.9447200000000001  1.0000
  H   H13       1.0  0.6653  0.77258  0.92036  1.0000
  H   H14       1.0  0.7754699999999999  0.22185000000000005  0.36303  1.0000
  H   H15       1.0  0.07552  0.37372000000000005  0.52228  1.0000
  H   H16       1.0  0.27547  0.72185  0.36303  1.0000
  H   H17       1.0  0.57552  0.87372  0.52228  1.0000
  H   H18       1.0  0.7097799999999999  0.5830000000000001  0.62937  1.0000
  H   H19       1.0  0.37790999999999997  0.50353  0.40548  1.0000
  H   H20       1.0  0.20978  0.083  0.62937  1.0000
  H   H21       1.0  0.87791  0.003540000000000002  0.40547  1.0000
  H   H22       1.0  0.61093  0.51702  0.88814  1.0000
  H   H23       1.0  0.9914599999999999  0.48294  0.06512000000000001  1.0000
  H   H24       1.0  0.36458999999999997  0.5407  0.11321  1.0000
  H   H25       1.0  0.11093  0.01702  0.88814  1.0000
  H   H26       1.0  0.86459  0.0407  0.11321  1.0000
  H   H27       1.0  0.92887  0.38045  0.93446  1.0000
  H   H28       1.0  0.15920999999999996  0.15808  0.09578000000000003  1.0000
  H   H29       1.0  0.4288699999999999  0.8804500000000002  0.93446  1.0000
  H   H30       1.0  0.65921  0.65808  0.09578000000000003  1.0000
  H   H31       1.0  0.47121  0.4334  0.5927300000000002  1.0000
  H   H32       1.0  0.6077899999999999  0.31967  0.37683  1.0000
  H   H33       1.0  0.97121  0.9334000000000001  0.5927300000000002  1.0000
  H   H34       1.0  0.05129  0.4965800000000001  0.9447200000000001  1.0000
  H   H35       1.0  0.10778999999999998  0.8196700000000002  0.37683  1.0000
  H   H36       1.0  0.40967  0.8891500000000001  0.4613  1.0000
  H   H37       1.0  0.45216  0.87372  0.5743  1.0000
  H   H38       1.0  0.90967  0.38915  0.4613  1.0000
  H   H39       1.0  0.95216  0.37372000000000005  0.5743  1.0000
  H   H40       1.0  0.8499499999999998  0.17160000000000003  0.52186  1.0000
  H   H41       1.0  0.10911  0.31157  0.41831000000000007  1.0000
  H   H42       1.0  0.34995  0.6716  0.52186  1.0000
  H   H43       1.0  0.60911  0.8115700000000001  0.41831000000000007  1.0000
  H   H44       1.0  0.7041  0.59742  0.44487  1.0000
  H   H45       1.0  0.34822999999999993  0.45115  0.57666  1.0000
  H   H46       1.0  0.20411  0.09742000000000002  0.44487  1.0000
  H   H47       1.0  0.84823  0.95115  0.57666  1.0000
  H   H48       1.0  0.52335  0.25802  0.057730000000000004  1.0000
  O   O1        1.0  0.78432  0.29043  0.83051  1.0000
  O   O2        1.0  0.45608  0.28218  0.3332100000000001  1.0000
  O   O3        1.0  0.04392  0.78218  0.66679  1.0000
  O   O4        1.0  0.9560799999999999  0.78218  0.3332100000000001  1.0000
  O   O5        1.0  0.67904  0.37416000000000005  0.67443  1.0000
  O   O6        1.0  0.32096  0.37416000000000005  0.3255700000000001  1.0000
  O   O7        1.0  0.17904  0.8741600000000002  0.67443  1.0000
  O   O8        1.0  0.82096  0.8741600000000002  0.3255700000000001  1.0000
  O   O9        1.0  0.66535  0.16534  0.7490700000000001  1.0000
  O   O10       1.0  0.33464999999999995  0.16534  0.25093  1.0000
  O   O11       1.0  0.16535  0.66534  0.7490700000000001  1.0000
  O   O12       1.0  0.21568  0.29043  0.16949  1.0000
  O   O13       1.0  0.83465  0.66534  0.25093  1.0000
  O   O14       1.0  0.76264  0.04096  0.8252  1.0000
  O   O15       1.0  0.23736  0.04096  0.1748  1.0000
  O   O16       1.0  0.26264  0.54096  0.8252  1.0000
  O   O17       1.0  0.73736  0.54096  0.1748  1.0000
  O   O18       1.0  0.6673999999999999  0.9239700000000002  0.82995  1.0000
  O   O19       1.0  0.3326  0.9239700000000002  0.17005  1.0000
  O   O20       1.0  0.1674  0.42397  0.82995  1.0000
  O   O21       1.0  0.8326  0.42397  0.17005  1.0000
  O   O22       1.0  0.55396  0.08134  0.82178  1.0000
  O   O23       1.0  0.28432  0.79043  0.83051  1.0000
  O   O24       1.0  0.44603999999999994  0.08134  0.17822  1.0000
  O   O25       1.0  0.05396  0.58134  0.82178  1.0000
  O   O26       1.0  0.9460399999999999  0.58134  0.17822  1.0000
  O   O27       1.0  0.54318  0.28324  0.82674  1.0000
  O   O28       1.0  0.45681999999999995  0.28324  0.17326  1.0000
  O   O29       1.0  0.04318  0.7832400000000002  0.82674  1.0000
  O   O30       1.0  0.95682  0.7832400000000002  0.17326  1.0000
  O   O31       1.0  0.67836  0.37514000000000003  0.82271  1.0000
  O   O32       1.0  0.32164  0.37514000000000003  0.17729000000000003  1.0000
  O   O33       1.0  0.17836  0.8751400000000001  0.82271  1.0000
  O   O34       1.0  0.71568  0.79043  0.16949  1.0000
  O   O35       1.0  0.8216399999999999  0.8751400000000001  0.17729000000000003  1.0000
  O   O36       1.0  0.78505  0.28938  0.67056  1.0000
  O   O37       1.0  0.21495  0.28938  0.32944  1.0000
  O   O38       1.0  0.28505  0.78938  0.67056  1.0000
  O   O39       1.0  0.71495  0.78938  0.32944  1.0000
  O   O40       1.0  0.76332  0.03999  0.67693  1.0000
  O   O41       1.0  0.23668  0.03999  0.32307  1.0000
  O   O42       1.0  0.26332  0.53999  0.67693  1.0000
  O   O43       1.0  0.7366799999999999  0.53999  0.32307  1.0000
  O   O44       1.0  0.66813  0.9229200000000002  0.67  1.0000
  O   O45       1.0  0.55464  0.08037  0.6735  1.0000
  O   O46       1.0  0.33186999999999994  0.9229200000000002  0.33  1.0000
  O   O47       1.0  0.16813  0.42292  0.67  1.0000
  O   O48       1.0  0.83187  0.42292  0.33  1.0000
  O   O49       1.0  0.79744  0.21469000000000002  0.4105300000000001  1.0000
  O   O50       1.0  0.1095  0.4094000000000001  0.55607  1.0000
  O   O51       1.0  0.29744  0.7146900000000002  0.4105300000000001  1.0000
  O   O52       1.0  0.6095  0.9094  0.55607  1.0000
  O   O53       1.0  0.6943  0.59249  0.57959  1.0000
  O   O54       1.0  0.37973999999999997  0.44408  0.4451  1.0000
  O   O55       1.0  0.1943  0.09248  0.57959  1.0000
  O   O56       1.0  0.44536  0.08037  0.3265  1.0000
  O   O57       1.0  0.87974  0.9440800000000003  0.4451  1.0000
  O   O58       1.0  0.56366  0.44623000000000007  0.9720900000000001  1.0000
  O   O59       1.0  0.43159999999999993  0.50522  0.03606  1.0000
  O   O60       1.0  0.06366  0.94623  0.9720900000000001  1.0000
  O   O61       1.0  0.9316  0.00522  0.03606  1.0000
  O   O62       1.0  0.8834400000000001  0.46538  0.85307  1.0000
  O   O63       1.0  0.0928  0.22826000000000002  0.02694  1.0000
  O   O64       1.0  0.38344  0.96538  0.85307  1.0000
  O   O65       1.0  0.5928  0.72826  0.02694  1.0000
  O   O66       1.0  0.56026  0.48197  0.54603  1.0000
  O   O67       1.0  0.054639999999999994  0.58037  0.6735  1.0000
  O   O68       1.0  0.55051  0.45982000000000006  0.4101100000000001  1.0000
  O   O69       1.0  0.06026  0.98197  0.54603  1.0000
  O   O70       1.0  0.05051  0.95983  0.4101100000000001  1.0000
  O   O71       1.0  0.48551  0.8877200000000001  0.39007000000000003  1.0000
  O   O72       1.0  0.41695999999999994  0.9933700000000002  0.64408  1.0000
  O   O73       1.0  0.9855099999999999  0.38771000000000005  0.39007000000000003  1.0000
  O   O74       1.0  0.91696  0.49337000000000003  0.64408  1.0000
  O   O75       1.0  0.8132199999999999  0.20007  0.55502  1.0000
  O   O76       1.0  0.12787  0.39511  0.40985  1.0000
  O   O77       1.0  0.31322  0.70007  0.55502  1.0000
  O   O78       1.0  0.9453599999999999  0.58037  0.3265  1.0000
  O   O79       1.0  0.62787  0.89511  0.40985  1.0000
  O   O80       1.0  0.54392  0.28218  0.66679  1.0000
