data_image0
_chemical_formula_structural       O3CO2CO2VOCOCVOC18H10C4HC18H10C2HC2HO3CO2CO2VOCOCVOC2H5CHOC2H5CHOC2H5
_chemical_formula_sum              "O22 C60 V4 H40"
_cell_length_a       7.00077
_cell_length_b       14.12599
_cell_length_c       17.88986
_cell_angle_alpha    111.98734
_cell_angle_beta     95.84509
_cell_angle_gamma    90.40377

_space_group_name_H-M_alt    "P 1"
_space_group_IT_number       1

loop_
  _space_group_symop_operation_xyz
  'x, y, z'

loop_
  _atom_site_type_symbol
  _atom_site_label
  _atom_site_symmetry_multiplicity
  _atom_site_fract_x
  _atom_site_fract_y
  _atom_site_fract_z
  _atom_site_occupancy
  O   O1        1.0  0.48455999999999994  0.5445300000000002  0.41433000000000003  1.0000
  O   O2        1.0  0.19703999999999994  0.63881  0.58508  1.0000
  O   O3        1.0  0.026799999999999997  0.45547  0.58567  1.0000
  C   C1        1.0  0.37521  0.67781  0.61035  1.0000
  O   O4        1.0  0.155  0.55615  0.41494  1.0000
  O   O5        1.0  0.9844499999999998  0.37222  0.41432  1.0000
  C   C2        1.0  0.3175899999999999  0.56468  0.38649  1.0000
  O   O6        1.0  0.5269  0.62778  0.58568  1.0000
  O   O7        1.0  0.3391699999999999  0.43975  0.49999  1.0000
  V   V1        1.0  0.06435  0.51118  0.5  1.0000
  O   O8        1.0  0.6548799999999998  0.36119  0.4149200000000001  1.0000
  C   C3        1.0  0.8169799999999998  0.32413  0.3871  1.0000
  O   O9        1.0  0.69693  0.44385  0.58506  1.0000
  C   C4        1.0  0.87262  0.41742000000000007  0.60225  1.0000
  V   V2        1.0  0.56434  0.48882  0.5  1.0000
  O   O10       1.0  0.83939  0.56025  0.50001  1.0000
  C   C5        1.0  0.04276000000000001  0.85733  0.81867  1.0000
  C   C6        1.0  0.9082399999999998  0.37661  0.66951  1.0000
  C   C7        1.0  0.9547199999999999  0.8137800000000001  0.6736900000000002  1.0000
  C   C8        1.0  0.02482000000000006  0.7873000000000001  0.7388700000000002  1.0000
  C   C9        1.0  0.015920000000000045  0.9591900000000002  0.8307100000000002  1.0000
  C   C10       1.0  0.9765299999999998  0.9909200000000004  0.7635000000000002  1.0000
  C   C11       1.0  0.9332499999999998  0.91596  0.68517  1.0000
  C   C12       1.0  0.9792899999999998  0.09449000000000014  0.7720700000000003  1.0000
  C   C13       1.0  0.9249499999999998  0.12483000000000001  0.70479  1.0000
  C   C14       1.0  0.87035  0.04660999999999994  0.62867  1.0000
  C   C15       1.0  0.87707  0.94387  0.61901  1.0000
  C   C16       1.0  0.039169999999999996  0.16849999999999996  0.84716  1.0000
  C   C17       1.0  0.027649999999999987  0.2682100000000001  0.8598  1.0000
  C   C18       1.0  0.9901899999999996  0.30368  0.79677  1.0000
  C   C19       1.0  0.9337499999999997  0.23207999999999995  0.71694  1.0000
  C   C20       1.0  0.010550000000000009  0.4093  0.81359  1.0000
  C   C21       1.0  0.9773399999999998  0.44512  0.74872  1.0000
  C   C22       1.0  0.88842  0.2708600000000001  0.6541900000000003  1.0000
  H   H1        1.0  0.8406300000000001  0.88565  0.55899  1.0000
  H   H2        1.0  0.8413399999999999  0.22046000000000004  0.59269  1.0000
  H   H3        1.0  0.05070000000000008  0.31446000000000024  0.9223300000000002  1.0000
  H   H4        1.0  0.9288799999999999  0.75533  0.61343  1.0000
  H   H5        1.0  0.07471999999999997  0.7129200000000002  0.72624  1.0000
  H   H6        1.0  0.02385000000000008  0.010600000000000056  0.8931600000000002  1.0000
  H   H7        1.0  0.82643  0.06267000000000002  0.57527  1.0000
  H   H8        1.0  0.09195999999999999  0.15289000000000008  0.89977  1.0000
  H   H9        1.0  0.10158999999999999  0.22692000000000004  0.30082  1.0000
  H   H10       1.0  0.83556  0.035660000000000004  0.18783  1.0000
  C   C23       1.0  0.13386  0.03671000000000004  0.18288000000000004  1.0000
  C   C24       1.0  0.9712399999999998  0.07775000000000003  0.21480000000000005  1.0000
  C   C25       1.0  0.8114099999999997  0.21767000000000006  0.32323  1.0000
  C   C26       1.0  0.9691899999999998  0.17959  0.2838  1.0000
  H   H11       1.0  0.27081  0.07859000000000001  0.20723  1.0000
  C   C27       1.0  0.41589  0.77867  0.68072  1.0000
  C   C28       1.0  0.5409099999999999  0.46178  0.85471  1.0000
  C   C29       1.0  0.53784  0.86569  0.82262  1.0000
  C   C30       1.0  0.4767299999999999  0.77635  0.75669  1.0000
  C   C31       1.0  0.41192  0.87543  0.67325  1.0000
  C   C32       1.0  0.46555999999999986  0.9696300000000002  0.74215  1.0000
  C   C33       1.0  0.5336399999999998  0.9614  0.8161  1.0000
  C   C34       1.0  0.45696999999999993  0.07117999999999995  0.74044  1.0000
  C   C35       1.0  0.5283099999999998  0.16280000000000014  0.8100800000000002  1.0000
  C   C36       1.0  0.6132099999999998  0.14433000000000007  0.87776  1.0000
  C   C37       1.0  0.60566  0.04817000000000002  0.88255  1.0000
  C   C38       1.0  0.3734899999999999  0.08261000000000007  0.67095  1.0000
  C   C39       1.0  0.36316  0.17652  0.66606  1.0000
  C   C40       1.0  0.4392899999999999  0.26659  0.72913  1.0000
  C   C41       1.0  0.51592  0.26607  0.80661  1.0000
  C   C42       1.0  0.42548999999999987  0.35812000000000005  0.71541  1.0000
  C   C43       1.0  0.45647  0.4511100000000001  0.77887  1.0000
  C   C44       1.0  0.56797  0.36853000000000014  0.8725300000000002  1.0000
  H   H12       1.0  0.6685800000000001  0.04070000000000015  0.9379100000000002  1.0000
  H   H13       1.0  0.41983999999999994  0.5194  0.76763  1.0000
  H   H14       1.0  0.27993  0.17702  0.61208  1.0000
  H   H15       1.0  0.58907  0.86003  0.8795500000000003  1.0000
  H   H16       1.0  0.4754699999999999  0.70442  0.76507  1.0000
  H   H17       1.0  0.37092  0.8741499999999999  0.61318  1.0000
  H   H18       1.0  0.6983  0.20067000000000007  0.92694  1.0000
  H   H19       1.0  0.3053599999999999  0.01980000000000006  0.61929  1.0000
  H   H20       1.0  0.33504  0.66466  0.19284  1.0000
  H   H21       1.0  0.6125999999999998  0.5888500000000002  0.3071  1.0000
  C   C45       1.0  0.31443999999999994  0.60117  0.31827  1.0000
  C   C46       1.0  0.4754499999999999  0.60907  0.28431  1.0000
  H   H22       1.0  0.7709999999999998  0.63528  0.20651  1.0000
  C   C47       1.0  0.63399  0.6548000000000002  0.18303  1.0000
  C   C48       1.0  0.47242  0.6450900000000002  0.21599  1.0000
  H   H23       1.0  0.17762999999999998  0.62118  0.29502  1.0000
  O   O11       1.0  0.42159999999999986  0.63043  0.91701  1.0000
  O   O12       1.0  0.7938399999999999  0.70219  0.08763  1.0000
  O   O13       1.0  0.96401  0.8861700000000002  0.08819  1.0000
  C   C49       1.0  0.6311799999999999  0.6929700000000001  0.11579  1.0000
  O   O14       1.0  0.75146  0.61951  0.9175  1.0000
  O   O15       1.0  0.9213299999999998  0.8029000000000002  0.91684  1.0000
  C   C50       1.0  0.57715  0.57532  0.91152  1.0000
  O   O16       1.0  0.4642899999999999  0.7137  0.08835000000000003  1.0000
  O   O17       1.0  0.6092  0.81852  0.00263  1.0000
  V   V3        1.0  0.8841399999999998  0.7471900000000001  0.002530000000000001  1.0000
  O   O18       1.0  0.25115  0.8146300000000001  0.9173400000000003  1.0000
  C   C51       1.0  0.07475000000000004  0.82319  0.8886500000000003  1.0000
  O   O19       1.0  0.29353  0.89731  0.08747000000000003  1.0000
  C   C52       1.0  0.13111999999999996  0.93383  0.11545000000000001  1.0000
  V   V4        1.0  0.3840699999999999  0.7697100000000002  0.00237  1.0000
  O   O20       1.0  0.10918  0.6981900000000001  0.002460000000000001  1.0000
  C   C53       1.0  0.031229999999999987  0.48458  0.90143  1.0000
  C   C54       1.0  0.19151  0.48068000000000005  0.9636700000000002  1.0000
  H   H24       1.0  0.13268  0.4661300000000001  0.01407  1.0000
  H   H25       1.0  0.27888  0.41993000000000014  0.9324  1.0000
  H   H26       1.0  0.28229999999999994  0.5509700000000001  0.99334  1.0000
  H   H27       1.0  0.045679999999999964  0.55796  0.90079  1.0000
  H   H28       1.0  0.8995399999999998  0.47893000000000013  0.9267200000000002  1.0000
  C   C55       1.0  0.6290399999999998  0.15530000000000005  0.30803000000000014  1.0000
  H   H29       1.0  0.49386999999999986  0.19287  0.3168  1.0000
  O   O21       1.0  0.62817  0.06317  0.29113  1.0000
  C   C56       1.0  0.63624  0.3858400000000001  0.96196  1.0000
  C   C57       1.0  0.50453  0.3442000000000001  0.00791  1.0000
  H   H30       1.0  0.4338499999999998  0.40741  0.05244  1.0000
  H   H31       1.0  0.39309  0.28755000000000003  0.9664800000000002  1.0000
  H   H32       1.0  0.5912699999999997  0.30775  0.04435  1.0000
  H   H33       1.0  0.7799699999999999  0.35711  0.96703  1.0000
  H   H34       1.0  0.65889  0.46879000000000004  0.99887  1.0000
  C   C58       1.0  0.38542  0.3637500000000001  0.63448  1.0000
  H   H35       1.0  0.34567000000000003  0.43613  0.6319600000000001  1.0000
  O   O22       1.0  0.41645999999999994  0.29429  0.57198  1.0000
  C   C59       1.0  0.006449999999999995  0.55695  0.7605  1.0000
  C   C60       1.0  0.8138800000000002  0.6019300000000002  0.74604  1.0000
  H   H36       1.0  0.80567  0.61965  0.69065  1.0000
  H   H37       1.0  0.6933700000000002  0.5478500000000002  0.7359400000000003  1.0000
  H   H38       1.0  0.78952  0.6712500000000001  0.79772  1.0000
  H   H39       1.0  0.08929000000000005  0.60934  0.8163400000000002  1.0000
  H   H40       1.0  0.10602  0.56038  0.71769  1.0000
