data_image0
_chemical_formula_structural       C120Cr12H132O52Cl8C6H5C6H5C6H5C6H5
_chemical_formula_sum              "C144 Cr12 H152 O52 Cl8"
_cell_length_a       19.84129
_cell_length_b       11.44292
_cell_length_c       18.728940000000005
_cell_angle_alpha    89.99881
_cell_angle_beta     89.89225
_cell_angle_gamma    89.99973

_space_group_name_H-M_alt    "P 1"
_space_group_IT_number       1

loop_
  _space_group_symop_operation_xyz
  'x, y, z'

loop_
  _atom_site_type_symbol
  _atom_site_label
  _atom_site_symmetry_multiplicity
  _atom_site_fract_x
  _atom_site_fract_y
  _atom_site_fract_z
  _atom_site_occupancy
  C   C1        1.0  0.7613000000000001  0.52559  0.64002  1.0000
  C   C2        1.0  0.23869  0.52559  0.35998  1.0000
  C   C3        1.0  0.26198  0.021290000000000003  0.63854  1.0000
  C   C4        1.0  0.73801  0.02128  0.36146  1.0000
  C   C5        1.0  0.81382  0.12152000000000002  0.4518400000000001  1.0000
  C   C6        1.0  0.18614  0.12146000000000003  0.5481599999999999  1.0000
  C   C7        1.0  0.31399000000000005  0.62357  0.45104  1.0000
  C   C8        1.0  0.6860100000000001  0.62357  0.54896  1.0000
  C   C9        1.0  0.74697  0.05578  0.43762  1.0000
  C   C10       1.0  0.25301  0.05578  0.56238  1.0000
  C   C11       1.0  0.24618  0.56184  0.43595  1.0000
  C   C12       1.0  0.75381  0.56184  0.56405  1.0000
  C   C13       1.0  0.75811  0.08958  0.57585  1.0000
  C   C14       1.0  0.24189000000000002  0.08957000000000002  0.42414999999999997  1.0000
  C   C15       1.0  0.25714  0.59119  0.57494  1.0000
  C   C16       1.0  0.74286  0.59119  0.42506  1.0000
  C   C17       1.0  0.7414300000000001  0.9624400000000001  0.56432  1.0000
  C   C18       1.0  0.25859  0.9624400000000001  0.43569  1.0000
  C   C19       1.0  0.24202  0.46344  0.56149  1.0000
  C   C20       1.0  0.75798  0.46344  0.43851  1.0000
  C   C21       1.0  0.82416  0.11990000000000002  0.53392  1.0000
  C   C22       1.0  0.17583  0.11987000000000002  0.46607  1.0000
  C   C23       1.0  0.32183  0.62582  0.53301  1.0000
  C   C24       1.0  0.67817  0.62582  0.46698  1.0000
  C   C25       1.0  0.00996  0.21388000000000001  0.46048  1.0000
  C   C26       1.0  0.9900200000000001  0.21388000000000001  0.53951  1.0000
  C   C27       1.0  0.5134  0.71201  0.46193  1.0000
  C   C28       1.0  0.48657  0.71202  0.53805  1.0000
  C   C29       1.0  0.07505  0.3905100000000001  0.49043  1.0000
  C   C30       1.0  0.92495  0.39053000000000004  0.50957  1.0000
  C   C31       1.0  0.56383  0.9105  0.47532  1.0000
  C   C32       1.0  0.43615  0.9105500000000002  0.52464  1.0000
  C   C33       1.0  0.96047  0.41136  0.43903  1.0000
  C   C34       1.0  0.03953000000000001  0.41134000000000004  0.56097  1.0000
  C   C35       1.0  0.44263  0.88598  0.4441899999999999  1.0000
  C   C36       1.0  0.55734  0.88598  0.55578  1.0000
  C   C37       1.0  0.025860000000000005  0.33818000000000004  0.43573999999999996  1.0000
  C   C38       1.0  0.97413  0.33818000000000004  0.56425  1.0000
  C   C39       1.0  0.5128300000000001  0.83595  0.43149  1.0000
  C   C40       1.0  0.48713000000000006  0.8359700000000002  0.56847  1.0000
  C   C41       1.0  0.8070600000000001  0.00053  0.04186  1.0000
  C   C42       1.0  0.19294  0.00054  0.9581399999999999  1.0000
  C   C43       1.0  0.30717  0.50071  0.04189  1.0000
  C   C44       1.0  0.69283  0.50071  0.95811  1.0000
  C   C45       1.0  0.77319  0.11949  0.65095  1.0000
  C   C46       1.0  0.22681000000000007  0.11949  0.34905  1.0000
  C   C47       1.0  0.2731  0.61968  0.65057  1.0000
  C   C48       1.0  0.7269  0.61968  0.34943  1.0000
  C   C49       1.0  0.81744  0.02609  0.9641399999999999  1.0000
  C   C50       1.0  0.18256000000000003  0.0261  0.03586  1.0000
  C   C51       1.0  0.31749  0.52614  0.9641499999999998  1.0000
  C   C52       1.0  0.68251  0.52614  0.03585  1.0000
  C   C53       1.0  0.68158  0.02857  0.03042  1.0000
  C   C54       1.0  0.31842000000000004  0.028580000000000005  0.96958  1.0000
  C   C55       1.0  0.18163000000000007  0.52855  0.030439999999999995  1.0000
  C   C56       1.0  0.81837  0.52855  0.9695600000000001  1.0000
  C   C57       1.0  0.75655  0.19542  0.059989999999999995  1.0000
  C   C58       1.0  0.24345  0.19542  0.9400099999999999  1.0000
  C   C59       1.0  0.25646  0.6954900000000002  0.05995  1.0000
  C   C60       1.0  0.7435400000000001  0.6954900000000002  0.94004  1.0000
  C   C61       1.0  0.74571  0.06509  0.07332  1.0000
  C   C62       1.0  0.25429  0.0651  0.92668  1.0000
  C   C63       1.0  0.24574  0.56515  0.07333  1.0000
  C   C64       1.0  0.75426  0.56515  0.92667  1.0000
  C   C65       1.0  0.75849  0.10003  0.93443  1.0000
  C   C66       1.0  0.24151000000000003  0.10004000000000002  0.06557  1.0000
  C   C67       1.0  0.2585  0.59997  0.93442  1.0000
  C   C68       1.0  0.7415  0.59998  0.06558  1.0000
  C   C69       1.0  0.69438  0.027620000000000002  0.94803  1.0000
  C   C70       1.0  0.30562  0.027620000000000002  0.05197  1.0000
  C   C71       1.0  0.19442  0.52748  0.94805  1.0000
  C   C72       1.0  0.8055700000000001  0.52749  0.05195  1.0000
  C   C73       1.0  0.74983  0.21456000000000003  0.9785800000000001  1.0000
  C   C74       1.0  0.25017  0.21457  0.02141  1.0000
  C   C75       1.0  0.24981  0.7145100000000001  0.97853  1.0000
  C   C76       1.0  0.75019  0.71452  0.02146  1.0000
  C   C77       1.0  0.00536  0.47691000000000006  0.03992  1.0000
  C   C78       1.0  0.99462  0.47691000000000006  0.96009  1.0000
  C   C79       1.0  0.5055000000000001  0.9768700000000001  0.03989  1.0000
  C   C80       1.0  0.49450000000000005  0.9768700000000001  0.96011  1.0000
  C   C81       1.0  0.06421  0.27619  0.02465  1.0000
  C   C82       1.0  0.9358  0.27617  0.97535  1.0000
  C   C83       1.0  0.56415  0.77583  0.02449  1.0000
  C   C84       1.0  0.43585000000000007  0.77583  0.97551  1.0000
  C   C85       1.0  0.9432000000000003  0.2943  0.05698  1.0000
  C   C86       1.0  0.05680000000000001  0.29433000000000004  0.9430299999999999  1.0000
  C   C87       1.0  0.44316000000000005  0.79463  0.057139999999999996  1.0000
  C   C88       1.0  0.55683  0.79462  0.94286  1.0000
  C   C89       1.0  0.94673  0.34514000000000006  0.63778  1.0000
  C   C90       1.0  0.053270000000000005  0.34514000000000006  0.36222  1.0000
  C   C91       1.0  0.46721000000000007  0.8428700000000001  0.6444  1.0000
  C   C92       1.0  0.5327400000000001  0.8428600000000002  0.35556  1.0000
  C   C93       1.0  0.01211  0.35045  0.06901  1.0000
  C   C94       1.0  0.98789  0.35046  0.931  1.0000
  C   C95       1.0  0.51219  0.85041  0.06898  1.0000
  C   C96       1.0  0.4878100000000001  0.8504  0.9310200000000001  1.0000
  C   C97       1.0  0.7612500000000001  0.5315  0.8495099999999999  1.0000
  C   C98       1.0  0.23875  0.5315  0.15049  1.0000
  C   C99       1.0  0.26127000000000006  0.03145  0.84952  1.0000
  C   C100      1.0  0.7387300000000001  0.03145  0.15047  1.0000
  C   C101      1.0  0.77351  0.13099  0.8578799999999999  1.0000
  C   C102      1.0  0.22649000000000002  0.13099  0.14212  1.0000
  C   C103      1.0  0.2735  0.63094  0.8578699999999999  1.0000
  C   C104      1.0  0.7265  0.63095  0.14213  1.0000
  C   C105      1.0  0.96625  0.35355  0.85472  1.0000
  C   C106      1.0  0.03375  0.35355  0.14528  1.0000
  C   C107      1.0  0.46610000000000007  0.85357  0.8547799999999999  1.0000
  C   C108      1.0  0.5339  0.85357  0.14522  1.0000
  C   C109      1.0  0.6894  0.13569  0.46418  1.0000
  C   C110      1.0  0.31057  0.13572  0.53584  1.0000
  C   C111      1.0  0.19015  0.64672  0.46301  1.0000
  C   C112      1.0  0.8098400000000001  0.64673  0.53699  1.0000
  C   C113      1.0  0.69913  0.16144  0.54384  1.0000
  C   C114      1.0  0.30084  0.16146000000000002  0.4561700000000001  1.0000
  C   C115      1.0  0.19668  0.66181  0.54475  1.0000
  C   C116      1.0  0.80332  0.66182  0.45524999999999993  1.0000
  C   C117      1.0  0.74875  0.9416400000000001  0.48386  1.0000
  C   C118      1.0  0.25125  0.9416400000000001  0.5161499999999999  1.0000
  C   C119      1.0  0.24488000000000001  0.4469500000000001  0.4803  1.0000
  C   C120      1.0  0.75512  0.4469500000000001  0.5197  1.0000
  Cr  Cr1       1.0  0.88569  0.49286  0.74531  1.0000
  Cr  Cr2       1.0  0.11431  0.49286  0.25469  1.0000
  Cr  Cr3       1.0  0.38569  0.99286  0.74531  1.0000
  Cr  Cr4       1.0  0.61431  0.99286  0.25469  1.0000
  Cr  Cr5       1.0  0.7298800000000001  0.33227  0.74819  1.0000
  Cr  Cr6       1.0  0.27012  0.33227  0.25181  1.0000
  Cr  Cr7       1.0  0.22988000000000003  0.83227  0.74819  1.0000
  Cr  Cr8       1.0  0.77012  0.83227  0.25181  1.0000
  Cr  Cr9       1.0  0.8881200000000001  0.17859  0.75301  1.0000
  Cr  Cr10      1.0  0.11188  0.17859  0.24699  1.0000
  Cr  Cr11      1.0  0.38812  0.67859  0.75301  1.0000
  Cr  Cr12      1.0  0.61188  0.67859  0.24699  1.0000
  H   H1        1.0  0.64065  0.0949  0.45486999999999994  1.0000
  H   H2        1.0  0.35934  0.09495  0.54516  1.0000
  H   H3        1.0  0.13883  0.62421  0.44658999999999993  1.0000
  H   H4        1.0  0.86117  0.62422  0.55341  1.0000
  H   H5        1.0  0.86156  0.05307  0.54907  1.0000
  H   H6        1.0  0.13844  0.05306  0.45087999999999995  1.0000
  H   H7        1.0  0.3608  0.5625900000000001  0.54991  1.0000
  H   H8        1.0  0.63919  0.5625900000000001  0.45008000000000004  1.0000
  H   H9        1.0  0.80008  0.9088100000000002  0.47902  1.0000
  H   H10       1.0  0.19993  0.9088000000000003  0.52097  1.0000
  H   H11       1.0  0.29480000000000006  0.41089000000000003  0.47174  1.0000
  H   H12       1.0  0.7052  0.41089000000000003  0.52826  1.0000
  H   H13       1.0  0.77664  0.90704  0.59536  1.0000
  H   H14       1.0  0.22339000000000003  0.90702  0.40464  1.0000
  H   H15       1.0  0.27999000000000007  0.4073700000000001  0.58845  1.0000
  H   H16       1.0  0.72002  0.4073700000000001  0.41155  1.0000
  H   H17       1.0  0.04904  0.14975  0.4492999999999999  1.0000
  H   H18       1.0  0.9509500000000001  0.14974  0.55071  1.0000
  H   H19       1.0  0.56305  0.6807  0.46441999999999994  1.0000
  H   H20       1.0  0.43695  0.6806400000000001  0.53559  1.0000
  H   H21       1.0  0.9680100000000003  0.18834  0.42918  1.0000
  H   H22       1.0  0.03198  0.18833  0.57081  1.0000
  H   H23       1.0  0.48807  0.65097  0.42747  1.0000
  H   H24       1.0  0.5119300000000001  0.6510500000000001  0.57253  1.0000
  H   H25       1.0  0.61469  0.8946100000000001  0.45641  1.0000
  H   H26       1.0  0.38529  0.89468  0.54354  1.0000
  H   H27       1.0  0.11538000000000001  0.33075000000000004  0.50393  1.0000
  H   H28       1.0  0.88462  0.33077000000000006  0.49606000000000006  1.0000
  H   H29       1.0  0.59622  0.82333  0.57345  1.0000
  H   H30       1.0  0.40375000000000005  0.82331  0.42655  1.0000
  H   H31       1.0  0.07367  0.39093000000000006  0.60653  1.0000
  H   H32       1.0  0.92633  0.39098000000000005  0.39347  1.0000
  H   H33       1.0  0.97531  0.50458  0.43651999999999996  1.0000
  H   H34       1.0  0.0247  0.50456  0.5634899999999999  1.0000
  H   H35       1.0  0.43628000000000006  0.9662000000000001  0.41295  1.0000
  H   H36       1.0  0.56368  0.96623  0.58699  1.0000
  H   H37       1.0  0.9038900000000001  0.47124  0.5296  1.0000
  H   H38       1.0  0.0961  0.47123000000000004  0.4704  1.0000
  H   H39       1.0  0.4487200000000001  0.00389  0.53347  1.0000
  H   H40       1.0  0.55127  0.00385  0.46647  1.0000
  H   H41       1.0  0.79976  0.9092700000000002  0.04932  1.0000
  H   H42       1.0  0.20024999999999998  0.9092700000000002  0.95069  1.0000
  H   H43       1.0  0.30004  0.4093800000000001  0.04945  1.0000
  H   H44       1.0  0.69997  0.4093800000000001  0.95056  1.0000
  H   H45       1.0  0.68838  0.21852000000000002  0.43337999999999993  1.0000
  H   H46       1.0  0.31156  0.21856  0.56663  1.0000
  H   H47       1.0  0.19657  0.7323900000000002  0.43703  1.0000
  H   H48       1.0  0.8034200000000001  0.7324000000000002  0.56297  1.0000
  H   H49       1.0  0.85337  0.01554  0.07143  1.0000
  H   H50       1.0  0.14662  0.01552  0.92857  1.0000
  H   H51       1.0  0.35350000000000004  0.51612  0.07138  1.0000
  H   H52       1.0  0.6465000000000001  0.51611  0.9286199999999999  1.0000
  H   H53       1.0  0.86552  0.07168  0.9581000000000001  1.0000
  H   H54       1.0  0.13448  0.07168  0.0419  1.0000
  H   H55       1.0  0.36556  0.57177  0.9580200000000001  1.0000
  H   H56       1.0  0.63444  0.57177  0.04198  1.0000
  H   H57       1.0  0.82236  0.9424400000000002  0.93424  1.0000
  H   H58       1.0  0.17764  0.9424400000000002  0.06577  1.0000
  H   H59       1.0  0.3224000000000001  0.44243000000000005  0.93429  1.0000
  H   H60       1.0  0.6776000000000001  0.44244000000000006  0.06571  1.0000
  H   H61       1.0  0.66159  0.94607  0.0497  1.0000
  H   H62       1.0  0.33841  0.94607  0.9503000000000001  1.0000
  H   H63       1.0  0.16169  0.44612  0.04979999999999999  1.0000
  H   H64       1.0  0.83831  0.44612  0.9501999999999999  1.0000
  H   H65       1.0  0.7013800000000001  0.9369700000000001  0.9284699999999999  1.0000
  H   H66       1.0  0.29862000000000005  0.9369700000000001  0.07154  1.0000
  H   H67       1.0  0.20143000000000005  0.43681000000000003  0.92853  1.0000
  H   H68       1.0  0.79857  0.43681000000000003  0.07147  1.0000
  H   H69       1.0  0.71822  0.24797000000000005  0.08912  1.0000
  H   H70       1.0  0.28178  0.24797000000000005  0.9108699999999998  1.0000
  H   H71       1.0  0.21804  0.74794  0.08903  1.0000
  H   H72       1.0  0.78195  0.74794  0.91096  1.0000
  H   H73       1.0  0.80666  0.22356000000000006  0.07893  1.0000
  H   H74       1.0  0.19334  0.22357000000000002  0.92107  1.0000
  H   H75       1.0  0.30651000000000006  0.72385  0.07893  1.0000
  H   H76       1.0  0.69348  0.72385  0.92107  1.0000
  H   H77       1.0  0.7819200000000001  0.2853  0.95979  1.0000
  H   H78       1.0  0.21808  0.28531  0.0402  1.0000
  H   H79       1.0  0.28195  0.78519  0.95975  1.0000
  H   H80       1.0  0.71805  0.7852  0.04024  1.0000
  H   H81       1.0  0.69672  0.2401  0.96987  1.0000
  H   H82       1.0  0.30328  0.24011  0.03013  1.0000
  H   H83       1.0  0.19668  0.73999  0.9697499999999999  1.0000
  H   H84       1.0  0.80331  0.74  0.03024  1.0000
  H   H85       1.0  0.64352  0.09678000000000003  0.04145  1.0000
  H   H86       1.0  0.35648  0.09679  0.95855  1.0000
  H   H87       1.0  0.14348  0.59664  0.04143  1.0000
  H   H88       1.0  0.8565100000000001  0.59665  0.9585699999999999  1.0000
  H   H89       1.0  0.7166  0.24771000000000004  0.54949  1.0000
  H   H90       1.0  0.28336000000000006  0.24771000000000004  0.45051  1.0000
  H   H91       1.0  0.20786  0.74998  0.55731  1.0000
  H   H92       1.0  0.79212  0.75  0.4427  1.0000
  H   H93       1.0  0.65079  0.06613  0.91932  1.0000
  H   H94       1.0  0.3492100000000001  0.06614  0.08068  1.0000
  H   H95       1.0  0.15082  0.56592  0.9193099999999998  1.0000
  H   H96       1.0  0.8491700000000001  0.56593  0.08069  1.0000
  H   H97       1.0  0.04909000000000001  0.53027  0.05259  1.0000
  H   H98       1.0  0.95089  0.53026  0.94741  1.0000
  H   H99       1.0  0.5493  0.03004  0.05242  1.0000
  H   H100      1.0  0.45070000000000005  0.03004  0.9475799999999999  1.0000
  H   H101      1.0  0.96264  0.5225  0.06642  1.0000
  H   H102      1.0  0.03734  0.52251  0.93359  1.0000
  H   H103      1.0  0.46292  0.02269  0.06652  1.0000
  H   H104      1.0  0.53708  0.02269  0.93348  1.0000
  H   H105      1.0  0.6153100000000001  0.7871300000000001  0.04253  1.0000
  H   H106      1.0  0.38468  0.7871400000000001  0.9574799999999999  1.0000
  H   H107      1.0  0.11534000000000001  0.28779  0.042629999999999994  1.0000
  H   H108      1.0  0.88466  0.28778  0.9573699999999999  1.0000
  H   H109      1.0  0.5974  0.85243  0.9228399999999999  1.0000
  H   H110      1.0  0.4026  0.85244  0.07716  1.0000
  H   H111      1.0  0.09749  0.35156  0.92263  1.0000
  H   H112      1.0  0.90251  0.3515100000000001  0.07738  1.0000
  H   H113      1.0  0.94678  0.1836  0.9639  1.0000
  H   H114      1.0  0.05323000000000001  0.18361  0.0361  1.0000
  H   H115      1.0  0.44714  0.6832300000000001  0.96434  1.0000
  H   H116      1.0  0.55285  0.68322  0.03566  1.0000
  H   H117      1.0  0.71484  0.87425  0.46514  1.0000
  H   H118      1.0  0.28514  0.87425  0.53489  1.0000
  H   H119      1.0  0.20697000000000002  0.38537000000000005  0.46041999999999994  1.0000
  H   H120      1.0  0.7930200000000001  0.38536000000000004  0.53959  1.0000
  H   H121      1.0  0.6898  0.94216  0.58289  1.0000
  H   H122      1.0  0.31022  0.94219  0.41712999999999995  1.0000
  H   H123      1.0  0.19195  0.43839  0.58291  1.0000
  H   H124      1.0  0.8080500000000002  0.4384000000000001  0.41709  1.0000
  H   H125      1.0  0.80671  0.21453000000000003  0.43621  1.0000
  H   H126      1.0  0.19322  0.21447  0.56383  1.0000
  H   H127      1.0  0.3089  0.71594  0.43353  1.0000
  H   H128      1.0  0.6910900000000001  0.71594  0.56646  1.0000
  H   H129      1.0  0.84228  0.20395000000000002  0.55392  1.0000
  H   H130      1.0  0.15772  0.20394  0.44607  1.0000
  H   H131      1.0  0.3364  0.71457  0.54983  1.0000
  H   H132      1.0  0.66361  0.71457  0.45016  1.0000
  O   O1        1.0  0.9572100000000001  0.44941  0.66548  1.0000
  O   O2        1.0  0.04279000000000001  0.44941  0.33451999999999993  1.0000
  O   O3        1.0  0.45721  0.94941  0.66548  1.0000
  O   O4        1.0  0.54279  0.94941  0.33451999999999993  1.0000
  O   O5        1.0  0.7362600000000001  0.21201000000000003  0.82656  1.0000
  O   O6        1.0  0.26374000000000003  0.21201000000000003  0.17344  1.0000
  O   O7        1.0  0.23626000000000003  0.71201  0.82656  1.0000
  O   O8        1.0  0.76374  0.71201  0.17344  1.0000
  O   O9        1.0  0.8325200000000001  0.0953  0.836  1.0000
  O   O10       1.0  0.16748000000000002  0.0953  0.164  1.0000
  O   O11       1.0  0.33252  0.5953  0.836  1.0000
  O   O12       1.0  0.66748  0.5953  0.164  1.0000
  O   O13       1.0  0.94638  0.25394  0.82694  1.0000
  O   O14       1.0  0.05362000000000001  0.25394  0.17306  1.0000
  O   O15       1.0  0.44638  0.7539400000000002  0.82694  1.0000
  O   O16       1.0  0.55362  0.7539400000000002  0.17306  1.0000
  O   O17       1.0  0.83456  0.33457  0.74884  1.0000
  O   O18       1.0  0.16544  0.33457  0.25116  1.0000
  O   O19       1.0  0.3345600000000001  0.83457  0.74884  1.0000
  O   O20       1.0  0.66544  0.83457  0.25116  1.0000
  O   O21       1.0  0.82073  0.54124  0.66825  1.0000
  O   O22       1.0  0.17927000000000004  0.54124  0.33175  1.0000
  O   O23       1.0  0.32073  0.04124  0.66825  1.0000
  O   O24       1.0  0.6792700000000002  0.04124  0.33175  1.0000
  O   O25       1.0  0.7142400000000001  0.45506  0.66371  1.0000
  O   O26       1.0  0.28576  0.45506  0.33629  1.0000
  O   O27       1.0  0.21424000000000004  0.9550600000000001  0.66371  1.0000
  O   O28       1.0  0.78576  0.9550600000000001  0.33629  1.0000
  O   O29       1.0  0.73678  0.20487000000000002  0.67591  1.0000
  O   O30       1.0  0.26322  0.20487000000000002  0.32409  1.0000
  O   O31       1.0  0.23678  0.7048700000000001  0.67591  1.0000
  O   O32       1.0  0.76322  0.7048700000000001  0.32409  1.0000
  O   O33       1.0  0.83307  0.08759000000000003  0.6734899999999999  1.0000
  O   O34       1.0  0.16693000000000002  0.08759000000000003  0.32651  1.0000
  O   O35       1.0  0.33307000000000003  0.58759  0.6734899999999999  1.0000
  O   O36       1.0  0.66693  0.58759  0.32651  1.0000
  O   O37       1.0  0.9468900000000001  0.24680000000000002  0.6763  1.0000
  O   O38       1.0  0.053110000000000004  0.24680000000000002  0.3237  1.0000
  O   O39       1.0  0.44689000000000006  0.7468  0.6763  1.0000
  O   O40       1.0  0.55311  0.7468  0.3237  1.0000
  O   O41       1.0  0.95665  0.45712  0.82798  1.0000
  O   O42       1.0  0.04335  0.45712  0.17202  1.0000
  O   O43       1.0  0.45665  0.9571200000000002  0.82798  1.0000
  O   O44       1.0  0.5433500000000001  0.9571200000000002  0.17202  1.0000
  O   O45       1.0  0.8202200000000001  0.54839  0.81889  1.0000
  O   O46       1.0  0.17978  0.54839  0.18111  1.0000
  O   O47       1.0  0.32022000000000006  0.048390000000000016  0.81889  1.0000
  O   O48       1.0  0.67978  0.048390000000000016  0.18111  1.0000
  O   O49       1.0  0.71368  0.46277  0.82621  1.0000
  O   O50       1.0  0.28632  0.46277  0.17379  1.0000
  O   O51       1.0  0.21368000000000004  0.96277  0.82621  1.0000
  O   O52       1.0  0.78632  0.96277  0.17379  1.0000
  Cl  Cl1       1.0  0.9371900000000001  0.16014  0.10462  1.0000
  Cl  Cl2       1.0  0.06284  0.16019  0.89538  1.0000
  Cl  Cl3       1.0  0.4365800000000001  0.66144  0.10587  1.0000
  Cl  Cl4       1.0  0.56341  0.66143  0.89414  1.0000
  Cl  Cl5       1.0  0.62107  0.16143  0.59161  1.0000
  Cl  Cl6       1.0  0.37892  0.16149  0.40842  1.0000
  Cl  Cl7       1.0  0.11924  0.6447300000000001  0.59154  1.0000
  Cl  Cl8       1.0  0.88076  0.64477  0.40845999999999993  1.0000
  C   C121      1.0  0.8731600000000002  0.07487  0.40757  1.0000
  C   C122      1.0  0.91426  0.9788000000000002  0.42793999999999993  1.0000
  C   C123      1.0  0.96557  0.9386800000000001  0.38299  1.0000
  C   C124      1.0  0.97674  0.9919700000000002  0.31713  1.0000
  C   C125      1.0  0.93651  0.08552  0.29587  1.0000
  C   C126      1.0  0.8850900000000002  0.12666  0.34012  1.0000
  H   H133      1.0  0.90851  0.9338500000000001  0.4781599999999999  1.0000
  H   H134      1.0  0.9969800000000001  0.86622  0.39949  1.0000
  H   H135      1.0  0.01691  0.96132  0.28273  1.0000
  H   H136      1.0  0.9461  0.12807  0.24567  1.0000
  H   H137      1.0  0.8546200000000002  0.19938  0.32203  1.0000
  C   C127      1.0  0.12678000000000003  0.07467000000000001  0.59239  1.0000
  C   C128      1.0  0.08568  0.97862  0.57191  1.0000
  C   C129      1.0  0.03432  0.9384200000000001  0.6168  1.0000
  C   C130      1.0  0.02312  0.99158  0.68269  1.0000
  C   C131      1.0  0.06335  0.08509  0.70407  1.0000
  C   C132      1.0  0.11483000000000002  0.12633  0.6598799999999999  1.0000
  H   H138      1.0  0.09147000000000001  0.93376  0.52166  1.0000
  H   H139      1.0  0.0029100000000000003  0.86598  0.6002  1.0000
  H   H140      1.0  0.98291  0.96086  0.71704  1.0000
  H   H141      1.0  0.05374000000000001  0.12753  0.75431  1.0000
  H   H142      1.0  0.14530000000000004  0.19902000000000003  0.67805  1.0000
  C   C133      1.0  0.37458  0.57331  0.40983  1.0000
  C   C134      1.0  0.41171  0.47354  0.4320899999999999  1.0000
  C   C135      1.0  0.4622  0.42634  0.38858999999999994  1.0000
  C   C136      1.0  0.47605000000000003  0.47556  0.32209  1.0000
  C   C137      1.0  0.43979000000000007  0.57279  0.29899  1.0000
  C   C138      1.0  0.38977  0.62176  0.34222  1.0000
  H   H143      1.0  0.40320000000000006  0.43109000000000003  0.48274000000000006  1.0000
  H   H144      1.0  0.49076000000000003  0.35138  0.40664  1.0000
  H   H145      1.0  0.51523  0.4388700000000001  0.28863  1.0000
  H   H146      1.0  0.4511700000000001  0.61143  0.24791  1.0000
  H   H147      1.0  0.36192  0.69636  0.32237  1.0000
  C   C139      1.0  0.62541  0.57331  0.59017  1.0000
  C   C140      1.0  0.58827  0.47356  0.5679  1.0000
  C   C141      1.0  0.5377700000000001  0.4263700000000001  0.61139  1.0000
  C   C142      1.0  0.5239300000000001  0.47557  0.67789  1.0000
  C   C143      1.0  0.56019  0.57278  0.701  1.0000
  C   C144      1.0  0.61022  0.62175  0.65777  1.0000
  H   H148      1.0  0.59679  0.43111  0.51724  1.0000
  H   H149      1.0  0.50921  0.35141000000000006  0.59333  1.0000
  H   H150      1.0  0.48474  0.43888000000000005  0.71134  1.0000
  H   H151      1.0  0.54882  0.6114100000000001  0.75209  1.0000
  H   H152      1.0  0.63808  0.69634  0.67763  1.0000
