data_image0
_chemical_formula_structural       O8C4O8C4O8C4O8C4O8C4O8C4Cr12O4C16H4C16H8C12H4C16H4C8OHOHOHOHBr4OHOHOHOHBr4OHOHOHOHOHOHOHOHOHOHOHOHOHOHOHOHOHOHOHOH
_chemical_formula_sum              "O80 C92 Cr12 H48 Br8"
_cell_length_a       18.78534
_cell_length_b       11.26919
_cell_length_c       19.67374
_cell_angle_alpha    89.98898
_cell_angle_beta     89.36081
_cell_angle_gamma    90.03445

_symmetry_space_group_name_H-M    'P 1'
_symmetry_Int_Tables_number       1

loop_
  _symmetry_equiv_pos_as_xyz
  'x,y,z'

loop_
  _atom_site_type_symbol
  _atom_site_label
  _atom_site_symmetry_multiplicity
  _atom_site_fract_x
  _atom_site_fract_y
  _atom_site_fract_z
  _atom_site_occupancy
  O   O1        1.0  0.04323000000000002  0.5493000000000001  0.66799  1.0000
  O   O2        1.0  0.95677  0.5493000000000001  0.33201  1.0000
  O   O3        1.0  0.5432300000000001  0.0493  0.66799  1.0000
  O   O4        1.0  0.45677  0.0493  0.33201  1.0000
  O   O5        1.0  0.17862000000000003  0.45760000000000006  0.6741  1.0000
  O   O6        1.0  0.82138  0.45760000000000006  0.3259  1.0000
  O   O7        1.0  0.67862  0.9576  0.6741  1.0000
  O   O8        1.0  0.32138  0.9576  0.3259  1.0000
  C   C1        1.0  0.24131000000000005  0.4683  0.64652  1.0000
  C   C2        1.0  0.7559200000000003  0.45977  0.35113  1.0000
  C   C3        1.0  0.74164  0.96818  0.64668  1.0000
  C   C4        1.0  0.25625  0.95999  0.35143  1.0000
  O   O9        1.0  0.28468  0.5421  0.66946  1.0000
  O   O10       1.0  0.71532  0.5421  0.33054  1.0000
  O   O11       1.0  0.7846800000000003  0.0421  0.66946  1.0000
  O   O12       1.0  0.21532000000000004  0.0421  0.33054  1.0000
  O   O13       1.0  0.26286  0.7903900000000001  0.67665  1.0000
  O   O14       1.0  0.7371400000000002  0.7903900000000001  0.32335  1.0000
  O   O15       1.0  0.76286  0.29039  0.67665  1.0000
  O   O16       1.0  0.23714000000000002  0.29039  0.32335  1.0000
  C   C5        1.0  0.22492  0.87129  0.64686  1.0000
  C   C6        1.0  0.77631  0.8683400000000001  0.35396  1.0000
  C   C7        1.0  0.72488  0.3709200000000001  0.64667  1.0000
  C   C8        1.0  0.27675000000000005  0.36773  0.35415  1.0000
  O   O17       1.0  0.16746  0.9070300000000002  0.67094  1.0000
  O   O18       1.0  0.8325400000000002  0.9070300000000002  0.32906  1.0000
  O   O19       1.0  0.66746  0.40703000000000006  0.67094  1.0000
  O   O20       1.0  0.33254  0.40703000000000006  0.32906  1.0000
  O   O21       1.0  0.053950000000000005  0.75022  0.6751  1.0000
  O   O22       1.0  0.94605  0.75022  0.3249  1.0000
  O   O23       1.0  0.55395  0.25022000000000005  0.6751  1.0000
  O   O24       1.0  0.44605000000000006  0.25022000000000005  0.3249  1.0000
  C   C9        1.0  0.03187  0.65396  0.64479  1.0000
  C   C10       1.0  0.96711  0.65366  0.35589  1.0000
  C   C11       1.0  0.53303  0.15359000000000003  0.64405  1.0000
  C   C12       1.0  0.46818  0.15397000000000002  0.35517  1.0000
  O   O25       1.0  0.0433  0.54737  0.82739  1.0000
  O   O26       1.0  0.9567000000000002  0.54737  0.17261  1.0000
  O   O27       1.0  0.5433  0.04737000000000001  0.82739  1.0000
  O   O28       1.0  0.4567000000000001  0.04737000000000001  0.17261  1.0000
  O   O29       1.0  0.17869  0.45582  0.82186  1.0000
  O   O30       1.0  0.8213100000000002  0.45582  0.17814  1.0000
  O   O31       1.0  0.67869  0.95582  0.82186  1.0000
  O   O32       1.0  0.32131  0.95582  0.17814  1.0000
  C   C13       1.0  0.23174000000000003  0.48601000000000005  0.8552200000000001  1.0000
  C   C14       1.0  0.7682  0.48584  0.14483  1.0000
  C   C15       1.0  0.73184  0.986  0.85534  1.0000
  C   C16       1.0  0.26797  0.9851800000000001  0.14442  1.0000
  O   O33       1.0  0.28475  0.54017  0.82886  1.0000
  O   O34       1.0  0.71525  0.54017  0.17114  1.0000
  O   O35       1.0  0.7847500000000001  0.040170000000000004  0.82886  1.0000
  O   O36       1.0  0.21525000000000005  0.040170000000000004  0.17114  1.0000
  O   O37       1.0  0.26292  0.7886  0.82442  1.0000
  O   O38       1.0  0.7370800000000002  0.7886  0.17558  1.0000
  O   O39       1.0  0.76292  0.2886  0.82442  1.0000
  O   O40       1.0  0.23708000000000004  0.2886  0.17558  1.0000
  C   C17       1.0  0.2262  0.86753  0.8538800000000001  1.0000
  C   C18       1.0  0.77381  0.86722  0.146  1.0000
  C   C19       1.0  0.72599  0.3661400000000001  0.85438  1.0000
  C   C20       1.0  0.27405  0.36605000000000004  0.14558  1.0000
  O   O41       1.0  0.16753000000000007  0.9051100000000002  0.8303399999999999  1.0000
  O   O42       1.0  0.83247  0.9051100000000002  0.16966  1.0000
  O   O43       1.0  0.6675300000000002  0.4051100000000001  0.8303399999999999  1.0000
  O   O44       1.0  0.3324700000000001  0.4051100000000001  0.16966  1.0000
  O   O45       1.0  0.05401000000000001  0.7484400000000002  0.82286  1.0000
  O   O46       1.0  0.94599  0.7484400000000002  0.17714  1.0000
  O   O47       1.0  0.5540100000000002  0.24844000000000002  0.82286  1.0000
  O   O48       1.0  0.44599  0.24844000000000002  0.17714  1.0000
  C   C21       1.0  0.03275  0.6514600000000002  0.85221  1.0000
  C   C22       1.0  0.9673100000000001  0.6515  0.14781  1.0000
  C   C23       1.0  0.53303  0.15136  0.85232  1.0000
  C   C24       1.0  0.46688000000000013  0.15138  0.14764  1.0000
  Cr  Cr1       1.0  0.11397  0.50863  0.74792  1.0000
  Cr  Cr2       1.0  0.8860300000000001  0.50863  0.25208  1.0000
  Cr  Cr3       1.0  0.61397  0.00863  0.74792  1.0000
  Cr  Cr4       1.0  0.3860300000000001  0.00863  0.25208  1.0000
  Cr  Cr5       1.0  0.26920000000000005  0.66674  0.74985  1.0000
  Cr  Cr6       1.0  0.7308  0.66674  0.25015  1.0000
  Cr  Cr7       1.0  0.7692000000000001  0.16674000000000003  0.74985  1.0000
  Cr  Cr8       1.0  0.2308  0.16674000000000003  0.25015  1.0000
  Cr  Cr9       1.0  0.11230000000000001  0.82007  0.7498  1.0000
  Cr  Cr10      1.0  0.8877  0.82007  0.2502  1.0000
  Cr  Cr11      1.0  0.6123000000000001  0.32007  0.7498  1.0000
  Cr  Cr12      1.0  0.3877  0.32007  0.2502  1.0000
  O   O49       1.0  0.16516  0.66515  0.74919  1.0000
  O   O50       1.0  0.8348400000000002  0.66515  0.25081  1.0000
  O   O51       1.0  0.66516  0.16515000000000002  0.74919  1.0000
  O   O52       1.0  0.33484  0.16515000000000002  0.25081  1.0000
  C   C25       1.0  0.23688  0.9155900000000001  0.57793  1.0000
  C   C26       1.0  0.76458  0.91226  0.42285000000000006  1.0000
  C   C27       1.0  0.73666  0.41359  0.57724  1.0000
  C   C28       1.0  0.2656800000000001  0.41232000000000013  0.42289000000000004  1.0000
  C   C29       1.0  0.23554  0.91256  0.41801000000000005  1.0000
  C   C30       1.0  0.76497  0.91924  0.58152  1.0000
  C   C31       1.0  0.7336700000000003  0.41279  0.41737  1.0000
  C   C32       1.0  0.26337000000000005  0.41731  0.58155  1.0000
  C   C33       1.0  0.28533  0.8668900000000002  0.45961  1.0000
  C   C34       1.0  0.71917  0.8602900000000001  0.54181  1.0000
  C   C35       1.0  0.7803800000000002  0.35679000000000005  0.45753999999999995  1.0000
  C   C36       1.0  0.21418000000000004  0.36985000000000007  0.5399  1.0000
  C   C37       1.0  0.27433  0.84796  0.53355  1.0000
  C   C38       1.0  0.72834  0.8444000000000003  0.4672899999999999  1.0000
  C   C39       1.0  0.7714700000000002  0.34259  0.53241  1.0000
  C   C40       1.0  0.22539  0.34956000000000004  0.46629  1.0000
  H   H1        1.0  0.3041500000000001  0.7748  0.55461  1.0000
  H   H2        1.0  0.6983900000000001  0.7728500000000001  0.44577999999999995  1.0000
  H   H3        1.0  0.8  0.26839  0.55382  1.0000
  H   H4        1.0  0.19265  0.28182  0.4444  1.0000
  C   C41       1.0  0.9897800000000002  0.6563800000000001  0.42801000000000006  1.0000
  C   C42       1.0  0.006859999999999999  0.65746  0.57368  1.0000
  C   C43       1.0  0.49335000000000007  0.15745  0.42622999999999994  1.0000
  C   C44       1.0  0.51061  0.15613  0.57186  1.0000
  C   C45       1.0  0.9764400000000001  0.87392  0.43551  1.0000
  C   C46       1.0  0.016940000000000004  0.87505  0.5666  1.0000
  C   C47       1.0  0.48388  0.37499  0.43325  1.0000
  C   C48       1.0  0.52441  0.37371000000000004  0.56431  1.0000
  C   C49       1.0  0.97458  0.9757200000000003  0.47234  1.0000
  C   C50       1.0  0.0075700000000000055  0.9784800000000002  0.5324  1.0000
  C   C51       1.0  0.49438  0.4784000000000001  0.46719  1.0000
  C   C52       1.0  0.52735  0.47528  0.52726  1.0000
  C   C53       1.0  0.005490000000000003  0.7632900000000001  0.53577  1.0000
  C   C54       1.0  0.99181  0.7629200000000003  0.46558  1.0000
  C   C55       1.0  0.5086999999999999  0.26275  0.5343  1.0000
  C   C56       1.0  0.4949700000000001  0.26320000000000005  0.46412  1.0000
  H   H5        1.0  0.9459200000000002  0.04954  0.45320999999999995  1.0000
  H   H6        1.0  0.021710000000000004  0.05890000000000001  0.55626  1.0000
  H   H7        1.0  0.48092  0.55896  0.44315000000000004  1.0000
  H   H8        1.0  0.55648  0.54877  0.54634  1.0000
  H   H9        1.0  0.9661600000000001  0.89662  0.3852  1.0000
  H   H10       1.0  0.027  0.8967800000000002  0.61715  1.0000
  H   H11       1.0  0.47335  0.3967  0.38279  1.0000
  H   H12       1.0  0.5341300000000001  0.39659  0.6147  1.0000
  C   C57       1.0  0.99569  0.5492900000000001  0.53744  1.0000
  C   C58       1.0  0.9953500000000001  0.54785  0.4659  1.0000
  C   C59       1.0  0.5053  0.04752  0.53392  1.0000
  C   C60       1.0  0.5047300000000001  0.04928000000000001  0.46237999999999996  1.0000
  C   C61       1.0  0.9840200000000002  0.4383500000000001  0.57249  1.0000
  C   C62       1.0  4.999999999999955e-05  0.4334500000000001  0.43317  1.0000
  C   C63       1.0  0.50108  0.9327300000000001  0.56648  1.0000
  C   C64       1.0  0.5165  0.93868  0.42713999999999996  1.0000
  C   C65       1.0  0.98047  0.33351000000000003  0.5374  1.0000
  C   C66       1.0  0.9937100000000001  0.33061000000000007  0.4699400000000001  1.0000
  C   C67       1.0  0.50735  0.83011  0.52939  1.0000
  C   C68       1.0  0.52024  0.8336500000000001  0.46191000000000004  1.0000
  H   H13       1.0  0.009950000000000002  0.4091000000000001  0.38068  1.0000
  H   H14       1.0  0.9750300000000002  0.41998000000000013  0.6259  1.0000
  H   H15       1.0  0.52544  0.92077  0.37372  1.0000
  H   H16       1.0  0.49151  0.90774  0.61898  1.0000
  C   C69       1.0  0.2521000000000001  0.9077900000000002  0.9192499999999999  1.0000
  C   C70       1.0  0.7471  0.9076900000000001  0.08086  1.0000
  C   C71       1.0  0.75419  0.40668000000000004  0.9190099999999999  1.0000
  C   C72       1.0  0.24585  0.40655  0.08096  1.0000
  C   C73       1.0  0.26036  0.92605  0.08091  1.0000
  C   C74       1.0  0.73838  0.9292  0.92009  1.0000
  C   C75       1.0  0.76239  0.4308500000000001  0.08005  1.0000
  C   C76       1.0  0.23761000000000002  0.4308500000000001  0.91994  1.0000
  C   C77       1.0  0.22006000000000006  0.99005  0.03447  1.0000
  C   C78       1.0  0.7756900000000002  0.9929100000000001  0.9658  1.0000
  C   C79       1.0  0.7331100000000003  0.50141  0.03148  1.0000
  C   C80       1.0  0.26665  0.5017200000000002  0.96861  1.0000
  C   C81       1.0  0.20694  0.9616800000000001  0.9638500000000001  1.0000
  C   C82       1.0  0.79115  0.96252  0.03614  1.0000
  C   C83       1.0  0.7124800000000001  0.46418000000000004  0.9641499999999998  1.0000
  C   C84       1.0  0.28758  0.4639300000000001  0.03575  1.0000
  H   H17       1.0  0.18486  0.0656  0.05315  1.0000
  H   H18       1.0  0.80822  0.07038000000000001  0.94829  1.0000
  H   H19       1.0  0.7086100000000001  0.58744  0.04701  1.0000
  H   H20       1.0  0.29088000000000014  0.5883  0.9532400000000001  1.0000
  C   C85       1.0  2.0000000000000198e-05  0.6585800000000002  0.92048  1.0000
  C   C86       1.0  0.00011999999999999994  0.65865  0.07955  1.0000
  C   C87       1.0  0.50031  0.15798  0.92055  1.0000
  C   C88       1.0  0.49936000000000014  0.15796000000000002  0.0793  1.0000
  C   C89       1.0  0.99555  0.5604800000000001  0.03797  1.0000
  C   C90       1.0  0.00464  0.56046  0.9621  1.0000
  C   C91       1.0  0.49374  0.06010000000000001  0.03761  1.0000
  C   C92       1.0  0.50554  0.06006  0.96224  1.0000
  O   O53       1.0  0.34978  0.8326000000000002  0.43094999999999994  1.0000
  H   H21       1.0  0.37796000000000013  0.7873100000000001  0.46625  1.0000
  O   O54       1.0  0.6607000000000002  0.80904  0.57333  1.0000
  H   H22       1.0  0.63832  0.7519  0.54096  1.0000
  O   O55       1.0  0.8386500000000002  0.30523  0.42593  1.0000
  H   H23       1.0  0.8636200000000003  0.2531  0.46026000000000006  1.0000
  O   O56       1.0  0.14884000000000003  0.33822  0.56791  1.0000
  H   H24       1.0  0.12198000000000002  0.28942  0.53424  1.0000
  Br  Br1       1.0  0.11462  0.025070000000000002  0.94123  1.0000
  Br  Br2       1.0  0.88444  0.022500000000000003  0.05692  1.0000
  Br  Br3       1.0  0.61707  0.51646  0.94745  1.0000
  Br  Br4       1.0  0.3833  0.5151800000000001  0.052070000000000005  1.0000
  O   O57       1.0  0.29852000000000006  0.8208700000000001  0.07048  1.0000
  H   H25       1.0  0.26578  0.76784  0.04265  1.0000
  O   O58       1.0  0.70231  0.8224000000000001  0.9300500000000002  1.0000
  H   H26       1.0  0.73442  0.77024  0.9558400000000001  1.0000
  O   O59       1.0  0.79115  0.31754  0.07186  1.0000
  H   H27       1.0  0.75801  0.27376  0.04117  1.0000
  O   O60       1.0  0.20918  0.31707  0.92801  1.0000
  H   H28       1.0  0.24236  0.2737  0.9589100000000002  1.0000
  Br  Br5       1.0  0.35039  0.86748  0.93654  1.0000
  Br  Br6       1.0  0.64899  0.86504  0.06389  1.0000
  Br  Br7       1.0  0.8512500000000003  0.35935  0.93699  1.0000
  Br  Br8       1.0  0.14877  0.35914  0.06296  1.0000
  O   O61       1.0  0.98245  0.45035  0.06902  1.0000
  H   H29       1.0  0.9628800000000001  0.38780000000000003  0.03864  1.0000
  O   O62       1.0  0.017780000000000004  0.4503700000000001  0.93109  1.0000
  H   H30       1.0  0.03719000000000001  0.38776000000000005  0.9614900000000001  1.0000
  O   O63       1.0  0.47693  0.9508100000000002  0.06798  1.0000
  H   H31       1.0  0.46048  0.88746  0.0366  1.0000
  O   O64       1.0  0.52176  0.9505900000000002  0.9318600000000001  1.0000
  H   H32       1.0  0.5386700000000002  0.8875600000000001  0.9632500000000002  1.0000
  O   O65       1.0  0.023980000000000005  0.7689600000000002  0.05902  1.0000
  H   H33       1.0  0.07446000000000001  0.7621500000000002  0.04421  1.0000
  O   O66       1.0  0.97614  0.7688600000000001  0.94094  1.0000
  H   H34       1.0  0.9258200000000001  0.76182  0.9561499999999999  1.0000
  O   O67       1.0  0.5248700000000001  0.2673400000000001  0.05894  1.0000
  H   H35       1.0  0.57533  0.25856  0.04451  1.0000
  O   O68       1.0  0.4750400000000001  0.26748  0.94086  1.0000
  H   H36       1.0  0.42454000000000003  0.25895  0.9552700000000001  1.0000
  O   O69       1.0  0.16802  0.9463600000000001  0.44007999999999997  1.0000
  H   H37       1.0  0.13923000000000005  0.87549  0.45086  1.0000
  O   O70       1.0  0.8323300000000002  0.9560900000000001  0.56095  1.0000
  H   H38       1.0  0.8602700000000001  0.8857900000000001  0.54431  1.0000
  O   O71       1.0  0.6674000000000002  0.45176  0.43964000000000003  1.0000
  H   H39       1.0  0.63742  0.3826400000000001  0.45121000000000006  1.0000
  O   O72       1.0  0.33302  0.44503  0.56264  1.0000
  H   H40       1.0  0.35637  0.3749800000000001  0.5398  1.0000
  O   O73       1.0  0.19617000000000007  0.013210000000000001  0.55942  1.0000
  H   H41       1.0  0.22947  0.06817  0.52791  1.0000
  O   O74       1.0  0.8054300000000001  0.00878  0.44153000000000003  1.0000
  H   H42       1.0  0.77298  0.0688  0.4641  1.0000
  O   O75       1.0  0.69723  0.51253  0.55897  1.0000
  H   H43       1.0  0.73109  0.5668  0.52769  1.0000
  O   O76       1.0  0.30936  0.50507  0.44253  1.0000
  H   H44       1.0  0.27852  0.5674  0.46512  1.0000
  O   O77       1.0  0.96079  0.23376000000000002  0.57204  1.0000
  H   H45       1.0  0.9929700000000001  0.22914  0.61155  1.0000
  O   O78       1.0  0.0028999999999999994  0.22583  0.43664  1.0000
  H   H46       1.0  0.96989  0.22751  0.39769  1.0000
  O   O79       1.0  0.49843  0.72489  0.56238  1.0000
  H   H47       1.0  0.53126  0.7265300000000001  0.60146  1.0000
  O   O80       1.0  0.54024  0.73444  0.42695  1.0000
  H   H48       1.0  0.50791  0.7297  0.38755  1.0000
