data_image0
_chemical_formula_structural       C176Cr12H80O53CH2CH2CH3OCH2CH2CH3OCH2CH2CH3OCH2CH2CH3OCH2CH2CH3OCH2CH2CH3OCH2CH2CH3OCH2CH2CH3C6H5C6H5C6H5C6H5C6H5C6H5C6H5C6H5
_chemical_formula_sum              "C248 Cr12 H176 O60"
_cell_length_a       22.54969
_cell_length_b       13.01747
_cell_length_c       26.988499999999995
_cell_angle_alpha    90.07371999999998
_cell_angle_beta     90.30511
_cell_angle_gamma    89.88064

_symmetry_space_group_name_H-M    'P 1'
_symmetry_Int_Tables_number       1

loop_
  _symmetry_equiv_pos_as_xyz
  'x,y,z'

loop_
  _atom_site_type_symbol
  _atom_site_label
  _atom_site_symmetry_multiplicity
  _atom_site_fract_x
  _atom_site_fract_y
  _atom_site_fract_z
  _atom_site_occupancy
  C   C1        1.0  0.7209  0.34479999999999994  0.17837999999999998  1.0000
  C   C2        1.0  0.27909  0.34486  0.8216  1.0000
  C   C3        1.0  0.2209  0.8448  0.17837999999999998  1.0000
  C   C4        1.0  0.77909  0.84486  0.8216  1.0000
  C   C5        1.0  0.47573999999999994  0.16622  0.8712499999999997  1.0000
  C   C6        1.0  0.52458  0.16617  0.12862  1.0000
  C   C7        1.0  0.9757100000000001  0.66619  0.87126  1.0000
  C   C8        1.0  0.02454  0.66622  0.12863  1.0000
  C   C9        1.0  0.51126  0.2621  0.10617  1.0000
  C   C10       1.0  0.48883000000000004  0.26216  0.89379  1.0000
  C   C11       1.0  0.01129  0.76217  0.10617  1.0000
  C   C12       1.0  0.9888600000000001  0.76213  0.8937799999999998  1.0000
  C   C13       1.0  0.50572  0.2681  0.053219999999999996  1.0000
  C   C14       1.0  0.49451  0.26814  0.94674  1.0000
  C   C15       1.0  0.00572  0.76815  0.053209999999999986  1.0000
  C   C16       1.0  0.9945200000000001  0.76813  0.94674  1.0000
  C   C17       1.0  0.50384  0.17461  0.02596  1.0000
  C   C18       1.0  0.49682  0.17463  0.97386  1.0000
  C   C19       1.0  0.00377  0.6746499999999999  0.025969999999999993  1.0000
  C   C20       1.0  0.99675  0.6746399999999998  0.9738699999999998  1.0000
  C   C21       1.0  0.5031  0.36238  0.026289999999999994  1.0000
  C   C22       1.0  0.49688  0.3624  0.9738099999999998  1.0000
  C   C23       1.0  0.0031399999999999996  0.8624199999999997  0.02625999999999999  1.0000
  C   C24       1.0  0.99692  0.86241  0.9737799999999999  1.0000
  C   C25       1.0  0.73839  0.9628499999999998  0.12845  1.0000
  C   C26       1.0  0.26159  0.9628  0.8715  1.0000
  C   C27       1.0  0.23839999999999997  0.46284999999999993  0.12845  1.0000
  C   C28       1.0  0.76159  0.46279  0.8715  1.0000
  C   C29       1.0  0.78808  0.99158  0.10068  1.0000
  C   C30       1.0  0.21188  0.99187  0.8992999999999999  1.0000
  C   C31       1.0  0.28806  0.4916899999999999  0.10067  1.0000
  C   C32       1.0  0.71187  0.4917999999999999  0.89929  1.0000
  C   C33       1.0  0.78836  0.97771  0.049619999999999984  1.0000
  C   C34       1.0  0.21151000000000003  0.97774  0.9503399999999997  1.0000
  C   C35       1.0  0.28834  0.4778099999999999  0.04961  1.0000
  C   C36       1.0  0.71149  0.47767  0.95033  1.0000
  C   C37       1.0  0.7393399999999999  0.93432  0.025249999999999995  1.0000
  C   C38       1.0  0.26044  0.93371  0.97466  1.0000
  C   C39       1.0  0.23934000000000002  0.4343  0.025249999999999995  1.0000
  C   C40       1.0  0.76043  0.4336899999999999  0.97466  1.0000
  C   C41       1.0  0.69087  0.90058  0.05329  1.0000
  C   C42       1.0  0.30893  0.8996399999999999  0.9465799999999999  1.0000
  C   C43       1.0  0.1909  0.40046999999999994  0.05330999999999999  1.0000
  C   C44       1.0  0.80894  0.3996899999999999  0.9465799999999999  1.0000
  C   C45       1.0  0.55309  0.15785  0.17788999999999996  1.0000
  C   C46       1.0  0.44697000000000003  0.15783  0.8220799999999999  1.0000
  C   C47       1.0  0.05309  0.65786  0.17788999999999996  1.0000
  C   C48       1.0  0.94697  0.65783  0.8220799999999999  1.0000
  C   C49       1.0  0.69054  0.9142199999999999  0.10446999999999997  1.0000
  C   C50       1.0  0.30937  0.9136  0.89542  1.0000
  C   C51       1.0  0.19057  0.41410999999999987  0.10448999999999997  1.0000
  C   C52       1.0  0.8093799999999999  0.41364  0.89543  1.0000
  C   C53       1.0  0.71682  0.83208  0.9494199999999999  1.0000
  C   C54       1.0  0.28289  0.8312  0.050409999999999996  1.0000
  C   C55       1.0  0.21688000000000002  0.33199999999999996  0.9494299999999998  1.0000
  C   C56       1.0  0.7829099999999999  0.3312299999999999  0.050409999999999996  1.0000
  C   C57       1.0  0.7254899999999999  0.81217  0.89945  1.0000
  C   C58       1.0  0.2743  0.81145  0.10038  1.0000
  C   C59       1.0  0.22555  0.31208999999999987  0.8994699999999998  1.0000
  C   C60       1.0  0.77432  0.31148  0.10038999999999997  1.0000
  C   C61       1.0  0.77936  0.9720999999999999  0.8908199999999998  1.0000
  C   C62       1.0  0.22048  0.9718099999999997  0.1092  1.0000
  C   C63       1.0  0.27932  0.4721199999999999  0.8908199999999998  1.0000
  C   C64       1.0  0.7204600000000001  0.4718  0.1092  1.0000
  C   C65       1.0  0.7688500000000001  0.99377  0.94063  1.0000
  C   C66       1.0  0.23092  0.99331  0.05939  1.0000
  C   C67       1.0  0.2688  0.49379  0.94063  1.0000
  C   C68       1.0  0.7308899999999999  0.4932899999999999  0.05938  1.0000
  C   C69       1.0  0.74024  0.92136  0.97093  1.0000
  C   C70       1.0  0.25948  0.92065  0.02899  1.0000
  C   C71       1.0  0.24024  0.42133  0.97093  1.0000
  C   C72       1.0  0.7594799999999999  0.4206499999999999  0.02899  1.0000
  C   C73       1.0  0.75909  0.8797699999999998  0.8703299999999998  1.0000
  C   C74       1.0  0.2408  0.8793799999999999  0.12961  1.0000
  C   C75       1.0  0.25909  0.3797399999999999  0.8703399999999998  1.0000
  C   C76       1.0  0.7408  0.37939  0.12962  1.0000
  C   C77       1.0  0.53009  0.16229999999999994  0.3717299999999999  1.0000
  C   C78       1.0  0.4677  0.16153  0.62753  1.0000
  C   C79       1.0  0.04249  0.66261  0.37548  1.0000
  C   C80       1.0  0.97821  0.66252  0.6312499999999999  1.0000
  C   C81       1.0  0.50293  0.25025  0.39136  1.0000
  C   C82       1.0  0.4924299999999999  0.25032  0.60703  1.0000
  C   C83       1.0  0.0016299999999999993  0.73206  0.3954399999999999  1.0000
  C   C84       1.0  0.9923499999999998  0.7564  0.60904  1.0000
  C   C85       1.0  0.48788  0.25297  0.44169999999999987  1.0000
  C   C86       1.0  0.50463  0.25346  0.5562499999999999  1.0000
  C   C87       1.0  0.99254  0.7342399999999998  0.44676  1.0000
  C   C88       1.0  0.011269999999999999  0.7585899999999998  0.55978  1.0000
  C   C89       1.0  0.7309799999999999  0.0032  0.17893  1.0000
  C   C90       1.0  0.26903  0.00318  0.8210699999999997  1.0000
  C   C91       1.0  0.23098  0.50319  0.17893  1.0000
  C   C92       1.0  0.76903  0.50318  0.8210699999999997  1.0000
  C   C93       1.0  0.50248  0.16964  0.47257  1.0000
  C   C94       1.0  0.48976  0.16988999999999996  0.52573  1.0000
  C   C95       1.0  0.02587  0.6699599999999999  0.4783599999999999  1.0000
  C   C96       1.0  0.01492  0.66772  0.5320699999999999  1.0000
  C   C97       1.0  0.52878  0.08197  0.45236999999999994  1.0000
  C   C98       1.0  0.46576999999999996  0.08125999999999999  0.54669  1.0000
  C   C99       1.0  0.06735  0.6022  0.45807  1.0000
  C   C100      1.0  0.00543  0.57342  0.5555  1.0000
  C   C101      1.0  0.54105  0.07743  0.4025399999999999  1.0000
  C   C102      1.0  0.45640000000000003  0.07616  0.597  1.0000
  C   C103      1.0  0.07521  0.59805  0.40721  1.0000
  C   C104      1.0  0.98774  0.57073  0.60467  1.0000
  C   C105      1.0  0.7310099999999999  0.99591  0.37976  1.0000
  C   C106      1.0  0.26572  0.99265  0.62072  1.0000
  C   C107      1.0  0.23545000000000002  0.48013  0.37530999999999987  1.0000
  C   C108      1.0  0.76744  0.4927599999999999  0.62075  1.0000
  C   C109      1.0  0.68513  0.9448899999999998  0.40434  1.0000
  C   C110      1.0  0.31181  0.9470999999999999  0.5940299999999997  1.0000
  C   C111      1.0  0.22842  0.38085  0.3934399999999999  1.0000
  C   C112      1.0  0.8157  0.4517299999999999  0.5947  1.0000
  C   C113      1.0  0.68311  0.94527  0.4559499999999999  1.0000
  C   C114      1.0  0.31084  0.9496099999999997  0.54237  1.0000
  C   C115      1.0  0.23202  0.36445999999999995  0.4442699999999999  1.0000
  C   C116      1.0  0.81559  0.45316  0.543  1.0000
  C   C117      1.0  0.72727  0.9955799999999998  0.48351999999999995  1.0000
  C   C118      1.0  0.26386  0.9976699999999997  0.51688  1.0000
  C   C119      1.0  0.24187  0.44752  0.47654  1.0000
  C   C120      1.0  0.76791  0.4975  0.51696  1.0000
  C   C121      1.0  0.76842  0.05877  0.45925999999999995  1.0000
  C   C122      1.0  0.22169  0.05524999999999999  0.5433  1.0000
  C   C123      1.0  0.25104  0.5468  0.45842999999999995  1.0000
  C   C124      1.0  0.72509  0.55415  0.54302  1.0000
  C   C125      1.0  0.77244  0.05220999999999999  0.40751999999999994  1.0000
  C   C126      1.0  0.22032  0.04425  0.59489  1.0000
  C   C127      1.0  0.24395  0.5630699999999998  0.4075899999999999  1.0000
  C   C128      1.0  0.7217  0.54148  0.59432  1.0000
  C   C129      1.0  0.7944000000000001  0.91665  0.5460299999999999  1.0000
  C   C130      1.0  0.19679  0.9286499999999998  0.45126  1.0000
  C   C131      1.0  0.30787  0.40548999999999996  0.5460999999999999  1.0000
  C   C132      1.0  0.70061  0.4233199999999999  0.4526199999999999  1.0000
  C   C133      1.0  0.72132  0.3485199999999999  0.3211099999999999  1.0000
  C   C134      1.0  0.27943  0.34687  0.67833  1.0000
  C   C135      1.0  0.22127000000000002  0.8488199999999999  0.32099  1.0000
  C   C136      1.0  0.77844  0.8485899999999998  0.6789799999999998  1.0000
  C   C137      1.0  0.8027  0.87138  0.59246  1.0000
  C   C138      1.0  0.19087999999999997  0.8821099999999998  0.4049399999999999  1.0000
  C   C139      1.0  0.31423  0.37062  0.59457  1.0000
  C   C140      1.0  0.69374  0.37658  0.40644  1.0000
  C   C141      1.0  0.70793  0.93627  0.6201499999999999  1.0000
  C   C142      1.0  0.29013  0.93326  0.3820199999999999  1.0000
  C   C143      1.0  0.21166000000000001  0.41344  0.61216  1.0000
  C   C144      1.0  0.79089  0.43417  0.38117  1.0000
  C   C145      1.0  0.6962  0.97285  0.57223  1.0000
  C   C146      1.0  0.29865  0.97352  0.42963999999999997  1.0000
  C   C147      1.0  0.20320000000000002  0.43730999999999987  0.5621899999999999  1.0000
  C   C148      1.0  0.8010199999999998  0.47237999999999997  0.4290099999999999  1.0000
  C   C149      1.0  0.73926  0.96314  0.53505  1.0000
  C   C150      1.0  0.25255  0.97029  0.46461  1.0000
  C   C151      1.0  0.25069  0.42819  0.52905  1.0000
  C   C152      1.0  0.75622  0.46691999999999995  0.46500999999999987  1.0000
  C   C153      1.0  0.7616700000000001  0.8861599999999998  0.63008  1.0000
  C   C154      1.0  0.23593  0.8876499999999998  0.36997  1.0000
  C   C155      1.0  0.26708  0.37777  0.6278599999999998  1.0000
  C   C156      1.0  0.7369299999999999  0.38644  0.37013999999999997  1.0000
  C   C157      1.0  0.5545  0.15826  0.3216  1.0000
  C   C158      1.0  0.4451  0.15797999999999998  0.6781999999999998  1.0000
  C   C159      1.0  0.05633  0.6582199999999999  0.32259  1.0000
  C   C160      1.0  0.94634  0.6579999999999999  0.67871  1.0000
  C   C161      1.0  0.72898  0.01216  0.32596999999999987  1.0000
  C   C162      1.0  0.27025  0.01022  0.67441  1.0000
  C   C163      1.0  0.23123  0.50403  0.32328  1.0000
  C   C164      1.0  0.7705100000000001  0.5102999999999999  0.67441  1.0000
  C   C165      1.0  0.51974  0.07608999999999999  0.10109999999999998  1.0000
  C   C166      1.0  0.4811500000000001  0.07612  0.8985899999999998  1.0000
  C   C167      1.0  0.01961  0.57614  0.10113  1.0000
  C   C168      1.0  0.98104  0.5760999999999998  0.8986199999999998  1.0000
  C   C169      1.0  0.50861  0.07913  0.05083999999999999  1.0000
  C   C170      1.0  0.49246  0.07914999999999998  0.9488299999999997  1.0000
  C   C171      1.0  0.00847  0.57917  0.05087999999999999  1.0000
  C   C172      1.0  0.99232  0.57915  0.94886  1.0000
  C   C173      1.0  0.49651  0.98628  0.97446  1.0000
  C   C174      1.0  0.50509  0.98627  0.025049999999999992  1.0000
  C   C175      1.0  0.99629  0.48629  0.9745099999999998  1.0000
  C   C176      1.0  0.00486  0.4863  0.025099999999999994  1.0000
  Cr  Cr1       1.0  0.75657  0.17094  0.25119  1.0000
  Cr  Cr2       1.0  0.24343  0.17094  0.74881  1.0000
  Cr  Cr3       1.0  0.25657  0.67094  0.25119  1.0000
  Cr  Cr4       1.0  0.74343  0.67094  0.74881  1.0000
  Cr  Cr5       1.0  0.62374  0.29910999999999993  0.24958  1.0000
  Cr  Cr6       1.0  0.37626  0.29910999999999993  0.7504199999999998  1.0000
  Cr  Cr7       1.0  0.12373999999999999  0.79911  0.24958  1.0000
  Cr  Cr8       1.0  0.87626  0.79911  0.7504199999999998  1.0000
  Cr  Cr9       1.0  0.62599  0.03624  0.25048  1.0000
  Cr  Cr10      1.0  0.37401  0.03624  0.74952  1.0000
  Cr  Cr11      1.0  0.12599  0.53624  0.25048  1.0000
  Cr  Cr12      1.0  0.87401  0.53624  0.74952  1.0000
  H   H1        1.0  0.47387  0.0020799999999999994  0.8810999999999999  1.0000
  H   H2        1.0  0.52731  0.00206  0.11848  1.0000
  H   H3        1.0  0.9737100000000001  0.50206  0.88114  1.0000
  H   H4        1.0  0.02712  0.5021  0.11852999999999997  1.0000
  H   H5        1.0  0.8049300000000001  0.025509999999999994  0.86886  1.0000
  H   H6        1.0  0.19496  0.02546  0.13123999999999997  1.0000
  H   H7        1.0  0.30485  0.52556  0.86885  1.0000
  H   H8        1.0  0.69493  0.52543  0.13123  1.0000
  H   H9        1.0  0.65221  0.8673  0.03558999999999999  1.0000
  H   H10       1.0  0.34753  0.8658699999999998  0.9642299999999998  1.0000
  H   H11       1.0  0.15226  0.36709  0.03561999999999999  1.0000
  H   H12       1.0  0.84755  0.36595999999999995  0.96424  1.0000
  H   H13       1.0  0.65124  0.8921899999999999  0.12473999999999998  1.0000
  H   H14       1.0  0.34867  0.8912999999999999  0.87513  1.0000
  H   H15       1.0  0.1513  0.392  0.12477  1.0000
  H   H16       1.0  0.8487  0.39138999999999996  0.8751399999999998  1.0000
  H   H17       1.0  0.49422  0.31639999999999996  0.36815  1.0000
  H   H18       1.0  0.5013  0.31706  0.62988  1.0000
  H   H19       1.0  0.97652  0.7829999999999999  0.37153  1.0000
  H   H20       1.0  0.98603  0.8278499999999999  0.6288799999999998  1.0000
  H   H21       1.0  0.45380000000000004  0.015619999999999997  0.52403  1.0000
  H   H22       1.0  0.54094  0.01698  0.47537  1.0000
  H   H23       1.0  0.00866  0.50193  0.53508  1.0000
  H   H24       1.0  0.09366  0.55224  0.4816  1.0000
  H   H25       1.0  0.43740000000000007  0.00624  0.61149  1.0000
  H   H26       1.0  0.56207  0.00839  0.38878  1.0000
  H   H27       1.0  0.97796  0.4964999999999999  0.62072  1.0000
  H   H28       1.0  0.108  0.5453  0.3926099999999999  1.0000
  H   H29       1.0  0.46653000000000006  0.32061  0.45674  1.0000
  H   H30       1.0  0.52459  0.32136  0.54077  1.0000
  H   H31       1.0  0.9594300000000001  0.78544  0.46173  1.0000
  H   H32       1.0  0.020090000000000004  0.8314  0.54252  1.0000
  H   H33       1.0  0.65104  0.90462  0.3837299999999999  1.0000
  H   H34       1.0  0.34826  0.90954  0.61299  1.0000
  H   H35       1.0  0.22117  0.3168099999999999  0.36849  1.0000
  H   H36       1.0  0.85334  0.41885999999999995  0.61415  1.0000
  H   H37       1.0  0.8424499999999999  0.8274399999999998  0.60034  1.0000
  H   H38       1.0  0.1507  0.8413499999999999  0.39533999999999997  1.0000
  H   H39       1.0  0.35649  0.34053999999999995  0.60707  1.0000
  H   H40       1.0  0.65358  0.3346399999999999  0.39778  1.0000
  H   H41       1.0  0.49305  0.91325  0.9553  1.0000
  H   H42       1.0  0.50892  0.91324  0.044099999999999986  1.0000
  H   H43       1.0  0.99277  0.41325  0.9553599999999999  1.0000
  H   H44       1.0  0.00862  0.4132699999999999  0.04416  1.0000
  H   H45       1.0  0.6481  0.9037099999999999  0.47414  1.0000
  H   H46       1.0  0.34583  0.9111299999999998  0.52233  1.0000
  H   H47       1.0  0.2292  0.2868  0.45822  1.0000
  H   H48       1.0  0.85201  0.41772  0.5235099999999999  1.0000
  H   H49       1.0  0.6542  0.00995  0.5642699999999999  1.0000
  H   H50       1.0  0.34127  0.00613  0.4394899999999999  1.0000
  H   H51       1.0  0.15987  0.46133999999999986  0.5491399999999999  1.0000
  H   H52       1.0  0.84344  0.50681  0.43790999999999997  1.0000
  H   H53       1.0  0.67546  0.94679  0.64914  1.0000
  H   H54       1.0  0.32537  0.93735  0.3550099999999999  1.0000
  H   H55       1.0  0.17532  0.42061  0.63798  1.0000
  H   H56       1.0  0.8247699999999999  0.44148999999999994  0.3531199999999999  1.0000
  H   H57       1.0  0.80716  0.09303  0.3885199999999999  1.0000
  H   H58       1.0  0.18470999999999999  0.0797  0.6153  1.0000
  H   H59       1.0  0.24547  0.6398499999999999  0.39241  1.0000
  H   H60       1.0  0.68438  0.57427  0.6137999999999998  1.0000
  H   H61       1.0  0.82539  0.030159999999999996  0.1179  1.0000
  H   H62       1.0  0.17463  0.03088  0.88214  1.0000
  H   H63       1.0  0.32534000000000013  0.53035  0.11788  1.0000
  H   H64       1.0  0.6746  0.53077  0.8821299999999997  1.0000
  H   H65       1.0  0.69497  0.77437  0.9716299999999998  1.0000
  H   H66       1.0  0.30471  0.7733  0.02812  1.0000
  H   H67       1.0  0.19505999999999998  0.27425  0.97165  1.0000
  H   H68       1.0  0.80475  0.27333  0.028129999999999992  1.0000
  H   H69       1.0  0.70965  0.7398099999999999  0.88463  1.0000
  H   H70       1.0  0.29015  0.739  0.11513999999999998  1.0000
  H   H71       1.0  0.20974000000000004  0.23968999999999993  0.88465  1.0000
  H   H72       1.0  0.79019  0.23905  0.11515999999999998  1.0000
  H   H73       1.0  0.82655  0.00282  0.028979999999999995  1.0000
  H   H74       1.0  0.17332  0.0031599999999999996  0.9709999999999998  1.0000
  H   H75       1.0  0.3265  0.50301  0.028959999999999996  1.0000
  H   H76       1.0  0.67328  0.50303  0.97098  1.0000
  H   H77       1.0  0.78531  0.06515999999999998  0.9559499999999997  1.0000
  H   H78       1.0  0.21445  0.06482  0.04416  1.0000
  H   H79       1.0  0.28521  0.56522  0.9559399999999999  1.0000
  H   H80       1.0  0.7144  0.56478  0.04414999999999999  1.0000
  O   O1        1.0  0.7699  0.06454  0.19606  1.0000
  O   O2        1.0  0.2301  0.06454  0.8039399999999999  1.0000
  O   O3        1.0  0.2699  0.56454  0.19606  1.0000
  O   O4        1.0  0.7301  0.56454  0.8039399999999999  1.0000
  O   O5        1.0  0.57476  0.23932  0.30084999999999995  1.0000
  O   O6        1.0  0.42524  0.23932  0.69915  1.0000
  O   O7        1.0  0.07476  0.73932  0.30084999999999995  1.0000
  O   O8        1.0  0.92524  0.73932  0.69915  1.0000
  O   O9        1.0  0.56629  0.06958  0.3054  1.0000
  O   O10       1.0  0.43371  0.06958  0.6946  1.0000
  O   O11       1.0  0.06629000000000002  0.56958  0.3054  1.0000
  O   O12       1.0  0.9337100000000002  0.56958  0.6946  1.0000
  O   O13       1.0  0.68076  0.99333  0.3026199999999999  1.0000
  O   O14       1.0  0.31924  0.99333  0.69738  1.0000
  O   O15       1.0  0.18076000000000003  0.49333  0.3026199999999999  1.0000
  O   O16       1.0  0.81924  0.49333  0.69738  1.0000
  O   O17       1.0  0.66877  0.16875999999999994  0.25042  1.0000
  O   O18       1.0  0.33123  0.16875999999999994  0.74958  1.0000
  O   O19       1.0  0.16877  0.66876  0.25042  1.0000
  O   O20       1.0  0.8312300000000001  0.66876  0.74958  1.0000
  O   O21       1.0  0.7508  0.27408  0.19925  1.0000
  O   O22       1.0  0.2492  0.27408  0.80075  1.0000
  O   O23       1.0  0.2508  0.77408  0.19925  1.0000
  O   O24       1.0  0.7492  0.77408  0.80075  1.0000
  O   O25       1.0  0.66999  0.37167  0.19414999999999996  1.0000
  O   O26       1.0  0.33001  0.37167  0.8058499999999997  1.0000
  O   O27       1.0  0.16999  0.87167  0.19414999999999996  1.0000
  O   O28       1.0  0.83001  0.87167  0.8058499999999997  1.0000
  O   O29       1.0  0.5746  0.23847999999999997  0.1978  1.0000
  O   O30       1.0  0.4254  0.23847999999999997  0.8021999999999998  1.0000
  O   O31       1.0  0.0746  0.73848  0.1978  1.0000
  O   O32       1.0  0.9254000000000001  0.73848  0.8021999999999998  1.0000
  O   O33       1.0  0.56613  0.06868  0.19423999999999994  1.0000
  O   O34       1.0  0.43387  0.06868  0.8057599999999999  1.0000
  O   O35       1.0  0.06613  0.56868  0.19423999999999994  1.0000
  O   O36       1.0  0.93387  0.56868  0.8057599999999999  1.0000
  O   O37       1.0  0.68061  0.99249  0.19956999999999994  1.0000
  O   O38       1.0  0.31939  0.99249  0.8004299999999999  1.0000
  O   O39       1.0  0.18061  0.49249  0.19956999999999994  1.0000
  O   O40       1.0  0.81939  0.49249  0.8004299999999999  1.0000
  O   O41       1.0  0.77006  0.06544  0.30722999999999995  1.0000
  O   O42       1.0  0.22993999999999998  0.06544  0.69277  1.0000
  O   O43       1.0  0.27006  0.56544  0.30722999999999995  1.0000
  O   O44       1.0  0.72994  0.56544  0.69277  1.0000
  O   O45       1.0  0.75096  0.27492  0.30229999999999996  1.0000
  O   O46       1.0  0.24903999999999998  0.27492  0.6976999999999998  1.0000
  O   O47       1.0  0.25096  0.77492  0.30229999999999996  1.0000
  O   O48       1.0  0.74904  0.77492  0.6976999999999998  1.0000
  O   O49       1.0  0.67016  0.3725799999999999  0.30532  1.0000
  O   O50       1.0  0.32984  0.3725799999999999  0.69468  1.0000
  O   O51       1.0  0.17016  0.87258  0.30532  1.0000
  O   O52       1.0  0.82984  0.87258  0.69468  1.0000
  O   O53       1.0  0.83786  0.91405  0.50957  1.0000
  C   C177      1.0  0.89655  0.9263399999999998  0.52797  1.0000
  H   H81       1.0  0.9250099999999999  0.9402699999999999  0.49527  1.0000
  H   H82       1.0  0.9119100000000001  0.8535099999999999  0.54452  1.0000
  C   C178      1.0  0.9052900000000002  0.01684  0.56466  1.0000
  H   H83       1.0  0.8790400000000002  0.08445  0.5530599999999999  1.0000
  H   H84       1.0  0.89073  0.9954099999999999  0.60243  1.0000
  C   C179      1.0  0.9699300000000001  0.04874  0.56848  1.0000
  H   H85       1.0  0.9973  0.98603  0.58432  1.0000
  H   H86       1.0  0.97344  0.11642  0.59326  1.0000
  H   H87       1.0  0.98705  0.06942  0.53142  1.0000
  O   O54       1.0  0.15101  0.9277999999999997  0.4857999999999999  1.0000
  C   C180      1.0  0.09362  0.9421899999999999  0.46487999999999996  1.0000
  H   H88       1.0  0.06257  0.95146  0.49616999999999994  1.0000
  H   H89       1.0  0.07912  0.87234  0.44499  1.0000
  C   C181      1.0  0.08661  0.03906  0.43233  1.0000
  H   H90       1.0  0.09363  0.10895  0.45502  1.0000
  H   H91       1.0  0.11903  0.04041  0.4016099999999999  1.0000
  C   C182      1.0  0.02466  0.04352  0.40953  1.0000
  H   H92       1.0  0.017549999999999996  0.97687  0.3844599999999999  1.0000
  H   H93       1.0  0.01953  0.11525999999999999  0.38773  1.0000
  H   H94       1.0  0.99075  0.04229999999999999  0.43909999999999993  1.0000
  O   O55       1.0  0.35563000000000006  0.41826  0.5142  1.0000
  C   C183      1.0  0.40673  0.45993  0.5379  1.0000
  H   H95       1.0  0.4393500000000001  0.47648  0.5083499999999999  1.0000
  H   H96       1.0  0.42801  0.40254  0.5621199999999998  1.0000
  C   C184      1.0  0.39528  0.55957  0.5676399999999999  1.0000
  H   H97       1.0  0.36484  0.61114  0.54727  1.0000
  H   H98       1.0  0.37438000000000005  0.54156  0.60371  1.0000
  C   C185      1.0  0.45285  0.61642  0.57836  1.0000
  H   H99       1.0  0.48426  0.56602  0.5989  1.0000
  H   H100      1.0  0.44338  0.68545  0.60122  1.0000
  H   H101      1.0  0.47342  0.6413599999999999  0.5431599999999999  1.0000
  O   O56       1.0  0.65568  0.42198  0.48784  1.0000
  C   C186      1.0  0.59776  0.4379499999999999  0.46815  1.0000
  H   H102      1.0  0.56852  0.45349  0.50022  1.0000
  H   H103      1.0  0.58156  0.3664799999999999  0.45079  1.0000
  C   C187      1.0  0.59107  0.52962  0.43201  1.0000
  H   H104      1.0  0.61418  0.59834  0.44648  1.0000
  H   H105      1.0  0.61034  0.51094  0.39538  1.0000
  C   C188      1.0  0.52598  0.55664  0.42359  1.0000
  H   H106      1.0  0.5012299999999998  0.48896  0.40949999999999986  1.0000
  H   H107      1.0  0.52252  0.61923  0.39580999999999994  1.0000
  H   H108      1.0  0.50569  0.58323  0.4586999999999999  1.0000
  O   O57       1.0  0.8079599999999999  0.11485999999999998  0.48828  1.0000
  C   C189      1.0  0.82844  0.20625  0.46596999999999994  1.0000
  H   H109      1.0  0.82675  0.26622  0.49476  1.0000
  H   H110      1.0  0.79983  0.23520999999999995  0.4352799999999999  1.0000
  C   C190      1.0  0.89314  0.19305  0.45007999999999987  1.0000
  H   H111      1.0  0.92093  0.17730999999999994  0.4832499999999999  1.0000
  H   H112      1.0  0.89724  0.1267  0.4244899999999999  1.0000
  C   C191      1.0  0.91696  0.28875  0.42461  1.0000
  H   H113      1.0  0.89212  0.3032  0.3897099999999999  1.0000
  H   H114      1.0  0.9644400000000001  0.27723  0.41542999999999997  1.0000
  H   H115      1.0  0.9133300000000001  0.35642  0.44948  1.0000
  O   O58       1.0  0.17936  0.11177  0.51686  1.0000
  C   C192      1.0  0.15936  0.20086  0.54196  1.0000
  H   H116      1.0  0.1561  0.2637999999999999  0.51454  1.0000
  H   H117      1.0  0.19083  0.22794  0.57096  1.0000
  C   C193      1.0  0.09689  0.18491  0.56246  1.0000
  H   H118      1.0  0.06475  0.18616  0.53119  1.0000
  H   H119      1.0  0.09358000000000001  0.10923  0.5811199999999999  1.0000
  C   C194      1.0  0.08008  0.26951  0.59904  1.0000
  H   H120      1.0  0.11027  0.26767  0.63166  1.0000
  H   H121      1.0  0.03409  0.25789  0.6121999999999997  1.0000
  H   H122      1.0  0.08234  0.34589  0.58092  1.0000
  O   O59       1.0  0.2664  0.62318  0.49231999999999987  1.0000
  C   C195      1.0  0.29948  0.70575  0.47251  1.0000
  H   H123      1.0  0.31073  0.7547799999999999  0.50459  1.0000
  H   H124      1.0  0.2717  0.75377  0.44799  1.0000
  C   C196      1.0  0.35766  0.67343  0.4465699999999999  1.0000
  H   H125      1.0  0.37513  0.60098  0.4623699999999999  1.0000
  H   H126      1.0  0.34923  0.65975  0.40655  1.0000
  C   C197      1.0  0.40519  0.75638  0.45108  1.0000
  H   H127      1.0  0.3891299999999999  0.82946  0.4348499999999999  1.0000
  H   H128      1.0  0.44541  0.7325299999999998  0.4306399999999999  1.0000
  H   H129      1.0  0.41734  0.76902  0.49053999999999987  1.0000
  O   O60       1.0  0.68302  0.60962  0.51645  1.0000
  C   C198      1.0  0.66657  0.7030599999999998  0.53946  1.0000
  H   H130      1.0  0.67387  0.7641799999999999  0.5120499999999999  1.0000
  H   H131      1.0  0.69392  0.7252899999999999  0.57223  1.0000
  C   C199      1.0  0.60061  0.6998199999999998  0.55241  1.0000
  H   H132      1.0  0.5744  0.6855  0.5181799999999999  1.0000
  H   H133      1.0  0.59226  0.63586  0.57864  1.0000
  C   C200      1.0  0.57952  0.8002999999999999  0.57554  1.0000
  H   H134      1.0  0.6037299999999999  0.81509  0.6107099999999998  1.0000
  H   H135      1.0  0.53151  0.79552  0.58384  1.0000
  H   H136      1.0  0.58625  0.86499  0.54945  1.0000
  C   C201      1.0  0.5088  0.34633  0.8606999999999998  1.0000
  C   C202      1.0  0.46893  0.4195599999999999  0.8415799999999999  1.0000
  C   C203      1.0  0.48857  0.49515  0.80882  1.0000
  C   C204      1.0  0.54809  0.49803  0.79476  1.0000
  C   C205      1.0  0.58797  0.42517  0.81335  1.0000
  C   C206      1.0  0.56848  0.34956  0.8461699999999998  1.0000
  H   H137      1.0  0.42295  0.41844  0.8525799999999998  1.0000
  H   H138      1.0  0.45769000000000004  0.55167  0.7945199999999999  1.0000
  H   H139      1.0  0.56331  0.55662  0.76944  1.0000
  H   H140      1.0  0.63397  0.42701  0.8021999999999998  1.0000
  H   H141      1.0  0.59979  0.2933  0.8601699999999998  1.0000
  C   C207      1.0  0.49094  0.34618999999999994  0.13935  1.0000
  C   C208      1.0  0.53055  0.4194699999999999  0.15866  1.0000
  C   C209      1.0  0.5106  0.4948999999999999  0.19153999999999996  1.0000
  C   C210      1.0  0.45105  0.49754  0.20556  1.0000
  C   C211      1.0  0.41145  0.4245999999999999  0.1868  1.0000
  C   C212      1.0  0.43123  0.34918999999999994  0.15382999999999994  1.0000
  H   H142      1.0  0.57656  0.41848  0.14773  1.0000
  H   H143      1.0  0.54127  0.55146  0.20598999999999998  1.0000
  H   H144      1.0  0.4356  0.55598  0.23098999999999997  1.0000
  H   H145      1.0  0.36544  0.42623  0.19793  1.0000
  H   H146      1.0  0.40014000000000005  0.29286  0.1397  1.0000
  C   C213      1.0  0.00893  0.8462099999999998  0.86068  1.0000
  C   C214      1.0  0.96913  0.9194899999999998  0.84149  1.0000
  C   C215      1.0  0.98887  0.9949499999999999  0.8086999999999998  1.0000
  C   C216      1.0  0.04841999999999999  0.99765  0.79468  1.0000
  C   C217      1.0  0.08822  0.92474  0.8133399999999997  1.0000
  C   C218      1.0  0.06863  0.84927  0.8461999999999997  1.0000
  H   H147      1.0  0.92313  0.9184899999999999  0.8524399999999998  1.0000
  H   H148      1.0  0.95805  0.05149999999999999  0.79434  1.0000
  H   H149      1.0  0.06371  0.05613  0.76933  1.0000
  H   H150      1.0  0.13423  0.92645  0.8022299999999998  1.0000
  H   H151      1.0  0.09989  0.7929699999999997  0.8602499999999998  1.0000
  C   C219      1.0  0.99112  0.8463899999999998  0.13935  1.0000
  C   C220      1.0  0.03084  0.91958  0.15857  1.0000
  C   C221      1.0  0.01105  0.99511  0.19146  1.0000
  C   C222      1.0  0.9515300000000001  0.99796  0.20556999999999995  1.0000
  C   C223      1.0  0.91181  0.92513  0.18687999999999996  1.0000
  C   C224      1.0  0.93145  0.8496  0.15391  1.0000
  H   H152      1.0  0.07683  0.9184399999999998  0.14756  1.0000
  H   H153      1.0  0.04181  0.05158999999999998  0.20585  1.0000
  H   H154      1.0  0.9362  0.05647999999999999  0.23101  1.0000
  H   H155      1.0  0.86583  0.92692  0.19807999999999995  1.0000
  H   H156      1.0  0.90026  0.79335  0.13985  1.0000
  C   C225      1.0  0.48815  0.4639199999999999  0.94961  1.0000
  C   C226      1.0  0.4312  0.50741  0.9469  1.0000
  C   C227      1.0  0.42358  0.60771  0.92936  1.0000
  C   C228      1.0  0.47273999999999994  0.66531  0.91481  1.0000
  C   C229      1.0  0.52961  0.6227699999999999  0.9177799999999998  1.0000
  C   C230      1.0  0.5373  0.52262  0.9353199999999998  1.0000
  H   H157      1.0  0.39313999999999993  0.46375  0.9588799999999997  1.0000
  H   H158      1.0  0.3796999999999999  0.6412  0.9273399999999998  1.0000
  H   H159      1.0  0.46676  0.74294  0.9013399999999999  1.0000
  H   H160      1.0  0.56772  0.6673799999999999  0.90663  1.0000
  H   H161      1.0  0.58126  0.4902099999999999  0.9377099999999999  1.0000
  C   C231      1.0  0.51161  0.46387  0.05063  1.0000
  C   C232      1.0  0.56848  0.50726  0.05342  1.0000
  C   C233      1.0  0.5759  0.60754  0.07111  1.0000
  C   C234      1.0  0.52662  0.6652099999999997  0.08571  1.0000
  C   C235      1.0  0.4698300000000001  0.62276  0.08265999999999997  1.0000
  C   C236      1.0  0.46234  0.52263  0.06498  1.0000
  H   H162      1.0  0.60663  0.4635799999999999  0.041379999999999986  1.0000
  H   H163      1.0  0.61972  0.64097  0.07318  1.0000
  H   H164      1.0  0.53245  0.7428299999999999  0.09929  1.0000
  H   H165      1.0  0.43162999999999996  0.66742  0.09386  1.0000
  H   H166      1.0  0.41845  0.4902899999999999  0.06252  1.0000
  C   C237      1.0  0.9882099999999999  0.96391  0.9495599999999998  1.0000
  C   C238      1.0  0.93126  0.00739  0.9468299999999998  1.0000
  C   C239      1.0  0.92365  0.10766999999999997  0.92925  1.0000
  C   C240      1.0  0.9728199999999999  0.16524999999999998  0.9146899999999998  1.0000
  C   C241      1.0  0.02968  0.1227  0.9176899999999999  1.0000
  C   C242      1.0  0.037369999999999994  0.02257  0.9352599999999998  1.0000
  H   H167      1.0  0.89319  0.9637599999999998  0.9588099999999999  1.0000
  H   H168      1.0  0.87977  0.14116  0.92721  1.0000
  H   H169      1.0  0.9668500000000001  0.24285999999999996  0.90119  1.0000
  H   H170      1.0  0.06779999999999999  0.16729  0.90653  1.0000
  H   H171      1.0  0.08132  0.99015  0.9376699999999998  1.0000
  C   C243      1.0  0.011659999999999998  0.9639399999999998  0.05058999999999999  1.0000
  C   C244      1.0  0.06852  0.00736  0.05332  1.0000
  C   C245      1.0  0.07594  0.10764999999999998  0.07098999999999998  1.0000
  C   C246      1.0  0.02667  0.16531  0.08562  1.0000
  C   C247      1.0  0.96989  0.12283999999999998  0.08259999999999999  1.0000
  C   C248      1.0  0.9623900000000001  0.02269  0.06495  1.0000
  H   H172      1.0  0.10666999999999999  0.96367  0.04127999999999998  1.0000
  H   H173      1.0  0.11975999999999999  0.14109  0.07304  1.0000
  H   H174      1.0  0.0325  0.24294  0.09917999999999999  1.0000
  H   H175      1.0  0.93169  0.16748999999999997  0.09380999999999998  1.0000
  H   H176      1.0  0.9185  0.99034  0.06252  1.0000
