data_image0
_chemical_formula_structural       O8C4O8C4O4V4C4H8C52H24
_chemical_formula_sum              "O20 C64 V4 H32"
_cell_length_a       7.24141
_cell_length_b       14.79681
_cell_length_c       22.56443
_cell_angle_alpha    90.00012
_cell_angle_beta     90.00794
_cell_angle_gamma    88.92402

_symmetry_space_group_name_H-M    'P 1'
_symmetry_Int_Tables_number       1

loop_
  _symmetry_equiv_pos_as_xyz
  'x,y,z'

loop_
  _atom_site_type_symbol
  _atom_site_label
  _atom_site_symmetry_multiplicity
  _atom_site_fract_x
  _atom_site_fract_y
  _atom_site_fract_z
  _atom_site_occupancy
  O   O1        1.0  0.39081000000000005  0.84481  0.44734  1.0000
  O   O2        1.0  0.10919  0.15519  0.94734  1.0000
  O   O3        1.0  0.8908099999999998  0.65519  0.55266  1.0000
  O   O4        1.0  0.60919  0.34481  0.05266  1.0000
  O   O5        1.0  0.7205499999999998  0.65582  0.44042  1.0000
  O   O6        1.0  0.77945  0.34418  0.94042  1.0000
  O   O7        1.0  0.22055  0.84418  0.55958  1.0000
  O   O8        1.0  0.27945  0.15582  0.05958  1.0000
  C   C1        1.0  0.55364  0.62653  0.42617999999999995  1.0000
  C   C2        1.0  0.94634  0.37347  0.92618  1.0000
  C   C3        1.0  0.050769999999999996  0.87329  0.5738  1.0000
  C   C4        1.0  0.44925  0.12671  0.0738  1.0000
  O   O9        1.0  0.72053  0.84413  0.44042  1.0000
  O   O10       1.0  0.77947  0.15587  0.94042  1.0000
  O   O11       1.0  0.22053  0.65587  0.55958  1.0000
  O   O12       1.0  0.27947  0.34413  0.05958  1.0000
  O   O13       1.0  0.89083  0.84481  0.55266  1.0000
  O   O14       1.0  0.60917  0.15519  0.05266  1.0000
  O   O15       1.0  0.3908299999999999  0.65519  0.44734  1.0000
  O   O16       1.0  0.10917  0.34481  0.94734  1.0000
  C   C5        1.0  0.5507899999999998  0.87345  0.42632  1.0000
  C   C6        1.0  0.94919  0.12655  0.92632  1.0000
  C   C7        1.0  0.05371  0.62677  0.57397  1.0000
  C   C8        1.0  0.44631  0.37323999999999996  0.07397  1.0000
  O   O17       1.0  0.55731  0.7499799999999999  0.53682  1.0000
  O   O18       1.0  0.9426899999999998  0.25002  0.03682  1.0000
  O   O19       1.0  0.05731  0.75002  0.46318  1.0000
  O   O20       1.0  0.44269  0.24998  0.9631799999999999  1.0000
  V   V1        1.0  0.83216  0.7499799999999999  0.49317  1.0000
  V   V2        1.0  0.66784  0.25002  0.99317  1.0000
  V   V3        1.0  0.33215999999999996  0.75002  0.50683  1.0000
  V   V4        1.0  0.16784  0.24998  0.00683  1.0000
  C   C9        1.0  0.85548  0.60147  0.85748  1.0000
  C   C10       1.0  0.64398  0.39846  0.35753  1.0000
  C   C11       1.0  0.52082  0.89312  0.13606  1.0000
  C   C12       1.0  0.98022  0.10692999999999998  0.63607  1.0000
  H   H1        1.0  0.8239299999999999  0.72177  0.77111  1.0000
  H   H2        1.0  0.67527  0.27811  0.27119  1.0000
  H   H3        1.0  0.5837  0.76965  0.21878999999999998  1.0000
  H   H4        1.0  0.9177099999999998  0.23045  0.71879  1.0000
  H   H5        1.0  0.79775  0.66613  0.87148  1.0000
  H   H6        1.0  0.70144  0.33375  0.37155999999999995  1.0000
  H   H7        1.0  0.54266  0.82538  0.11881  1.0000
  H   H8        1.0  0.9589  0.17471  0.61882  1.0000
  C   C13       1.0  0.94689  0.44804  0.88272  1.0000
  C   C14       1.0  0.5530299999999999  0.55197  0.38272  1.0000
  C   C15       1.0  0.46393  0.05204  0.11686  1.0000
  C   C16       1.0  0.03618  0.94794  0.61687  1.0000
  C   C17       1.0  0.12776  0.46827  0.59805  1.0000
  C   C18       1.0  0.37269  0.53179  0.09800000000000002  1.0000
  C   C19       1.0  0.50974  0.03616  0.40722  1.0000
  C   C20       1.0  0.98954  0.9637999999999998  0.90721  1.0000
  C   C21       1.0  0.15295999999999998  0.39709  0.63756  1.0000
  C   C22       1.0  0.34774  0.60302  0.13748  1.0000
  C   C23       1.0  0.47993  0.10985  0.37  1.0000
  C   C24       1.0  0.01905000000000001  0.8900899999999998  0.8699999999999999  1.0000
  C   C25       1.0  0.10786  0.40755  0.69718  1.0000
  C   C26       1.0  0.39273  0.59255  0.19712  1.0000
  C   C27       1.0  0.4739  0.0984  0.30874  1.0000
  C   C28       1.0  0.02533  0.90154  0.80874  1.0000
  C   C29       1.0  0.0313  0.4897299999999999  0.71887  1.0000
  C   C30       1.0  0.46888  0.5103  0.21884999999999996  1.0000
  C   C31       1.0  0.50123  0.01218  0.28273  1.0000
  C   C32       1.0  0.9985699999999998  0.9878  0.78273  1.0000
  C   C33       1.0  0.003939999999999997  0.56265  0.67775  1.0000
  C   C34       1.0  0.49602  0.43734  0.17775  1.0000
  C   C35       1.0  0.53395  0.93669  0.32135  1.0000
  C   C36       1.0  0.9662  0.06332  0.82135  1.0000
  C   C37       1.0  0.9828199999999998  0.50217  0.7800399999999998  1.0000
  C   C38       1.0  0.51718  0.49784  0.28004  1.0000
  C   C39       1.0  0.49585  0.9983  0.21982  1.0000
  C   C40       1.0  0.0042  0.00169  0.71982  1.0000
  C   C41       1.0  0.9076899999999999  0.58716  0.79827  1.0000
  C   C42       1.0  0.59195  0.41279  0.29831  1.0000
  C   C43       1.0  0.5244899999999998  0.90938  0.19734  1.0000
  C   C44       1.0  0.9762  0.09066  0.69734  1.0000
  C   C45       1.0  0.8826499999999998  0.6572299999999999  0.75731  1.0000
  C   C46       1.0  0.6168199999999998  0.3426899999999999  0.25737  1.0000
  C   C47       1.0  0.55847  0.8371  0.23596  1.0000
  C   C48       1.0  0.9424999999999998  0.16296  0.73596  1.0000
  C   C49       1.0  0.93063  0.6455  0.69816  1.0000
  C   C50       1.0  0.56898  0.3544399999999999  0.19819999999999996  1.0000
  C   C51       1.0  0.56218  0.85025  0.29689  1.0000
  C   C52       1.0  0.93852  0.14979999999999996  0.79689  1.0000
  C   C53       1.0  0.0029299999999999986  0.43316  0.82378  1.0000
  C   C54       1.0  0.49721  0.56688  0.32376  1.0000
  C   C55       1.0  0.46527  0.0693  0.17813  1.0000
  C   C56       1.0  0.034449999999999995  0.93066  0.67814  1.0000
  C   C57       1.0  0.87306  0.5323  0.89905  1.0000
  C   C58       1.0  0.62652  0.46765  0.39909  1.0000
  C   C59       1.0  0.49166  0.96388  0.09625  1.0000
  C   C60       1.0  0.00914  0.03615  0.59626  1.0000
  C   C61       1.0  0.054340000000000006  0.55139  0.61716  1.0000
  C   C62       1.0  0.44576  0.44862  0.11715  1.0000
  C   C63       1.0  0.53627  0.94938  0.38385  1.0000
  C   C64       1.0  0.9636  0.05062  0.88384  1.0000
  H   H9        1.0  0.16896999999999998  0.45897  0.55224  1.0000
  H   H10       1.0  0.3316099999999999  0.54111  0.052169999999999994  1.0000
  H   H11       1.0  0.50975  0.04669  0.45475  1.0000
  H   H12       1.0  0.98929  0.95326  0.95475  1.0000
  H   H13       1.0  0.21132  0.33348  0.62203  1.0000
  H   H14       1.0  0.28969  0.66669  0.12192  1.0000
  H   H15       1.0  0.45869  0.17654  0.38884  1.0000
  H   H16       1.0  0.03983  0.82337  0.88884  1.0000
  H   H17       1.0  0.90861  0.70204  0.66839  1.0000
  H   H18       1.0  0.59084  0.29787  0.16844  1.0000
  H   H19       1.0  0.58875  0.7919199999999998  0.3248  1.0000
  H   H20       1.0  0.9122  0.20815  0.82479  1.0000
  H   H21       1.0  0.8271  0.54423  0.94412  1.0000
  H   H22       1.0  0.67232  0.45569  0.4441800000000001  1.0000
  H   H23       1.0  0.49301  0.95001  0.0491  1.0000
  H   H24       1.0  0.00815  0.05005  0.54911  1.0000
  H   H25       1.0  0.055619999999999996  0.36651  0.81327  1.0000
  H   H26       1.0  0.44476  0.63357  0.31323  1.0000
  H   H27       1.0  0.4458299999999999  0.1387  0.19155  1.0000
  H   H28       1.0  0.05339  0.86123  0.69156  1.0000
  H   H29       1.0  0.13675  0.35024  0.72525  1.0000
  H   H30       1.0  0.36409  0.64992  0.22517  1.0000
  H   H31       1.0  0.44612  0.15838  0.28304  1.0000
  H   H32       1.0  0.052840000000000005  0.84154  0.78305  1.0000
