data_image0
_chemical_formula_structural       C42Cu2H18N4O12Cl2
_chemical_formula_sum              "C42 Cu2 H18 N4 O12 Cl2"
_cell_length_a       27.78726
_cell_length_b       8.67535
_cell_length_c       7.43823
_cell_angle_alpha    103.05568
_cell_angle_beta     93.88393000000002
_cell_angle_gamma    92.43751

_space_group_name_H-M_alt    "P 1"
_space_group_IT_number       1

loop_
  _space_group_symop_operation_xyz
  'x, y, z'

loop_
  _atom_site_type_symbol
  _atom_site_label
  _atom_site_symmetry_multiplicity
  _atom_site_fract_x
  _atom_site_fract_y
  _atom_site_fract_z
  _atom_site_occupancy
  C   C1        1.0  0.49853999999999987  0.19965  0.45315  1.0000
  C   C2        1.0  0.50146  0.80035  0.54685  1.0000
  C   C3        1.0  0.10220999999999997  0.4985800000000001  0.51493  1.0000
  C   C4        1.0  0.89779  0.50142  0.48507  1.0000
  C   C5        1.0  0.12516  0.35429999999999995  0.4815799999999999  1.0000
  C   C6        1.0  0.8748399999999997  0.6457  0.51841  1.0000
  C   C7        1.0  0.09729  0.21147  0.4416799999999999  1.0000
  C   C8        1.0  0.9027099999999998  0.7885200000000002  0.5583199999999998  1.0000
  C   C9        1.0  0.13071  0.64214  0.55468  1.0000
  C   C10       1.0  0.86929  0.35786  0.44532  1.0000
  C   C11       1.0  0.35472  0.49843000000000004  0.50999  1.0000
  C   C12       1.0  0.64528  0.50157  0.4900099999999999  1.0000
  C   C13       1.0  0.97152  0.35369  0.45778  1.0000
  C   C14       1.0  0.02848  0.64631  0.54222  1.0000
  C   C15       1.0  0.9772  0.64702  0.53407  1.0000
  C   C16       1.0  0.022799999999999997  0.35298  0.46593  1.0000
  C   C17       1.0  0.9490699999999999  0.50071  0.49222  1.0000
  C   C18       1.0  0.05093  0.49929000000000007  0.50778  1.0000
  C   C19       1.0  0.94157  0.21186999999999998  0.4159299999999999  1.0000
  C   C20       1.0  0.05843  0.78813  0.58407  1.0000
  C   C21       1.0  0.89161  0.21433000000000002  0.4105  1.0000
  C   C22       1.0  0.10839  0.78567  0.5895  1.0000
  C   C23       1.0  0.40752  0.4995500000000001  0.50297  1.0000
  C   C24       1.0  0.59248  0.50045  0.49703  1.0000
  C   C25       1.0  0.04723999999999998  0.21040999999999999  0.43378  1.0000
  C   C26       1.0  0.9527599999999999  0.78959  0.5662199999999997  1.0000
  C   C27       1.0  0.4978399999999999  0.03166999999999998  0.42681  1.0000
  C   C28       1.0  0.50216  0.9683300000000001  0.57319  1.0000
  C   C29       1.0  0.17578  0.35626  0.48788  1.0000
  C   C30       1.0  0.8242199999999997  0.64374  0.51211  1.0000
  C   C31       1.0  0.18119  0.63881  0.55772  1.0000
  C   C32       1.0  0.81881  0.36118999999999996  0.4422799999999999  1.0000
  C   C33       1.0  0.28408  0.5341399999999998  0.6875799999999999  1.0000
  C   C34       1.0  0.71592  0.46586000000000005  0.31241999999999986  1.0000
  C   C35       1.0  0.33418  0.53448  0.68107  1.0000
  C   C36       1.0  0.6658199999999997  0.46553000000000005  0.3189299999999999  1.0000
  C   C37       1.0  0.32437  0.46053  0.34541  1.0000
  C   C38       1.0  0.67563  0.53947  0.65459  1.0000
  C   C39       1.0  0.27441  0.45878  0.35187  1.0000
  C   C40       1.0  0.72559  0.54121  0.64812  1.0000
  C   C41       1.0  0.2540599999999999  0.49637  0.5221499999999999  1.0000
  C   C42       1.0  0.74594  0.50363  0.47785  1.0000
  Cu  Cu1       1.0  0.5053799999999999  0.51738  0.6843799999999998  1.0000
  Cu  Cu2       1.0  0.49461999999999995  0.48262  0.3156199999999999  1.0000
  H   H1        1.0  0.3391499999999999  0.43147000000000013  0.21164999999999998  1.0000
  H   H2        1.0  0.66085  0.56852  0.78835  1.0000
  H   H3        1.0  0.46217999999999987  0.37823  0.94864  1.0000
  H   H4        1.0  0.53782  0.62177  0.05136  1.0000
  H   H5        1.0  0.2513  0.42872  0.22436  1.0000
  H   H6        1.0  0.7487  0.5712799999999999  0.7756399999999998  1.0000
  H   H7        1.0  0.11407  0.09892999999999999  0.41519  1.0000
  H   H8        1.0  0.88593  0.90107  0.5847999999999998  1.0000
  H   H9        1.0  0.6430699999999998  0.43623999999999996  0.19035  1.0000
  H   H10       1.0  0.3569299999999999  0.56377  0.8096499999999998  1.0000
  H   H11       1.0  0.87047  0.10232000000000002  0.37831  1.0000
  H   H12       1.0  0.12954  0.8976800000000003  0.6216899999999997  1.0000
  H   H13       1.0  0.9552699999999998  0.09557  0.3860299999999999  1.0000
  H   H14       1.0  0.044729999999999985  0.9044200000000002  0.61398  1.0000
  H   H15       1.0  0.02900999999999999  0.09457  0.4015499999999999  1.0000
  H   H16       1.0  0.9709899999999998  0.9054300000000002  0.59845  1.0000
  H   H17       1.0  0.4937799999999999  0.95982  0.2858499999999999  1.0000
  H   H18       1.0  0.50622  0.04018000000000002  0.71415  1.0000
  N   N1        1.0  0.20257  0.4972  0.52491  1.0000
  N   N2        1.0  0.7974299999999998  0.5028000000000002  0.47509  1.0000
  N   N3        1.0  0.48651  0.45643  0.03851  1.0000
  N   N4        1.0  0.5134899999999999  0.54357  0.96149  1.0000
  O   O1        1.0  0.5035  0.28612  0.6197799999999999  1.0000
  O   O2        1.0  0.4964999999999999  0.71388  0.38022  1.0000
  O   O3        1.0  0.4944099999999999  0.25678  0.30836  1.0000
  O   O4        1.0  0.50559  0.74322  0.69164  1.0000
  O   O5        1.0  0.43481  0.5147  0.65569  1.0000
  O   O6        1.0  0.56519  0.48530000000000006  0.34431  1.0000
  O   O7        1.0  0.42572  0.48535000000000006  0.34428  1.0000
  O   O8        1.0  0.5742799999999999  0.5146500000000002  0.6557199999999997  1.0000
  O   O9        1.0  0.19810999999999998  0.21859999999999996  0.4570799999999999  1.0000
  O   O10       1.0  0.8019  0.78139  0.54292  1.0000
  O   O11       1.0  0.7912699999999999  0.22422000000000006  0.4083  1.0000
  O   O12       1.0  0.20872999999999994  0.77578  0.5917  1.0000
  Cl  Cl1       1.0  0.7403799999999998  0.41977  0.09612  1.0000
  Cl  Cl2       1.0  0.25962  0.58023  0.9038799999999998  1.0000
