data_image0
_chemical_formula_structural       C42Cr6H14O26CO2HCO2HFCO2H
_chemical_formula_sum              "C45 Cr6 H17 O32 F1"
_cell_length_a       10.67121
_cell_length_b       10.70091
_cell_length_c       17.108389999999996
_cell_angle_alpha    80.57786
_cell_angle_beta     99.33025
_cell_angle_gamma    118.56696999999998

_symmetry_space_group_name_H-M    'P 1'
_symmetry_Int_Tables_number       1

loop_
  _symmetry_equiv_pos_as_xyz
  'x,y,z'

loop_
  _atom_site_type_symbol
  _atom_site_label
  _atom_site_symmetry_multiplicity
  _atom_site_fract_x
  _atom_site_fract_y
  _atom_site_fract_z
  _atom_site_occupancy
  C   C1        1.0  0.3615  0.22998000000000002  0.62769  1.0000
  C   C2        1.0  0.38641  0.8205  0.6756  1.0000
  C   C3        1.0  0.3706300000000001  0.8429000000000001  0.75073  1.0000
  C   C4        1.0  0.10474999999999998  0.45463  0.78924  1.0000
  C   C5        1.0  0.12692  0.42594000000000004  0.70918  1.0000
  C   C6        1.0  0.32706  0.68036  0.65409  1.0000
  C   C7        1.0  0.8234899999999999  0.657  0.70595  1.0000
  C   C8        1.0  0.8515600000000001  0.68498  0.7735599999999998  1.0000
  C   C9        1.0  0.34546999999999994  0.18853999999999999  0.70993  1.0000
  C   C10       1.0  0.32094  0.16043999999999997  0.77821  1.0000
  C   C11       1.0  0.33607  0.66539  0.2778199999999999  1.0000
  C   C12       1.0  0.36979  0.65434  0.58547  1.0000
  C   C13       1.0  0.32323  0.67468  0.20717999999999995  1.0000
  C   C14       1.0  0.80611  0.65089  0.15215  1.0000
  C   C15       1.0  0.80457  0.53486  0.20426  1.0000
  C   C16       1.0  0.7640800000000001  0.50916  0.27965  1.0000
  C   C17       1.0  0.70686  0.70652  0.25134  1.0000
  C   C18       1.0  0.74803  0.73181  0.17398  1.0000
  C   C19       1.0  0.92557  0.49885  0.23056  1.0000
  C   C20       1.0  0.88233  0.47118  0.314  1.0000
  C   C21       1.0  0.72589  0.60176  0.30639  1.0000
  C   C22       1.0  0.31402  0.14654  0.16512  1.0000
  C   C23       1.0  0.77698  0.61897  0.6268999999999998  1.0000
  C   C24       1.0  0.20647  0.15947  0.19363  1.0000
  C   C25       1.0  0.20921  0.16741000000000003  0.27269  1.0000
  C   C26       1.0  0.41981999999999997  0.13165  0.30101  1.0000
  C   C27       1.0  0.41633000000000003  0.12294  0.22001  1.0000
  C   C28       1.0  0.15493  0.26885  0.1677  1.0000
  C   C29       1.0  0.15603  0.27735  0.25527  1.0000
  C   C30       1.0  0.32149  0.16394  0.32669  1.0000
  C   C31       1.0  0.8924899999999999  0.7023  0.8556399999999997  1.0000
  C   C32       1.0  0.28357  0.7489999999999999  0.88299  1.0000
  C   C33       1.0  0.28441  0.1144  0.85766  1.0000
  C   C34       1.0  0.35074  0.22588999999999998  0.40017  1.0000
  C   C35       1.0  0.8841  0.68942  0.08273  1.0000
  C   C36       1.0  0.31259  0.70139  0.12406999999999999  1.0000
  C   C37       1.0  0.28512  0.1067  0.08543  1.0000
  C   C38       1.0  0.3655  0.65432  0.36077  1.0000
  C   C39       1.0  0.70348  0.5842  0.38971  1.0000
  C   C40       1.0  0.29406  0.7257  0.80439  1.0000
  C   C41       1.0  0.24442999999999995  0.58794  0.78379  1.0000
  C   C42       1.0  0.26183  0.56575  0.7108  1.0000
  Cr  Cr1       1.0  0.60844  0.38908  0.51968  1.0000
  Cr  Cr2       1.0  0.2886400000000001  0.40009  0.4907599999999999  1.0000
  Cr  Cr3       1.0  0.60294  0.7108  0.48950999999999995  1.0000
  Cr  Cr4       1.0  0.05252999999999992  0.94756  0.9642099999999999  1.0000
  Cr  Cr5       1.0  0.05996999999999998  0.6268  0.99292  1.0000
  Cr  Cr6       1.0  0.3733200000000001  0.93844  0.99537  1.0000
  H   H1        1.0  0.44678  0.912  0.63506  1.0000
  H   H2        1.0  0.90952  0.4033999999999999  0.20406  1.0000
  H   H3        1.0  0.96457  0.54954  0.35438  1.0000
  H   H4        1.0  0.50326  0.12189999999999998  0.34255  1.0000
  H   H5        1.0  0.4933699999999999  0.09885  0.20055  1.0000
  H   H6        1.0  0.23592  0.36873  0.13738  1.0000
  H   H7        1.0  0.23744000000000004  0.38259999999999994  0.27451  1.0000
  H   H8        1.0  0.04872000000000001  0.23713000000000004  0.27631  1.0000
  H   H9        1.0  0.41768  0.95106  0.76684  1.0000
  H   H10       1.0  0.012099999999999939  0.47551  0.78915  1.0000
  H   H11       1.0  0.15048000000000003  0.33425000000000005  0.71363  1.0000
  H   H12       1.0  0.66953  0.77435  0.26948  1.0000
  H   H13       1.0  0.74329  0.81903  0.13377  1.0000
  H   H14       1.0  0.032069999999999974  0.5933099999999999  0.22348  1.0000
  O   O1        1.0  0.7540200000000001  0.49759000000000003  0.60993  1.0000
  O   O2        1.0  0.29508  0.53362  0.39789  1.0000
  O   O3        1.0  0.4852799999999999  0.74662  0.3884399999999999  1.0000
  O   O4        1.0  0.72055  0.69622  0.42001  1.0000
  O   O5        1.0  0.5000100000000001  0.49999000000000005  0.4999799999999999  1.0000
  O   O6        1.0  0.16331999999999997  0.0929  0.87445  1.0000
  O   O7        1.0  0.93465  0.8220800000000001  0.88284  1.0000
  O   O8        1.0  0.91552  0.60414  0.89367  1.0000
  O   O9        1.0  0.19176  0.63811  0.92323  1.0000
  O   O10       1.0  0.4061799999999999  0.8269299999999999  0.92066  1.0000
  O   O11       1.0  0.35862  0.06286999999999998  0.90195  1.0000
  O   O12       1.0  0.48142  0.27139  0.60063  1.0000
  O   O13       1.0  0.16391  0.08546  0.05021  1.0000
  O   O14       1.0  0.9351999999999999  0.81517  0.04577  1.0000
  O   O15       1.0  0.91612  0.59669  0.06943  1.0000
  O   O16       1.0  0.19230999999999998  0.6312  0.08617  1.0000
  O   O17       1.0  0.40676999999999996  0.81948  0.09642  1.0000
  O   O18       1.0  0.35917  0.05596  0.06488  1.0000
  O   O19       1.0  0.16193999999999997  0.8376  0.98416  1.0000
  O   O20       1.0  0.26381  0.25454999999999994  0.58959  1.0000
  O   O21       1.0  0.3008199999999999  0.5312  0.56089  1.0000
  O   O22       1.0  0.49148  0.74402  0.56427  1.0000
  O   O23       1.0  0.72629  0.6938  0.58301  1.0000
  O   O24       1.0  0.74783  0.50019  0.43409  1.0000
  O   O25       1.0  0.47568000000000005  0.2738  0.43763  1.0000
  O   O26       1.0  0.25762  0.25716  0.41375  1.0000
  C   C43       1.0  0.83041  0.31803  0.34932999999999986  1.0000
  O   O27       1.0  0.7561100000000001  0.2194  0.30834  1.0000
  O   O28       1.0  0.87086  0.28976  0.4294  1.0000
  H   H15       1.0  0.83071  0.18359000000000003  0.4467599999999999  1.0000
  C   C44       1.0  0.007750000000000033  0.21093000000000006  0.12298  1.0000
  O   O29       1.0  0.90885  0.09984  0.14844  1.0000
  O   O30       1.0  0.98524  0.28604  0.05191999999999999  1.0000
  H   H16       1.0  0.88256  0.23794000000000004  0.02704  1.0000
  F   F1        1.0  0.11391999999999995  0.35699999999999993  0.85081  1.0000
  C   C45       1.0  0.010889999999999995  0.41823  0.64392  1.0000
  O   O31       1.0  0.89387  0.31206  0.64426  1.0000
  O   O32       1.0  0.03718  0.52822  0.58214  1.0000
  H   H17       1.0  0.95451  0.5043  0.53899  1.0000
