data_image0
_chemical_formula_structural       C60ClCr6H43N2O26
_chemical_formula_sum              "C60 Cl1 Cr6 H43 N2 O26"
_cell_length_a       11.09629
_cell_length_b       10.94476
_cell_length_c       18.77252
_cell_angle_alpha    90.06407
_cell_angle_beta     89.97842
_cell_angle_gamma    60.310629999999996

_symmetry_space_group_name_H-M    'P 1'
_symmetry_Int_Tables_number       1

loop_
  _symmetry_equiv_pos_as_xyz
  'x,y,z'

loop_
  _atom_site_type_symbol
  _atom_site_label
  _atom_site_symmetry_multiplicity
  _atom_site_fract_x
  _atom_site_fract_y
  _atom_site_fract_z
  _atom_site_occupancy
  C   C1        1.0  0.23492  0.64795  0.60933  1.0000
  C   C2        1.0  0.5118799999999999  0.26518  0.72973  1.0000
  C   C3        1.0  0.53121  0.24098  0.80278  1.0000
  C   C4        1.0  0.6557999999999999  0.62434  0.59967  1.0000
  C   C5        1.0  0.90844  0.09427  0.77957  1.0000
  C   C6        1.0  0.88134  0.12877  0.7009899999999998  1.0000
  C   C7        1.0  0.61823  0.25672  0.68676  1.0000
  C   C8        1.0  0.18738  0.67049  0.8358099999999999  1.0000
  C   C9        1.0  0.21461999999999998  0.54956  0.79767  1.0000
  C   C10       1.0  0.2176199999999999  0.54863  0.7234999999999998  1.0000
  C   C11       1.0  0.18008000000000013  0.7853799999999997  0.7235199999999998  1.0000
  C   C12       1.0  0.7906699999999999  0.5328099999999999  0.78868  1.0000
  C   C13       1.0  0.18802000000000005  0.7804199999999999  0.79766  1.0000
  C   C14       1.0  0.14182  0.46694  0.79963  1.0000
  C   C15       1.0  0.13991  0.47098999999999996  0.7189999999999998  1.0000
  C   C16       1.0  0.59532  0.28666  0.61027  1.0000
  C   C17       1.0  0.1925  0.66754  0.68454  1.0000
  C   C18       1.0  0.6758200000000001  0.6805499999999999  0.17442  1.0000
  C   C19       1.0  0.7910699999999999  0.5857099999999998  0.21378  1.0000
  C   C20       1.0  0.78832  0.58012  0.28651999999999994  1.0000
  C   C21       1.0  0.5571899999999999  0.77972  0.28646  1.0000
  C   C22       1.0  0.56056  0.78408  0.21166  1.0000
  C   C23       1.0  0.7217100000000002  0.69291  0.80756  1.0000
  C   C24       1.0  0.8775999999999999  0.4303  0.20539999999999997  1.0000
  C   C25       1.0  0.87785  0.42287  0.28568  1.0000
  C   C26       1.0  0.6665599999999998  0.66862  0.32387  1.0000
  C   C27       1.0  0.6470799999999998  0.17944999999999997  0.17112  1.0000
  C   C28       1.0  0.2183900000000001  0.6513199999999998  0.40287  1.0000
  C   C29       1.0  0.52004  0.22785  0.20561999999999994  1.0000
  C   C30       1.0  0.5140199999999998  0.23637  0.27868  1.0000
  C   C31       1.0  0.7553799999999999  0.16988  0.28486  1.0000
  C   C32       1.0  0.76086  0.16565  0.21090999999999996  1.0000
  C   C33       1.0  0.41586999999999996  0.17898999999999995  0.20277  1.0000
  C   C34       1.0  0.6805200000000001  0.65511  0.67391  1.0000
  C   C35       1.0  0.41231  0.18499999999999997  0.28324999999999995  1.0000
  C   C36       1.0  0.63301  0.19772999999999993  0.31952  1.0000
  C   C37       1.0  0.10695999999999997  0.69564  0.19108  1.0000
  C   C38       1.0  0.08825999999999994  0.81261  0.22992  1.0000
  C   C39       1.0  0.10039000000000003  0.80865  0.30239  1.0000
  C   C40       1.0  0.6432900000000001  0.62475  0.39328  1.0000
  C   C41       1.0  0.12610999999999997  0.57637  0.30246  1.0000
  C   C42       1.0  0.11322999999999997  0.58154  0.22817  1.0000
  C   C43       1.0  0.15615000000000012  0.8998699999999997  0.22009999999999996  1.0000
  C   C44       1.0  0.16797999999999996  0.8985  0.29998  1.0000
  C   C45       1.0  0.7376799999999999  0.75824  0.6782599999999998  1.0000
  C   C46       1.0  0.13663999999999996  0.68348  0.3385799999999999  1.0000
  C   C47       1.0  0.6983899999999998  0.10737999999999999  0.89812  1.0000
  C   C48       1.0  0.75196  0.70942  0.88288  1.0000
  C   C49       1.0  0.11864999999999999  0.70643  0.90573  1.0000
  C   C50       1.0  0.6748899999999998  0.10873999999999999  0.10303999999999999  1.0000
  C   C51       1.0  0.6994099999999999  0.6917099999999999  0.09909999999999998  1.0000
  C   C52       1.0  0.61418  0.23308999999999996  0.39409  1.0000
  C   C53       1.0  0.08490000000000003  0.7137299999999999  0.11514  1.0000
  C   C54       1.0  0.56274  0.75679  0.7936999999999999  1.0000
  C   C55       1.0  0.5435500000000001  0.7153499999999999  0.7176499999999998  1.0000
  C   C56       1.0  0.7888000000000001  0.5153199999999999  0.70918  1.0000
  C   C57       1.0  0.7761200000000001  0.7683999999999999  0.75691  1.0000
  C   C58       1.0  0.66309  0.19436  0.83383  1.0000
  C   C59       1.0  0.76232  0.20304999999999998  0.7926099999999999  1.0000
  C   C60       1.0  0.7390999999999999  0.23321999999999996  0.7203999999999999  1.0000
  Cl  Cl1       1.0  0.49097000000000013  0.58566  0.7237299999999998  1.0000
  Cr  Cr1       1.0  0.39296  0.39792  0.50224  1.0000
  Cr  Cr2       1.0  0.39833999999999997  0.70848  0.5012499999999999  1.0000
  Cr  Cr3       1.0  0.7086699999999999  0.39356999999999986  0.49646  1.0000
  Cr  Cr4       1.0  0.93765  0.9385399999999999  0.007609999999999998  1.0000
  Cr  Cr5       1.0  0.62533  0.9373699999999999  0.99452  1.0000
  Cr  Cr6       1.0  0.9379399999999997  0.6252299999999998  0.0011899999999999999  1.0000
  H   H1        1.0  0.89254  0.47473999999999994  0.6854799999999998  1.0000
  H   H2        1.0  0.52185  0.7105999999999999  0.8334  1.0000
  H   H3        1.0  0.17749999999999996  0.87238  0.82505  1.0000
  H   H4        1.0  0.04020000000000001  0.52922  0.8247699999999999  1.0000
  H   H5        1.0  0.20665999999999998  0.3598699999999999  0.82187  1.0000
  H   H6        1.0  0.197  0.36607  0.69351  1.0000
  H   H7        1.0  0.038300000000000056  0.5403299999999999  0.69488  1.0000
  H   H8        1.0  0.46591000000000005  0.85643  0.31438  1.0000
  H   H9        1.0  0.4720300000000001  0.8636999999999999  0.18308  1.0000
  H   H10       1.0  0.9813299999999999  0.3965399999999999  0.18223999999999999  1.0000
  H   H11       1.0  0.81964  0.3839  0.17935999999999996  1.0000
  H   H12       1.0  0.88954  0.72228  0.76233  1.0000
  H   H13       1.0  0.8235399999999999  0.36812999999999996  0.3055099999999999  1.0000
  H   H14       1.0  0.98172  0.3871299999999999  0.3094499999999999  1.0000
  H   H15       1.0  0.84703  0.14861  0.31482  1.0000
  H   H16       1.0  0.85854  0.13712  0.18560999999999997  1.0000
  H   H17       1.0  0.4588999999999999  0.07099999999999997  0.18203  1.0000
  H   H18       1.0  0.31699  0.25793  0.17769  1.0000
  H   H19       1.0  0.31061  0.26467999999999997  0.30489  1.0000
  H   H20       1.0  0.45727  0.0801  0.3088899999999999  1.0000
  H   H21       1.0  0.14261000000000001  0.48315  0.33037999999999995  1.0000
  H   H22       1.0  0.11646999999999998  0.49416  0.19986999999999994  1.0000
  H   H23       1.0  0.8305399999999998  0.72191  0.6436199999999997  1.0000
  H   H24       1.0  0.08632999999999998  0.0059  0.19829999999999995  1.0000
  H   H25       1.0  0.4639400000000001  0.8088099999999998  0.6898  1.0000
  H   H26       1.0  0.25812000000000007  0.8413099999999998  0.19268999999999997  1.0000
  H   H27       1.0  0.27738  0.84262  0.31710999999999995  1.0000
  H   H28       1.0  0.10287  0.00347  0.3248  1.0000
  H   H29       1.0  0.73214  0.8807499999999999  0.7721299999999999  1.0000
  H   H30       1.0  0.65825  0.86379  0.65881  1.0000
  H   H31       1.0  0.89768  0.46505  0.8069399999999998  1.0000
  H   H32       1.0  0.73157  0.48760999999999993  0.8149999999999997  1.0000
  H   H33       1.0  0.76341  0.43311  0.6983199999999998  1.0000
  H   H34       1.0  0.41715  0.28176  0.70608  1.0000
  H   H35       1.0  0.37867  0.94226  0.80545  1.0000
  H   H36       1.0  0.49796999999999975  0.96217  0.7601299999999998  1.0000
  H   H37       1.0  0.2532400000000001  0.9027299999999999  0.6748999999999998  1.0000
  H   H38       1.0  0.09939000000000009  0.9323899999999999  0.64443  1.0000
  H   H39       1.0  0.4478599999999997  0.24116  0.83269  1.0000
  H   H40       1.0  0.9263800000000001  0.98774  0.7929  1.0000
  H   H41       1.0  0.9827199999999998  0.12339999999999998  0.80305  1.0000
  H   H42       1.0  0.9389399999999999  0.17878  0.6782899999999998  1.0000
  H   H43       1.0  0.88071  0.04365999999999999  0.6688299999999998  1.0000
  N   N1        1.0  0.48439000000000015  0.9105399999999999  0.8035699999999998  1.0000
  N   N2        1.0  0.15938999999999998  0.91222  0.6901699999999997  1.0000
  O   O1        1.0  0.5073799999999999  0.2557  0.58144  1.0000
  O   O2        1.0  0.8371700000000001  0.5934099999999998  0.9152499999999999  1.0000
  O   O3        1.0  0.06520000000000001  0.6355299999999999  0.93157  1.0000
  O   O4        1.0  0.28032  0.52735  0.57893  1.0000
  O   O5        1.0  0.06826000000000007  0.8288899999999998  0.09183999999999998  1.0000
  O   O6        1.0  0.79887  0.05741  0.07934  1.0000
  O   O7        1.0  0.5849299999999998  0.08034999999999999  0.07678  1.0000
  O   O8        1.0  0.6269600000000001  0.80965  0.06706  1.0000
  O   O9        1.0  0.81604  0.59661  0.07651  1.0000
  O   O10       1.0  0.04561  0.6385  0.08106  1.0000
  O   O11       1.0  0.8336400000000002  0.8337099999999997  0.0011  1.0000
  O   O12       1.0  0.5244799999999997  0.6958099999999999  0.42403999999999986  1.0000
  O   O13       1.0  0.26051  0.73959  0.58459  1.0000
  O   O14       1.0  0.5322999999999999  0.69508  0.57382  1.0000
  O   O15       1.0  0.7448399999999998  0.5035  0.57637  1.0000
  O   O16       1.0  0.6991200000000001  0.27656  0.57196  1.0000
  O   O17       1.0  0.49893999999999994  0.2565  0.41986  1.0000
  O   O18       1.0  0.2724999999999999  0.52808  0.4291499999999999  1.0000
  O   O19       1.0  0.25206  0.74038  0.42301  1.0000
  O   O20       1.0  0.73639  0.50429  0.41479  1.0000
  O   O21       1.0  0.6913  0.2772899999999999  0.42216999999999993  1.0000
  O   O22       1.0  0.49999000000000005  0.49999  0.49997999999999987  1.0000
  O   O23       1.0  0.08939999999999997  0.8256899999999998  0.9305699999999999  1.0000
  O   O24       1.0  0.8184599999999997  0.05444  0.92985  1.0000
  O   O25       1.0  0.60606  0.07714999999999997  0.9155099999999999  1.0000
  O   O26       1.0  0.6465500000000001  0.80668  0.91757  1.0000
