data_image0
_chemical_formula_structural       O2CO2CO2CO2CO2CO2CCr3OC48HO2CO2CO2CO2CO2CO2CCr3ONH2NH2NO2NO2NH2NO2NH2NO2NO2NO2NH2NO2NO2NH2NO2NH2NH2NO2NH2NH2NO2NH2NO2
_chemical_formula_sum              "O50 C60 Cr6 H23 N23"
_cell_length_a       11.15161
_cell_length_b       12.7027
_cell_length_c       23.45822
_cell_angle_alpha    90.73354
_cell_angle_beta     96.98987
_cell_angle_gamma    68.67177

_space_group_name_H-M_alt    "P 1"
_space_group_IT_number       1

loop_
  _space_group_symop_operation_xyz
  'x, y, z'

loop_
  _atom_site_type_symbol
  _atom_site_label
  _atom_site_symmetry_multiplicity
  _atom_site_fract_x
  _atom_site_fract_y
  _atom_site_fract_z
  _atom_site_occupancy
  O   O1        1.0  0.19634000000000004  0.3031999999999999  0.4485  1.0000
  O   O2        1.0  0.19931000000000004  0.51967  0.45488  1.0000
  C   C1        1.0  0.14967  0.61709  0.42914  1.0000
  O   O3        1.0  0.045659999999999985  0.69138  0.44168  1.0000
  O   O4        1.0  0.8119300000000002  0.65946  0.43095  1.0000
  C   C2        1.0  0.7481400000000002  0.60458  0.40368999999999994  1.0000
  O   O5        1.0  0.7579000000000001  0.5076200000000001  0.42175999999999997  1.0000
  O   O6        1.0  0.98863  0.32299  0.43983999999999995  1.0000
  C   C3        1.0  0.10131000000000007  0.28100999999999987  0.42383  1.0000
  O   O7        1.0  0.19638000000000003  0.30171999999999993  0.57385  1.0000
  O   O8        1.0  0.19935000000000003  0.5183  0.57108  1.0000
  C   C4        1.0  0.15301000000000006  0.61986  0.58962  1.0000
  O   O9        1.0  0.04570000000000004  0.6898999999999998  0.56703  1.0000
  O   O10       1.0  0.81196  0.65809  0.54715  1.0000
  C   C5        1.0  0.7502800000000001  0.60189  0.56599  1.0000
  O   O11       1.0  0.7579300000000001  0.50614  0.54711  1.0000
  O   O12       1.0  0.98867  0.32162  0.55604  1.0000
  C   C6        1.0  0.10106  0.27477  0.58417  1.0000
  Cr  Cr1       1.0  0.18977  0.41564999999999996  0.51162  1.0000
  Cr  Cr2       1.0  0.9304000000000001  0.6673199999999999  0.49677  1.0000
  Cr  Cr3       1.0  0.8798700000000002  0.41701  0.4916499999999999  1.0000
  O   O13       1.0  2.000000000000753e-05  0.49999  0.50001  1.0000
  C   C7        1.0  0.6823  0.75332  0.13737  1.0000
  C   C8        1.0  0.6909700000000001  0.63841  0.34342  1.0000
  C   C9        1.0  0.6645100000000002  0.56235  0.24927999999999995  1.0000
  C   C10       1.0  0.65834  0.55932  0.30838  1.0000
  C   C11       1.0  0.6934199999999999  0.7379  0.31785  1.0000
  C   C12       1.0  0.6928900000000001  0.7451499999999998  0.2576  1.0000
  C   C13       1.0  0.69178  0.65057  0.22462  1.0000
  C   C14       1.0  0.7073200000000002  0.65029  0.16626  1.0000
  C   C15       1.0  0.6935900000000002  0.8450099999999998  0.16901  1.0000
  C   C16       1.0  0.7005700000000001  0.8406899999999998  0.22921999999999998  1.0000
  C   C17       1.0  0.23936  0.15841  0.12406  1.0000
  C   C18       1.0  0.19498000000000001  0.21651  0.23065  1.0000
  C   C19       1.0  0.15915  0.15121  0.26554  1.0000
  C   C20       1.0  0.13449000000000005  0.18865999999999994  0.32304  1.0000
  C   C21       1.0  0.21834999999999996  0.18774000000000002  0.17207  1.0000
  C   C22       1.0  0.11706000000000001  0.22609  0.37005  1.0000
  C   C23       1.0  0.16756000000000007  0.7498199999999999  0.12338  1.0000
  C   C24       1.0  0.15238000000000007  0.6835399999999999  0.22831  1.0000
  C   C25       1.0  0.23590000000000008  0.6913499999999999  0.27419  1.0000
  C   C26       1.0  0.21856000000000017  0.6604299999999997  0.33113  1.0000
  C   C27       1.0  0.15826  0.71956  0.17064  1.0000
  C   C28       1.0  0.19523  0.63791  0.37736  1.0000
  C   C29       1.0  0.6266200000000001  0.7607399999999999  0.86575  1.0000
  C   C30       1.0  0.6802400000000001  0.74458  0.75909  1.0000
  C   C31       1.0  0.70937  0.64299  0.73382  1.0000
  C   C32       1.0  0.7057700000000003  0.6364999999999997  0.67247  1.0000
  C   C33       1.0  0.6563900000000001  0.75241  0.8180699999999999  1.0000
  C   C34       1.0  0.7150400000000001  0.62553  0.62221  1.0000
  C   C35       1.0  0.19787  0.18470000000000003  0.85342  1.0000
  C   C36       1.0  0.11248000000000004  0.20936999999999995  0.63751  1.0000
  C   C37       1.0  0.9999300000000002  0.17292  0.71353  1.0000
  C   C38       1.0  0.004150000000000019  0.19134999999999994  0.65469  1.0000
  C   C39       1.0  0.22210000000000002  0.19081  0.67742  1.0000
  C   C40       1.0  0.20788000000000004  0.19783  0.73607  1.0000
  C   C41       1.0  0.09742000000000003  0.18513  0.7551999999999999  1.0000
  C   C42       1.0  0.09044999999999999  0.18302  0.81525  1.0000
  C   C43       1.0  0.28722  0.22590999999999994  0.83374  1.0000
  C   C44       1.0  0.29614  0.22741999999999996  0.77503  1.0000
  C   C45       1.0  0.12658999999999998  0.74517  0.85065  1.0000
  C   C46       1.0  0.20344000000000012  0.65353  0.64553  1.0000
  C   C47       1.0  0.33519000000000004  0.59402  0.73792  1.0000
  C   C48       1.0  0.3211000000000001  0.58593  0.67738  1.0000
  C   C49       1.0  0.11879999999999996  0.74721  0.67182  1.0000
  C   C50       1.0  0.12069  0.74396  0.7314  1.0000
  C   C51       1.0  0.22680000000000008  0.6628699999999998  0.76533  1.0000
  C   C52       1.0  0.22232000000000002  0.6570899999999997  0.82523  1.0000
  C   C53       1.0  0.01473000000000009  0.8157499999999998  0.81592  1.0000
  C   C54       1.0  0.014379999999999959  0.81622  0.7568099999999999  1.0000
  H   H1        1.0  0.9290500000000002  0.8730899999999999  0.7310299999999998  1.0000
  O   O14       1.0  0.11366000000000002  0.8832699999999998  0.04782000000000001  1.0000
  O   O15       1.0  0.18693  0.06852999999999998  0.043989999999999994  1.0000
  C   C55       1.0  0.26602  0.1102  0.06938  1.0000
  O   O16       1.0  0.37777  0.08903999999999997  0.05422  1.0000
  O   O17       1.0  0.5628000000000001  0.87296  0.05697  1.0000
  C   C56       1.0  0.60394  0.7739499999999998  0.08042  1.0000
  O   O18       1.0  0.55539  0.7009399999999998  0.0627  1.0000
  O   O19       1.0  0.29502000000000006  0.73192  0.04995  1.0000
  C   C57       1.0  0.18928  0.7876199999999999  0.06953  1.0000
  O   O20       1.0  0.09429000000000001  0.8842299999999998  0.9215499999999999  1.0000
  O   O21       1.0  0.16898000000000005  0.06941  0.92694  1.0000
  C   C58       1.0  0.24011  0.11675000000000002  0.9076999999999998  1.0000
  O   O22       1.0  0.3584  0.08999  0.92795  1.0000
  O   O23       1.0  0.54485  0.87385  0.93992  1.0000
  C   C59       1.0  0.57539  0.77622  0.9190499999999999  1.0000
  O   O24       1.0  0.5360200000000003  0.7018999999999999  0.93643  1.0000
  O   O25       1.0  0.27707000000000004  0.7328099999999999  0.9328899999999999  1.0000
  C   C60       1.0  0.16331000000000007  0.7855399999999999  0.9069799999999999  1.0000
  Cr  Cr4       1.0  0.14950000000000005  0.9739799999999998  0.98533  1.0000
  Cr  Cr5       1.0  0.457  0.97651  0.9946599999999999  1.0000
  Cr  Cr6       1.0  0.41117  0.72427  0.9952699999999999  1.0000
  O   O26       1.0  0.33922  0.89159  0.99175  1.0000
  N   N1        1.0  0.7554300000000002  0.5450699999999999  0.13745  1.0000
  H   H2        1.0  0.82349  0.54864  0.11129  1.0000
  H   H3        1.0  0.6799100000000002  0.53046  0.11203  1.0000
  N   N2        1.0  0.05104000000000002  0.643  0.23663999999999996  1.0000
  H   H4        1.0  0.9627000000000001  0.70942  0.22541  1.0000
  H   H5        1.0  0.05479  0.57934  0.20751999999999998  1.0000
  N   N3        1.0  0.74743  0.53772  0.7666299999999999  1.0000
  O   O27       1.0  0.7452600000000003  0.44708  0.74074  1.0000
  O   O28       1.0  0.80519  0.5267299999999999  0.81908  1.0000
  N   N4        1.0  0.6545700000000001  0.8489799999999998  0.7273299999999999  1.0000
  O   O29       1.0  0.5908300000000001  0.9451199999999998  0.74895  1.0000
  O   O30       1.0  0.7077600000000001  0.8502799999999998  0.68108  1.0000
  N   N5        1.0  0.9735500000000002  0.18632  0.83691  1.0000
  H   H6        1.0  0.9769000000000002  0.20365000000000003  0.8805399999999999  1.0000
  H   H7        1.0  0.8984100000000004  0.25841  0.8183699999999999  1.0000
  N   N6        1.0  0.36634000000000005  0.26782  0.87399  1.0000
  O   O31       1.0  0.49011  0.23824999999999993  0.87154  1.0000
  O   O32       1.0  0.3175  0.32431  0.9176799999999999  1.0000
  N   N7        1.0  0.8989099999999999  0.13994  0.7305199999999998  1.0000
  H   H8        1.0  0.89593  0.07015  0.70718  1.0000
  H   H9        1.0  0.81002  0.20667  0.72099  1.0000
  N   N8        1.0  0.37763  0.27896999999999994  0.7543899999999999  1.0000
  O   O33       1.0  0.32409  0.37027999999999994  0.7221  1.0000
  O   O34       1.0  0.5028  0.22616  0.75948  1.0000
  N   N9        1.0  0.9021300000000002  0.18584999999999996  0.61237  1.0000
  O   O35       1.0  0.9304  0.12406999999999997  0.56768  1.0000
  O   O36       1.0  0.7816300000000002  0.24764999999999995  0.61637  1.0000
  N   N10       1.0  0.34878000000000003  0.14238999999999993  0.659  1.0000
  O   O37       1.0  0.39288000000000006  0.035500000000000004  0.64782  1.0000
  O   O38       1.0  0.40912  0.20573999999999998  0.64356  1.0000
  N   N11       1.0  0.30726  0.55859  0.85905  1.0000
  H   H10       1.0  0.29462  0.48896999999999996  0.83878  1.0000
  H   H11       1.0  0.2743300000000001  0.5565299999999999  0.8987  1.0000
  N   N12       1.0  0.7003000000000001  0.9415599999999997  0.14015  1.0000
  O   O39       1.0  0.7768400000000003  0.9272299999999998  0.10067999999999999  1.0000
  O   O40       1.0  0.6289100000000001  0.04368999999999999  0.15232  1.0000
  N   N13       1.0  0.9017400000000001  0.88769  0.84027  1.0000
  O   O41       1.0  0.8251299999999999  0.98225  0.81413  1.0000
  O   O42       1.0  0.8683700000000001  0.85382  0.8859  1.0000
  N   N14       1.0  0.46157000000000004  0.54024  0.7695499999999998  1.0000
  H   H12       1.0  0.4666300000000001  0.4668  0.79074  1.0000
  H   H13       1.0  0.48051000000000005  0.5961  0.79923  1.0000
  N   N15       1.0  0.42678000000000005  0.5146099999999999  0.6482  1.0000
  O   O43       1.0  0.51284  0.42237  0.67284  1.0000
  O   O44       1.0  0.44139000000000034  0.5450999999999999  0.59753  1.0000
  N   N16       1.0  0.030770000000000075  0.8436699999999999  0.63742  1.0000
  H   H14       1.0  0.93527  0.8493199999999999  0.63863  1.0000
  H   H15       1.0  0.04238000000000003  0.91676  0.65382  1.0000
  N   N17       1.0  0.63552  0.4796  0.21367999999999998  1.0000
  H   H16       1.0  0.70109  0.39904  0.22739  1.0000
  H   H17       1.0  0.5412400000000002  0.48441  0.21738999999999997  1.0000
  N   N18       1.0  0.7145500000000002  0.9340899999999998  0.26036  1.0000
  O   O45       1.0  0.6119700000000001  0.01651  0.27287  1.0000
  O   O46       1.0  0.8266700000000002  0.9454199999999999  0.26781  1.0000
  N   N19       1.0  0.6205  0.47509  0.33323  1.0000
  H   H18       1.0  0.68441  0.39472  0.32455  1.0000
  H   H19       1.0  0.52662  0.485  0.31493  1.0000
  N   N20       1.0  0.69424  0.83157  0.35264  1.0000
  H   H20       1.0  0.6325400000000002  0.84213  0.38419999999999993  1.0000
  H   H21       1.0  0.78888  0.81746  0.3714199999999999  1.0000
  N   N21       1.0  0.14384  0.04667999999999999  0.24811  1.0000
  O   O47       1.0  0.08596  0.0005900000000000001  0.27926  1.0000
  O   O48       1.0  0.19703000000000015  0.9913499999999997  0.20500999999999997  1.0000
  N   N22       1.0  0.20981000000000002  0.31829  0.25164  1.0000
  H   H22       1.0  0.14697000000000007  0.3852399999999999  0.22456  1.0000
  H   H23       1.0  0.3046100000000001  0.31217999999999996  0.24796  1.0000
  N   N23       1.0  0.33488  0.73798  0.26949  1.0000
  O   O49       1.0  0.3829000000000001  0.7762799999999997  0.31485  1.0000
  O   O50       1.0  0.38236000000000003  0.73784  0.22149  1.0000
