data_image0
_chemical_formula_structural       O4C2O4C2O2V2C32H8C2H4C2H6C6H4C6H8O4C2O4C2O2V2OCH2CH3OCH2CH3OHOHOHOHOCH2CH3OCH2CH3OCH2CH3OCH2CH3
_chemical_formula_sum              "O30 C68 V4 H64"
_cell_length_a       19.07508
_cell_length_b       7.14381
_cell_length_c       17.89005
_cell_angle_alpha    89.9971
_cell_angle_beta     109.06152
_cell_angle_gamma    90.00596999999999

_space_group_name_H-M_alt    "P 1"
_space_group_IT_number       1

loop_
  _space_group_symop_operation_xyz
  'x, y, z'

loop_
  _atom_site_type_symbol
  _atom_site_label
  _atom_site_symmetry_multiplicity
  _atom_site_fract_x
  _atom_site_fract_y
  _atom_site_fract_z
  _atom_site_occupancy
  O   O1        1.0  0.56231  0.50577  0.4396699999999999  1.0000
  O   O2        1.0  0.43768999999999997  0.00577  0.56033  1.0000
  O   O3        1.0  0.41165  0.16915  0.40533  1.0000
  O   O4        1.0  0.58835  0.6691500000000001  0.5946699999999998  1.0000
  C   C1        1.0  0.38418  0.3453000000000001  0.3836  1.0000
  C   C2        1.0  0.61581  0.8453100000000002  0.6164099999999999  1.0000
  O   O5        1.0  0.56014  0.17561000000000004  0.43001  1.0000
  O   O6        1.0  0.43986  0.6756100000000002  0.56999  1.0000
  O   O7        1.0  0.58724  0.0121  0.5852  1.0000
  O   O8        1.0  0.41276  0.5121  0.4148  1.0000
  C   C3        1.0  0.582  0.34444  0.4160499999999999  1.0000
  C   C4        1.0  0.41798  0.84442  0.58393  1.0000
  O   O9        1.0  0.5087199999999998  0.34142000000000006  0.55089  1.0000
  O   O10       1.0  0.49128  0.8414200000000002  0.44911  1.0000
  V   V1        1.0  0.49837999999999993  0.06393  0.49056  1.0000
  V   V2        1.0  0.50162  0.5639300000000002  0.50944  1.0000
  C   C5        1.0  0.18597999999999995  0.78499  0.8800299999999998  1.0000
  C   C6        1.0  0.81411  0.28471  0.12008000000000002  1.0000
  C   C7        1.0  0.12660999999999994  0.9145300000000002  0.86083  1.0000
  C   C8        1.0  0.8734199999999999  0.4144600000000001  0.1392  1.0000
  C   C9        1.0  0.11508  0.03302  0.7937  1.0000
  C   C10       1.0  0.8849199999999999  0.5330700000000002  0.20628  1.0000
  C   C11       1.0  0.16429999999999995  0.02398  0.7491799999999997  1.0000
  C   C12       1.0  0.83569  0.52402  0.2508  1.0000
  C   C13       1.0  0.22094999999999995  0.8877200000000002  0.7669399999999997  1.0000
  C   C14       1.0  0.77908  0.3876600000000001  0.23308999999999994  1.0000
  C   C15       1.0  0.22935  0.7625300000000002  0.83009  1.0000
  C   C16       1.0  0.77074  0.2622900000000001  0.17001  1.0000
  C   C17       1.0  0.15613  0.14497  0.68489  1.0000
  C   C18       1.0  0.8438499999999999  0.6451  0.31506  1.0000
  C   C19       1.0  0.20508  0.13829  0.64085  1.0000
  C   C20       1.0  0.7948799999999999  0.6384400000000001  0.35909  1.0000
  C   C21       1.0  0.26247  0.004030000000000001  0.65924  1.0000
  C   C22       1.0  0.73749  0.50414  0.34071  1.0000
  C   C23       1.0  0.26944  0.8760700000000002  0.72145  1.0000
  C   C24       1.0  0.73057  0.37606  0.27855  1.0000
  C   C25       1.0  0.32415  0.7342700000000002  0.73767  1.0000
  C   C26       1.0  0.67588  0.23415000000000005  0.2623799999999999  1.0000
  C   C27       1.0  0.3286700000000001  0.60412  0.79789  1.0000
  C   C28       1.0  0.67145  0.10380000000000003  0.20226  1.0000
  C   C29       1.0  0.2824099999999999  0.61893  0.8437799999999998  1.0000
  C   C30       1.0  0.71774  0.11855000000000003  0.1564  1.0000
  C   C31       1.0  0.31235  0.9935800000000002  0.61607  1.0000
  C   C32       1.0  0.6876  0.4937200000000001  0.38386  1.0000
  C   C33       1.0  0.3674199999999999  0.85404  0.6320899999999998  1.0000
  C   C34       1.0  0.63255  0.3540900000000001  0.36788  1.0000
  C   C35       1.0  0.37292  0.7231500000000002  0.69306  1.0000
  C   C36       1.0  0.6271  0.22308000000000006  0.30696  1.0000
  H   H1        1.0  0.11134000000000002  0.24598000000000003  0.66785  1.0000
  H   H2        1.0  0.8886299999999999  0.7461300000000002  0.33209  1.0000
  H   H3        1.0  0.30752  0.09188000000000003  0.5685  1.0000
  H   H4        1.0  0.6924  0.5921000000000001  0.43139  1.0000
  H   H5        1.0  0.3686499999999999  0.49106  0.81059  1.0000
  H   H6        1.0  0.63152  0.9906  0.18963  1.0000
  H   H7        1.0  0.28852  0.51715  0.89036  1.0000
  H   H8        1.0  0.71168  0.016610000000000003  0.10988999999999997  1.0000
  C   C37       1.0  0.7985299999999999  0.6991800000000001  0.78411  1.0000
  C   C38       1.0  0.20133  0.19926000000000005  0.21606  1.0000
  H   H9        1.0  0.84604  0.63552  0.77031  1.0000
  H   H10       1.0  0.15376  0.13595  0.22987  1.0000
  H   H11       1.0  0.7927  0.6192400000000002  0.83472  1.0000
  H   H12       1.0  0.20715  0.11898000000000003  0.16553  1.0000
  C   C39       1.0  0.7265799999999999  0.67336  0.71288  1.0000
  C   C40       1.0  0.27323  0.17346000000000006  0.28734  1.0000
  H   H13       1.0  0.6884699999999999  0.57741  0.72998  1.0000
  H   H14       1.0  0.31126  0.07698  0.27038  1.0000
  H   H15       1.0  0.74015  0.60612  0.66319  1.0000
  H   H16       1.0  0.25958  0.10681000000000003  0.33711  1.0000
  H   H17       1.0  0.75709  0.9261500000000003  0.61203  1.0000
  H   H18       1.0  0.24304999999999996  0.42753000000000013  0.38802  1.0000
  C   C41       1.0  0.81784  0.02079  0.73446  1.0000
  C   C42       1.0  0.18223999999999999  0.52128  0.26546  1.0000
  C   C43       1.0  0.7462499999999999  0.9832100000000003  0.82831  1.0000
  C   C44       1.0  0.25378  0.48276000000000013  0.17160999999999998  1.0000
  C   C45       1.0  0.8143599999999999  0.9099800000000002  0.8082599999999998  1.0000
  C   C46       1.0  0.18563  0.41001000000000004  0.19173999999999994  1.0000
  H   H19       1.0  0.75372  0.13442000000000004  0.84256  1.0000
  H   H20       1.0  0.24643999999999996  0.63399  0.15735  1.0000
  H   H21       1.0  0.7419499999999999  0.9086500000000002  0.8812599999999998  1.0000
  H   H22       1.0  0.25798  0.40809  0.11865  1.0000
  C   C47       1.0  0.6883199999999999  0.8642900000000002  0.68591  1.0000
  C   C48       1.0  0.31167  0.3643  0.3141  1.0000
  C   C49       1.0  0.7448699999999999  0.9907900000000002  0.66287  1.0000
  C   C50       1.0  0.2552499999999999  0.4914800000000001  0.33703  1.0000
  C   C51       1.0  0.6733  0.95595  0.75796  1.0000
  C   C52       1.0  0.32674  0.45523000000000013  0.24193  1.0000
  H   H23       1.0  0.63498  0.86657  0.7775  1.0000
  H   H24       1.0  0.36489999999999995  0.3652100000000001  0.22241  1.0000
  H   H25       1.0  0.64574  0.09405  0.7408  1.0000
  H   H26       1.0  0.35452  0.5931500000000002  0.25895  1.0000
  H   H27       1.0  0.8221  0.17251000000000002  0.74952  1.0000
  H   H28       1.0  0.178  0.6729200000000002  0.25027  1.0000
  H   H29       1.0  0.71982  0.13009000000000004  0.64247  1.0000
  H   H30       1.0  0.2804  0.63084  0.35718  1.0000
  O   O11       1.0  0.08722000000000002  0.27182  0.08523  1.0000
  O   O12       1.0  0.91278  0.77182  0.91477  1.0000
  O   O13       1.0  0.93986  0.59554  0.06999  1.0000
  O   O14       1.0  0.06014  0.09554000000000003  0.93001  1.0000
  C   C53       1.0  0.92083  0.4262100000000001  0.08716  1.0000
  C   C54       1.0  0.07917999999999999  0.9262300000000002  0.91285  1.0000
  O   O15       1.0  0.08834000000000002  0.60193  0.09468  1.0000
  O   O16       1.0  0.91166  0.10193000000000002  0.90532  1.0000
  O   O17       1.0  0.062310000000000004  0.76541  0.93966  1.0000
  O   O18       1.0  0.93769  0.26541000000000003  0.06033999999999999  1.0000
  C   C55       1.0  0.11489  0.43114000000000013  0.11939999999999999  1.0000
  C   C56       1.0  0.8851099999999998  0.93113  0.8806  1.0000
  O   O19       1.0  0.9912699999999999  0.42963  0.94913  1.0000
  O   O20       1.0  0.00873  0.9296300000000002  0.05087  1.0000
  V   V3        1.0  0.00162  0.70715  0.00944  1.0000
  V   V4        1.0  0.99838  0.20715  0.99056  1.0000
  O   O21       1.0  0.20332999999999998  0.68441  0.9498999999999999  1.0000
  C   C57       1.0  0.26504  0.76926  0.00701  1.0000
  H   H31       1.0  0.30769999999999986  0.82413  0.9823899999999999  1.0000
  H   H32       1.0  0.29379  0.66069  0.05034  1.0000
  C   C58       1.0  0.23998  0.92591  0.05025  1.0000
  H   H33       1.0  0.19169  0.87961  0.06715  1.0000
  H   H34       1.0  0.28573999999999994  0.96386  0.10436  1.0000
  H   H35       1.0  0.22447  0.051970000000000016  0.01212  1.0000
  O   O22       1.0  0.7968099999999999  0.18390000000000006  0.050279999999999984  1.0000
  C   C59       1.0  0.7350700000000001  0.26845  0.9931100000000002  1.0000
  H   H36       1.0  0.69237  0.32328  0.017689999999999994  1.0000
  H   H37       1.0  0.70637  0.15971000000000005  0.94985  1.0000
  C   C60       1.0  0.7600600000000001  0.42507  0.9497900000000001  1.0000
  H   H38       1.0  0.8085  0.37904  0.93308  1.0000
  H   H39       1.0  0.7143499999999999  0.4623800000000001  0.89554  1.0000
  H   H40       1.0  0.77533  0.5514300000000001  0.98777  1.0000
  O   O23       1.0  0.8813999999999999  0.9748000000000001  0.71474  1.0000
  H   H41       1.0  0.87445  0.84814  0.69081  1.0000
  O   O24       1.0  0.11871  0.4756100000000001  0.2853  1.0000
  H   H42       1.0  0.12567  0.3491300000000001  0.3094  1.0000
  O   O25       1.0  0.05665999999999997  0.15809000000000006  0.76978  1.0000
  H   H43       1.0  0.01581999999999994  0.11294000000000003  0.7876899999999998  1.0000
  O   O26       1.0  0.9433  0.65827  0.23014999999999994  1.0000
  H   H44       1.0  0.98417  0.61309  0.2123  1.0000
  O   O27       1.0  0.19099  0.24913  0.57414  1.0000
  C   C61       1.0  0.21411999999999998  0.4343500000000001  0.59693  1.0000
  H   H45       1.0  0.27458  0.44593000000000005  0.60691  1.0000
  H   H46       1.0  0.20265  0.48026  0.65142  1.0000
  C   C62       1.0  0.17296999999999998  0.56739  0.5307799999999999  1.0000
  H   H47       1.0  0.11251999999999998  0.56165  0.52152  1.0000
  H   H48       1.0  0.19274999999999998  0.7127300000000002  0.5464599999999998  1.0000
  H   H49       1.0  0.18259  0.52795  0.47503  1.0000
  O   O28       1.0  0.80897  0.7493100000000003  0.4257899999999999  1.0000
  C   C63       1.0  0.7859299999999999  0.9345500000000002  0.40296  1.0000
  H   H50       1.0  0.7254200000000001  0.94613  0.39269  1.0000
  H   H51       1.0  0.79767  0.9805300000000002  0.34863  1.0000
  C   C64       1.0  0.82685  0.06752  0.4692299999999999  1.0000
  H   H52       1.0  0.88735  0.06159  0.47886999999999996  1.0000
  H   H53       1.0  0.8071899999999999  0.2129  0.4534399999999999  1.0000
  H   H54       1.0  0.8168599999999999  0.028190000000000007  0.5247999999999998  1.0000
  O   O29       1.0  0.4231  0.57712  0.70624  1.0000
  C   C65       1.0  0.49152999999999997  0.63802  0.75938  1.0000
  H   H55       1.0  0.4862899999999999  0.67407  0.8178999999999997  1.0000
  H   H56       1.0  0.51265  0.76207  0.73573  1.0000
  C   C66       1.0  0.54781  0.48121  0.7711399999999999  1.0000
  H   H57       1.0  0.55403  0.44136000000000003  0.71365  1.0000
  H   H58       1.0  0.6019999999999999  0.53004  0.81136  1.0000
  H   H59       1.0  0.5298  0.35708000000000006  0.7975299999999997  1.0000
  O   O30       1.0  0.5770099999999999  0.07686000000000003  0.2939099999999999  1.0000
  C   C67       1.0  0.5086  0.13712000000000002  0.24054999999999999  1.0000
  H   H60       1.0  0.51389  0.17195000000000005  0.18191999999999994  1.0000
  H   H61       1.0  0.48743  0.26182000000000005  0.26376  1.0000
  C   C68       1.0  0.45235  0.9803400000000002  0.22926  1.0000
  H   H62       1.0  0.44593999999999995  0.9420900000000002  0.28683  1.0000
  H   H63       1.0  0.39824  0.028410000000000008  0.18865  1.0000
  H   H64       1.0  0.47052999999999995  0.8552900000000001  0.20353999999999994  1.0000
