data_image0
_chemical_formula_structural       O8C4O8C4O4V4C4H4C4O4N4C44H12C20O4C4H12C2H5C2H5C2H5C2H5C2H5C2H5C2H5C2H5
_chemical_formula_sum              "O28 C100 V4 H68 N4"
_cell_length_a       28.02702
_cell_length_b       7.22476
_cell_length_c       17.19984
_cell_angle_alpha    90.21883
_cell_angle_beta     101.33720000000001
_cell_angle_gamma    89.80543

_symmetry_space_group_name_H-M    'P 1'
_symmetry_Int_Tables_number       1

loop_
  _symmetry_equiv_pos_as_xyz
  'x,y,z'

loop_
  _atom_site_type_symbol
  _atom_site_label
  _atom_site_symmetry_multiplicity
  _atom_site_fract_x
  _atom_site_fract_y
  _atom_site_fract_z
  _atom_site_occupancy
  O   O1        1.0  0.0006999999999999975  0.4365100000000001  0.85792  1.0000
  O   O2        1.0  0.9992999999999997  0.5634900000000003  0.14208  1.0000
  O   O3        1.0  0.9992999999999997  0.9365100000000002  0.64208  1.0000
  O   O4        1.0  0.0007000000000000029  0.06349  0.35792  1.0000
  O   O5        1.0  0.9300799999999998  0.7663800000000001  0.72189  1.0000
  O   O6        1.0  0.06992  0.23362  0.27811  1.0000
  O   O7        1.0  0.06992  0.26638  0.77811  1.0000
  O   O8        1.0  0.9300799999999998  0.73362  0.22189  1.0000
  C   C1        1.0  0.91073  0.59796  0.70898  1.0000
  C   C2        1.0  0.08926999999999999  0.4020400000000001  0.29102  1.0000
  C   C3        1.0  0.08936  0.09747000000000001  0.79034  1.0000
  C   C4        1.0  0.9106299999999998  0.9025300000000003  0.20966  1.0000
  O   O9        1.0  0.9961799999999997  0.7662300000000002  0.8623100000000002  1.0000
  O   O10       1.0  0.0038199999999999966  0.23377  0.13769  1.0000
  O   O11       1.0  0.0038200000000000018  0.26623  0.63769  1.0000
  O   O12       1.0  0.9961799999999997  0.7337700000000001  0.36231  1.0000
  O   O13       1.0  0.06587  0.9364600000000002  0.7835  1.0000
  O   O14       1.0  0.9341299999999998  0.06354000000000003  0.2165  1.0000
  O   O15       1.0  0.9341299999999998  0.43646  0.7165  1.0000
  O   O16       1.0  0.06587  0.5635400000000003  0.2835  1.0000
  C   C5        1.0  0.9984799999999998  0.5966  0.89446  1.0000
  C   C6        1.0  0.0015199999999999997  0.4034  0.10554  1.0000
  C   C7        1.0  0.001520000000000009  0.09629  0.60563  1.0000
  C   C8        1.0  0.9984799999999998  0.9037100000000002  0.3943700000000001  1.0000
  O   O17       1.0  0.022789999999999984  0.60302  0.72398  1.0000
  O   O18       1.0  0.97721  0.39698000000000006  0.27602  1.0000
  O   O19       1.0  0.97721  0.10302000000000003  0.77602  1.0000
  O   O20       1.0  0.02278999999999999  0.89698  0.22398000000000004  1.0000
  V   V1        1.0  0.99577  0.8779000000000002  0.75483  1.0000
  V   V2        1.0  0.004229999999999999  0.12210000000000001  0.24517  1.0000
  V   V3        1.0  0.004230000000000001  0.3779000000000001  0.74517  1.0000
  V   V4        1.0  0.9957699999999998  0.6221000000000001  0.25483  1.0000
  C   C9        1.0  0.0016999999999999967  0.08228  0.51965  1.0000
  C   C10       1.0  0.9982999999999997  0.9177200000000002  0.48035  1.0000
  C   C11       1.0  0.9983099999999999  0.58249  0.98054  1.0000
  C   C12       1.0  0.00169  0.41751  0.01946  1.0000
  H   H1        1.0  0.004480000000000006  0.21048  0.48808  1.0000
  H   H2        1.0  0.9955199999999997  0.78952  0.51192  1.0000
  H   H3        1.0  0.99554  0.71078  0.0125  1.0000
  H   H4        1.0  0.004460000000000022  0.28922  0.9875000000000002  1.0000
  C   C13       1.0  0.6848599999999998  0.0051  0.03449000000000001  1.0000
  C   C14       1.0  0.31514  0.9949000000000002  0.96551  1.0000
  C   C15       1.0  0.3169999999999999  0.42496  0.47354  1.0000
  C   C16       1.0  0.683  0.57503  0.52646  1.0000
  O   O21       1.0  0.7161099999999998  0.057510000000000006  0.98826  1.0000
  O   O22       1.0  0.28388999999999986  0.9424900000000003  0.01174  1.0000
  O   O23       1.0  0.28806999999999994  0.37956  0.52461  1.0000
  O   O24       1.0  0.71193  0.62044  0.47539  1.0000
  N   N1        1.0  0.7025199999999998  0.9439600000000002  0.10996  1.0000
  N   N2        1.0  0.2974799999999999  0.05604000000000001  0.89004  1.0000
  N   N3        1.0  0.2972699999999999  0.44785  0.39461  1.0000
  N   N4        1.0  0.7027299999999997  0.55215  0.6053900000000002  1.0000
  C   C17       1.0  0.6716199999999998  0.8849700000000003  0.15729  1.0000
  C   C18       1.0  0.32838  0.11503000000000002  0.84271  1.0000
  C   C19       1.0  0.3259899999999999  0.49878  0.34225  1.0000
  C   C20       1.0  0.67402  0.50121  0.65775  1.0000
  C   C21       1.0  0.7800199999999998  0.08223000000000003  0.18205  1.0000
  C   C22       1.0  0.21997999999999995  0.9177700000000002  0.81795  1.0000
  C   C23       1.0  0.22425999999999996  0.2868100000000001  0.3158900000000001  1.0000
  C   C24       1.0  0.77574  0.71319  0.68411  1.0000
  C   C25       1.0  0.8312799999999998  0.06967  0.20486  1.0000
  C   C26       1.0  0.16872  0.93033  0.79514  1.0000
  C   C27       1.0  0.17323  0.2786300000000001  0.29144  1.0000
  C   C28       1.0  0.82677  0.7213700000000002  0.70856  1.0000
  C   C29       1.0  0.83048  0.76652  0.14421  1.0000
  C   C30       1.0  0.16952  0.23348000000000005  0.85579  1.0000
  C   C31       1.0  0.16405  0.55198  0.36871  1.0000
  C   C32       1.0  0.83595  0.44801  0.63129  1.0000
  C   C33       1.0  0.77997  0.7778200000000002  0.12038  1.0000
  C   C34       1.0  0.22002  0.22218000000000004  0.87962  1.0000
  C   C35       1.0  0.21443  0.5598800000000003  0.39445  1.0000
  C   C36       1.0  0.7855699999999998  0.44012  0.60555  1.0000
  C   C37       1.0  0.7544999999999997  0.9344100000000002  0.13841  1.0000
  C   C38       1.0  0.24549999999999994  0.06559000000000002  0.86159  1.0000
  C   C39       1.0  0.24517999999999995  0.43092000000000014  0.36766000000000004  1.0000
  C   C40       1.0  0.75482  0.56908  0.63234  1.0000
  C   C41       1.0  0.60195  0.96143  0.05359000000000001  1.0000
  C   C42       1.0  0.39805  0.038570000000000014  0.94641  1.0000
  C   C43       1.0  0.39764  0.48753  0.44804  1.0000
  C   C44       1.0  0.6023599999999998  0.51247  0.55196  1.0000
  C   C45       1.0  0.6343299999999998  0.01154  0.00451  1.0000
  C   C46       1.0  0.3656699999999999  0.9884600000000001  0.99549  1.0000
  C   C47       1.0  0.3672699999999999  0.44983  0.50191  1.0000
  C   C48       1.0  0.6327299999999999  0.5501600000000001  0.49809  1.0000
  C   C49       1.0  0.6158499999999998  0.05184  0.92492  1.0000
  C   C50       1.0  0.38415  0.94816  0.07508  1.0000
  C   C51       1.0  0.387  0.4532  0.58319  1.0000
  C   C52       1.0  0.6129999999999998  0.5468000000000002  0.41681  1.0000
  C   C53       1.0  0.62082  0.8932500000000002  0.13008  1.0000
  C   C54       1.0  0.3791799999999999  0.10675  0.8699200000000002  1.0000
  C   C55       1.0  0.37666  0.51694  0.36777  1.0000
  C   C56       1.0  0.62334  0.4830600000000001  0.63223  1.0000
  C   C57       1.0  0.8567499999999998  0.91271  0.18608  1.0000
  C   C58       1.0  0.14324999999999993  0.08729000000000002  0.81392  1.0000
  C   C59       1.0  0.14288  0.41113  0.3171  1.0000
  C   C60       1.0  0.8571199999999998  0.58887  0.6829  1.0000
  H   H5        1.0  0.8490999999999997  0.64434  0.12865  1.0000
  H   H6        1.0  0.1509  0.3556600000000001  0.8713500000000002  1.0000
  H   H7        1.0  0.14153999999999994  0.65475  0.39026  1.0000
  H   H8        1.0  0.8584599999999999  0.3452500000000001  0.60974  1.0000
  H   H9        1.0  0.76044  0.66455  0.08713  1.0000
  H   H10       1.0  0.23956  0.33545000000000014  0.91287  1.0000
  H   H11       1.0  0.22980999999999996  0.6681  0.43537  1.0000
  H   H12       1.0  0.77019  0.3319000000000001  0.56463  1.0000
  H   H13       1.0  0.64078  0.07776  0.88542  1.0000
  H   H14       1.0  0.35922  0.92224  0.11457  1.0000
  H   H15       1.0  0.36315  0.43996000000000013  0.62534  1.0000
  H   H16       1.0  0.6368499999999998  0.56004  0.37466  1.0000
  C   C61       1.0  0.48131  0.06492  0.92219  1.0000
  C   C62       1.0  0.5186899999999999  0.93508  0.07781  1.0000
  C   C63       1.0  0.52065  0.4769000000000001  0.58148  1.0000
  C   C64       1.0  0.47935  0.52309  0.41852  1.0000
  C   C65       1.0  0.46775  0.9710600000000003  0.05413  1.0000
  C   C66       1.0  0.5322499999999999  0.028940000000000007  0.94587  1.0000
  C   C67       1.0  0.5309499999999998  0.51118  0.44297  1.0000
  C   C68       1.0  0.46905  0.48881  0.55703  1.0000
  C   C69       1.0  0.44922999999999985  0.02241  0.9741299999999999  1.0000
  C   C70       1.0  0.5507699999999998  0.9775900000000002  0.02586  1.0000
  C   C71       1.0  0.5510599999999999  0.5023000000000001  0.52537  1.0000
  C   C72       1.0  0.44894  0.49769000000000013  0.47463000000000005  1.0000
  C   C73       1.0  0.46149999999999997  0.15812  0.85104  1.0000
  C   C74       1.0  0.5385  0.8418800000000002  0.14896000000000004  1.0000
  C   C75       1.0  0.5431  0.4231400000000001  0.6588800000000002  1.0000
  C   C76       1.0  0.4569  0.5768500000000001  0.34112  1.0000
  C   C77       1.0  0.41139  0.17255000000000006  0.82396  1.0000
  C   C78       1.0  0.58861  0.8274400000000002  0.17603000000000005  1.0000
  C   C79       1.0  0.5934299999999998  0.42978  0.6843600000000002  1.0000
  C   C80       1.0  0.40657  0.57022  0.31564  1.0000
  O   O25       1.0  0.3100599999999999  0.18097000000000005  0.76962  1.0000
  O   O26       1.0  0.6899399999999998  0.8190300000000001  0.23038000000000006  1.0000
  O   O27       1.0  0.69434  0.47012  0.73445  1.0000
  O   O28       1.0  0.30566  0.52988  0.2655500000000001  1.0000
  C   C81       1.0  0.5659499999999997  0.03456000000000001  0.8930600000000002  1.0000
  C   C82       1.0  0.4340499999999999  0.9654400000000001  0.10694  1.0000
  C   C83       1.0  0.4360599999999999  0.49946000000000007  0.61081  1.0000
  C   C84       1.0  0.5639399999999998  0.50053  0.38919  1.0000
  H   H17       1.0  0.14811999999999997  0.8192700000000003  0.76232  1.0000
  H   H18       1.0  0.8518799999999997  0.18072  0.23768  1.0000
  H   H19       1.0  0.8428099999999997  0.83054  0.74859  1.0000
  H   H20       1.0  0.15719999999999995  0.16946000000000003  0.25141  1.0000
  H   H21       1.0  0.39796  0.23616000000000006  0.76694  1.0000
  H   H22       1.0  0.6020399999999998  0.7638400000000001  0.23306  1.0000
  H   H23       1.0  0.6087399999999998  0.39455000000000007  0.74535  1.0000
  H   H24       1.0  0.3912599999999999  0.60545  0.25465  1.0000
  H   H25       1.0  0.48453  0.22355000000000005  0.81589  1.0000
  H   H26       1.0  0.5154699999999999  0.7764500000000002  0.18411  1.0000
  H   H27       1.0  0.5220199999999999  0.37294  0.70046  1.0000
  H   H28       1.0  0.47798  0.62706  0.29954  1.0000
  C   C85       1.0  0.24853999999999998  0.74978  0.7986200000000002  1.0000
  C   C86       1.0  0.21964  0.60796  0.74213  1.0000
  H   H29       1.0  0.19066  0.54513  0.76891  1.0000
  H   H30       1.0  0.20334999999999995  0.67411  0.6848100000000003  1.0000
  H   H31       1.0  0.24438999999999997  0.49549  0.7303100000000002  1.0000
  H   H32       1.0  0.27881  0.79782  0.7707  1.0000
  H   H33       1.0  0.2648599999999999  0.67888  0.85485  1.0000
  C   C87       1.0  0.75146  0.25022  0.20138  1.0000
  C   C88       1.0  0.7803599999999999  0.39204  0.25787  1.0000
  H   H34       1.0  0.7966499999999997  0.3258900000000001  0.31519  1.0000
  H   H35       1.0  0.8093399999999997  0.4548700000000001  0.23109  1.0000
  H   H36       1.0  0.7556099999999998  0.5045100000000001  0.26969  1.0000
  H   H37       1.0  0.7351399999999998  0.3211100000000001  0.14515  1.0000
  H   H38       1.0  0.72118  0.20218  0.2293  1.0000
  C   C89       1.0  0.7452  0.8617100000000002  0.7130200000000002  1.0000
  C   C90       1.0  0.752  0.04718000000000001  0.67515  1.0000
  H   H39       1.0  0.7903799999999997  0.09352000000000002  0.69207  1.0000
  H   H40       1.0  0.74157  0.03575  0.60958  1.0000
  H   H41       1.0  0.7283799999999999  0.15212  0.6958600000000003  1.0000
  H   H42       1.0  0.7058500000000001  0.82972  0.6990500000000002  1.0000
  H   H43       1.0  0.7557599999999998  0.8740500000000002  0.77858  1.0000
  C   C91       1.0  0.25479999999999997  0.13829  0.28698  1.0000
  C   C92       1.0  0.24799999999999994  0.9528100000000003  0.32484  1.0000
  H   H44       1.0  0.25844  0.9642300000000003  0.39042  1.0000
  H   H45       1.0  0.20961  0.9064900000000002  0.30793000000000004  1.0000
  H   H46       1.0  0.27161  0.8478700000000001  0.30412  1.0000
  H   H47       1.0  0.24424  0.12596  0.22141  1.0000
  H   H48       1.0  0.29415  0.17027000000000006  0.30095  1.0000
  C   C93       1.0  0.55194  0.9945200000000002  0.80443  1.0000
  C   C94       1.0  0.58132  0.8356800000000002  0.77779  1.0000
  H   H49       1.0  0.6203399999999998  0.8716500000000003  0.7842  1.0000
  H   H50       1.0  0.57771  0.70882  0.81246  1.0000
  H   H51       1.0  0.56717  0.8067300000000002  0.71401  1.0000
  H   H52       1.0  0.5135999999999998  0.95001  0.78697  1.0000
  H   H53       1.0  0.5576399999999998  0.12041000000000002  0.77109  1.0000
  C   C95       1.0  0.4480599999999999  0.00547  0.19557  1.0000
  C   C96       1.0  0.4186799999999999  0.16432  0.22221000000000002  1.0000
  H   H54       1.0  0.4222899999999999  0.2911800000000001  0.18754  1.0000
  H   H55       1.0  0.37965999999999994  0.12834000000000004  0.2158  1.0000
  H   H56       1.0  0.43282999999999994  0.19326000000000004  0.28599000000000013  1.0000
  H   H57       1.0  0.44235999999999986  0.8795900000000002  0.22891  1.0000
  H   H58       1.0  0.4863999999999999  0.04998  0.21303  1.0000
  C   C97       1.0  0.4492699999999999  0.5879900000000001  0.69285  1.0000
  C   C98       1.0  0.4150899999999999  0.74692  0.70473  1.0000
  H   H59       1.0  0.41383  0.8525000000000003  0.65756  1.0000
  H   H60       1.0  0.3777699999999999  0.69648  0.70486  1.0000
  H   H61       1.0  0.42874999999999996  0.8131000000000003  0.76312  1.0000
  H   H62       1.0  0.4486399999999999  0.48216000000000003  0.73897  1.0000
  H   H63       1.0  0.4858599999999999  0.6512900000000003  0.7027  1.0000
  C   C99       1.0  0.55073  0.4120100000000001  0.30715000000000003  1.0000
  C   C100      1.0  0.58491  0.25308  0.29527  1.0000
  H   H64       1.0  0.6222299999999998  0.30353  0.29513  1.0000
  H   H65       1.0  0.5861699999999997  0.14751  0.34244000000000013  1.0000
  H   H66       1.0  0.57125  0.1869  0.23688000000000006  1.0000
  H   H67       1.0  0.51414  0.3487100000000001  0.2973000000000001  1.0000
  H   H68       1.0  0.5513599999999999  0.5178400000000001  0.26103  1.0000
