data_image0
_chemical_formula_structural       O8C4O8C4O4V4C4H4C4H4C40H16NHCH3NHCH3NHCH3NHCH3
_chemical_formula_sum              "O20 C60 V4 H40 N4"
_cell_length_a       21.60459
_cell_length_b       7.18355
_cell_length_c       14.89023
_cell_angle_alpha    90.0
_cell_angle_beta     106.48433
_cell_angle_gamma    90.0

_space_group_name_H-M_alt    "P 1"
_space_group_IT_number       1

loop_
  _space_group_symop_operation_xyz
  'x, y, z'

loop_
  _atom_site_type_symbol
  _atom_site_label
  _atom_site_symmetry_multiplicity
  _atom_site_fract_x
  _atom_site_fract_y
  _atom_site_fract_z
  _atom_site_occupancy
  O   O1        1.0  0.33586  0.63819  0.00211  1.0000
  O   O2        1.0  0.66414  0.36181  0.99789  1.0000
  O   O3        1.0  0.16414  0.13819  0.99789  1.0000
  O   O4        1.0  0.83586  0.86181  0.00211  1.0000
  O   O5        1.0  0.21753  0.30592  0.86196  1.0000
  O   O6        1.0  0.78247  0.69408  0.13804  1.0000
  O   O7        1.0  0.28247  0.8059199999999999  0.13804  1.0000
  O   O8        1.0  0.7175299999999999  0.19407999999999997  0.86196  1.0000
  C   C1        1.0  0.20561999999999997  0.47673  0.82586  1.0000
  C   C2        1.0  0.79414  0.52331  0.17419  1.0000
  C   C3        1.0  0.29436999999999997  0.9767299999999999  0.17414  1.0000
  C   C4        1.0  0.7058599999999999  0.02331  0.82581  1.0000
  O   O9        1.0  0.33869000000000005  0.30832  0.99324  1.0000
  O   O10       1.0  0.66131  0.69168  0.006760000000000001  1.0000
  O   O11       1.0  0.16131  0.8083199999999998  0.006760000000000001  1.0000
  O   O12       1.0  0.83869  0.19167999999999996  0.99324  1.0000
  O   O13       1.0  0.28617  0.14043  0.1301  1.0000
  O   O14       1.0  0.71383  0.8595699999999997  0.8699  1.0000
  O   O15       1.0  0.21382999999999996  0.64043  0.8699  1.0000
  O   O16       1.0  0.78617  0.35957  0.1301  1.0000
  C   C5        1.0  0.36495999999999995  0.4772299999999999  0.99779  1.0000
  C   C6        1.0  0.6350399999999999  0.52277  0.00221  1.0000
  C   C7        1.0  0.13504  0.97723  0.00221  1.0000
  C   C8        1.0  0.8649599999999998  0.02277  0.99779  1.0000
  O   O17       1.0  0.23263  0.47241  0.04475  1.0000
  O   O18       1.0  0.76737  0.52759  0.9552499999999999  1.0000
  O   O19       1.0  0.2673699999999999  0.9724099999999999  0.9552499999999999  1.0000
  O   O20       1.0  0.73263  0.027589999999999993  0.04475  1.0000
  V   V1        1.0  0.25322  0.19661999999999993  0.9917  1.0000
  V   V2        1.0  0.74678  0.8033799999999998  0.0083  1.0000
  V   V3        1.0  0.24678  0.69662  0.0083  1.0000
  V   V4        1.0  0.7532199999999999  0.3033799999999999  0.9917  1.0000
  C   C9        1.0  0.030019999999999995  0.82638  0.00419  1.0000
  C   C10       1.0  0.96998  0.17361  0.9958  1.0000
  C   C11       1.0  0.46997  0.32638  0.99581  1.0000
  C   C12       1.0  0.53002  0.6736099999999998  0.0042  1.0000
  H   H1        1.0  0.05195  0.69009  0.00727  1.0000
  H   H2        1.0  0.9480499999999998  0.3099099999999999  0.99273  1.0000
  H   H3        1.0  0.44805  0.19008999999999995  0.99273  1.0000
  H   H4        1.0  0.55195  0.8099099999999998  0.00727  1.0000
  C   C13       1.0  0.9650199999999999  0.83776  0.00257  1.0000
  C   C14       1.0  0.034979999999999976  0.16223  0.99743  1.0000
  C   C15       1.0  0.5349799999999999  0.33776  0.99743  1.0000
  C   C16       1.0  0.46502  0.66223  0.00257  1.0000
  H   H5        1.0  0.93917  0.7094699999999999  0.00475  1.0000
  H   H6        1.0  0.060830000000000044  0.29052  0.99526  1.0000
  H   H7        1.0  0.56083  0.20947  0.99526  1.0000
  H   H8        1.0  0.43917  0.79053  0.00474  1.0000
  C   C17       1.0  0.9339999999999999  0.011559999999999997  0.99833  1.0000
  C   C18       1.0  0.066  0.98843  0.00166  1.0000
  C   C19       1.0  0.566  0.51156  0.00167  1.0000
  C   C20       1.0  0.434  0.48842999999999986  0.99834  1.0000
  C   C21       1.0  0.67829  0.01689  0.72417  1.0000
  C   C22       1.0  0.32201  0.98462  0.27571  1.0000
  C   C23       1.0  0.82171  0.51689  0.27583  1.0000
  C   C24       1.0  0.17799  0.48461999999999994  0.72428  1.0000
  C   C25       1.0  0.69195  0.03483  0.56764  1.0000
  C   C26       1.0  0.30835  0.9704399999999999  0.43227  1.0000
  C   C27       1.0  0.80805  0.53484  0.43236  1.0000
  C   C28       1.0  0.19165  0.47044  0.56773  1.0000
  C   C29       1.0  0.7181099999999999  0.03139  0.6657  1.0000
  C   C30       1.0  0.28226  0.9694899999999997  0.33422999999999997  1.0000
  C   C31       1.0  0.7818899999999999  0.5314  0.3343  1.0000
  C   C32       1.0  0.21773  0.46948  0.66577  1.0000
  C   C33       1.0  0.61169  0.00554  0.68682  1.0000
  C   C34       1.0  0.38853  0.00074  0.31301999999999996  1.0000
  C   C35       1.0  0.88831  0.50554  0.31318  1.0000
  C   C36       1.0  0.11147999999999998  0.50075  0.68698  1.0000
  C   C37       1.0  0.58231  0.01707  0.5893  1.0000
  C   C38       1.0  0.41759  0.00487  0.41078  1.0000
  C   C39       1.0  0.91769  0.51707  0.41070000000000007  1.0000
  C   C40       1.0  0.08240999999999998  0.50488  0.58922  1.0000
  C   C41       1.0  0.62333  0.03332  0.52957  1.0000
  C   C42       1.0  0.37657  0.9902699999999998  0.47055  1.0000
  C   C43       1.0  0.8766699999999998  0.53332  0.47043  1.0000
  C   C44       1.0  0.12342999999999998  0.49027  0.52945  1.0000
  C   C45       1.0  0.51345  0.013699999999999999  0.54972  1.0000
  C   C46       1.0  0.4862199999999999  0.02029  0.45061  1.0000
  C   C47       1.0  0.98655  0.5137  0.45028  1.0000
  C   C48       1.0  0.013780000000000014  0.52029  0.54939  1.0000
  C   C49       1.0  0.52847  0.04512  0.39458  1.0000
  C   C50       1.0  0.47083999999999987  0.0075899999999999995  0.60612  1.0000
  C   C51       1.0  0.97153  0.54512  0.60542  1.0000
  C   C52       1.0  0.02916  0.50759  0.39388  1.0000
  C   C53       1.0  0.59486  0.05266999999999999  0.43303  1.0000
  C   C54       1.0  0.40452  0.99801  0.56761  1.0000
  C   C55       1.0  0.90514  0.55268  0.5669700000000001  1.0000
  C   C56       1.0  0.09548  0.49801  0.43239  1.0000
  H   H9        1.0  0.62335  0.07687  0.3851  1.0000
  H   H10       1.0  0.37557  0.99755  0.6160699999999999  1.0000
  H   H11       1.0  0.8766500000000002  0.5768799999999997  0.6148900000000002  1.0000
  H   H12       1.0  0.12443  0.49754  0.38393  1.0000
  H   H13       1.0  0.41602  0.0055299999999999985  0.26305  1.0000
  H   H14       1.0  0.58448  0.99028  0.73674  1.0000
  H   H15       1.0  0.08397999999999997  0.50554  0.73695  1.0000
  H   H16       1.0  0.9155199999999999  0.49026  0.26326  1.0000
  H   H17       1.0  0.23096999999999998  0.95406  0.30184  1.0000
  H   H18       1.0  0.76962  0.03786  0.69812  1.0000
  H   H19       1.0  0.26903  0.45405  0.69815  1.0000
  H   H20       1.0  0.7303799999999999  0.53787  0.30188  1.0000
  H   H21       1.0  0.51198  0.06327  0.31985  1.0000
  H   H22       1.0  0.48679  0.01282  0.68136  1.0000
  H   H23       1.0  0.9880200000000002  0.56327  0.68014  1.0000
  H   H24       1.0  0.01321000000000001  0.51281  0.31864000000000003  1.0000
  N   N1        1.0  0.73322  0.04043999999999998  0.50692  1.0000
  H   H25       1.0  0.71786  0.9609599999999998  0.44721  1.0000
  C   C57       1.0  0.80277  0.03528  0.54583  1.0000
  H   H26       1.0  0.82599  0.04668999999999999  0.48836  1.0000
  H   H27       1.0  0.81784  0.90166  0.58314  1.0000
  H   H28       1.0  0.81974  0.15437  0.59394  1.0000
  N   N2        1.0  0.26745  0.9494899999999997  0.49285  1.0000
  H   H29       1.0  0.28498  0.8614699999999997  0.54882  1.0000
  C   C58       1.0  0.1981  0.9346999999999999  0.45385  1.0000
  H   H30       1.0  0.17493  0.9304299999999998  0.51155  1.0000
  H   H31       1.0  0.18566999999999997  0.80473  0.41232  1.0000
  H   H32       1.0  0.17868  0.05717  0.40941  1.0000
  N   N3        1.0  0.7667799999999999  0.5404399999999999  0.49308  1.0000
  H   H33       1.0  0.7821399999999998  0.46097  0.55279  1.0000
  C   C59       1.0  0.69723  0.53528  0.45417  1.0000
  H   H34       1.0  0.6740099999999999  0.54668  0.51164  1.0000
  H   H35       1.0  0.6821599999999998  0.40166  0.41686  1.0000
  H   H36       1.0  0.68026  0.6543599999999998  0.40605  1.0000
  N   N4        1.0  0.23255  0.44948999999999995  0.50715  1.0000
  H   H37       1.0  0.21502  0.3614699999999999  0.45118  1.0000
  C   C60       1.0  0.3019  0.4347  0.54615  1.0000
  H   H38       1.0  0.32507  0.43043  0.48845  1.0000
  H   H39       1.0  0.31433  0.30473  0.58768  1.0000
  H   H40       1.0  0.32132  0.5571699999999998  0.59059  1.0000
