data_image0
_chemical_formula_structural       C72Cr6H36O26
_chemical_formula_sum              "C72 Cr6 H36 O26"
_cell_length_a       11.11871
_cell_length_b       11.094680000000002
_cell_length_c       18.84314
_cell_angle_alpha    89.9188
_cell_angle_beta     90.12055
_cell_angle_gamma    120.25762999999999

_space_group_name_H-M_alt    "P 1"
_space_group_IT_number       1

loop_
  _space_group_symop_operation_xyz
  'x, y, z'

loop_
  _atom_site_type_symbol
  _atom_site_label
  _atom_site_symmetry_multiplicity
  _atom_site_fract_x
  _atom_site_fract_y
  _atom_site_fract_z
  _atom_site_occupancy
  C   C1        1.0  0.51819  0.45661  0.14718  1.0000
  C   C2        1.0  0.02886  0.42765999999999993  0.53376  1.0000
  C   C3        1.0  0.37875000000000003  0.92476  0.52926  1.0000
  C   C4        1.0  0.5482  0.60166  0.53005  1.0000
  C   C5        1.0  0.7534399999999999  0.11001  0.58448  1.0000
  C   C6        1.0  0.86494  0.62646  0.6023  1.0000
  C   C7        1.0  0.37355999999999995  0.23808  0.60165  1.0000
  C   C8        1.0  0.8726  0.6749  0.45794  1.0000
  C   C9        1.0  0.76521  0.04002  0.4446800000000001  1.0000
  C   C10       1.0  0.32471  0.19269  0.45756  1.0000
  C   C11       1.0  0.87527  0.12090000000000001  0.55857  1.0000
  C   C12       1.0  0.5436500000000001  0.06232000000000001  0.14696  1.0000
  C   C13       1.0  0.84932  0.73544  0.57782  1.0000
  C   C14       1.0  0.26529  0.11126  0.57791  1.0000
  C   C15       1.0  0.85904  0.76266  0.50574  1.0000
  C   C16       1.0  0.8812799999999997  0.0862  0.4886  1.0000
  C   C17       1.0  0.23657  0.09124  0.5059  1.0000
  C   C18       1.0  0.5409  0.42317  0.36187  1.0000
  C   C19       1.0  0.54559  0.06078000000000001  0.3537  1.0000
  C   C20       1.0  0.87976  0.45722  0.3617  1.0000
  C   C21       1.0  0.45765999999999996  0.51739  0.64764  1.0000
  C   C22       1.0  0.058609999999999995  0.54119  0.64795  1.0000
  C   C23       1.0  0.9384899999999998  0.48222  0.14731  1.0000
  C   C24       1.0  0.48052999999999996  0.93668  0.64603  1.0000
  C   C25       1.0  0.5083499999999999  0.99637  0.9248199999999999  1.0000
  C   C26       1.0  0.007289999999999999  0.5124  0.92579  1.0000
  C   C27       1.0  0.48756  0.49343999999999993  0.9254299999999999  1.0000
  C   C28       1.0  0.9955399999999999  0.50792  0.07502  1.0000
  C   C29       1.0  0.5127899999999999  0.0077800000000000005  0.07404  1.0000
  C   C30       1.0  0.4934699999999999  0.48785  0.07462  1.0000
  C   C31       1.0  0.40702999999999995  0.01104  0.96149  1.0000
  C   C32       1.0  0.99641  0.39828  0.96362  1.0000
  C   C33       1.0  0.60305  0.59612  0.96269  1.0000
  C   C34       1.0  0.45649999999999996  0.51811  0.8528399999999999  1.0000
  C   C35       1.0  0.010220000000000019  0.40636  0.03834  1.0000
  C   C36       1.0  0.39889  0.99696  0.03618  1.0000
  C   C37       1.0  0.5961  0.6033  0.03735  1.0000
  C   C38       1.0  0.6203499999999998  0.00545  0.03636  1.0000
  C   C39       1.0  0.9959499999999999  0.61638  0.03648  1.0000
  C   C40       1.0  0.38387  0.37959  0.03652  1.0000
  C   C41       1.0  0.004619999999999968  0.62005  0.96347  1.0000
  C   C42       1.0  0.61676  0.99702  0.9633500000000002  1.0000
  C   C43       1.0  0.3793  0.38403  0.96354  1.0000
  C   C44       1.0  0.31184999999999996  0.0369  0.92581  1.0000
  C   C45       1.0  0.06214000000000001  0.54348  0.8529900000000001  1.0000
  C   C46       1.0  0.9718099999999998  0.27594  0.92952  1.0000
  C   C47       1.0  0.7252099999999999  0.6925  0.9279100000000001  1.0000
  C   C48       1.0  0.03627999999999999  0.31114  0.07398  1.0000
  C   C49       1.0  0.27658999999999995  0.9718500000000001  0.07018  1.0000
  C   C50       1.0  0.69281  0.72553  0.07217  1.0000
  C   C51       1.0  0.19775999999999994  0.02378  0.96146  1.0000
  C   C52       1.0  0.98263  0.1751  0.9672899999999999  1.0000
  C   C53       1.0  0.8269799999999998  0.80543  0.96475  1.0000
  C   C54       1.0  0.02412999999999999  0.19727  0.03817  1.0000
  C   C55       1.0  0.17564999999999995  0.98211  0.0323  1.0000
  C   C56       1.0  0.48229000000000005  0.9386500000000001  0.85262  1.0000
  C   C57       1.0  0.8059299999999998  0.82688  0.03542  1.0000
  C   C58       1.0  0.49748999999999993  0.98606  0.57322  1.0000
  C   C59       1.0  0.98542  0.49539  0.58078  1.0000
  C   C60       1.0  0.49673000000000006  0.49138000000000004  0.57868  1.0000
  C   C61       1.0  0.9221699999999999  0.47913000000000006  0.43632000000000004  1.0000
  C   C62       1.0  0.52266  0.00206  0.42569  1.0000
  C   C63       1.0  0.51154  0.44342  0.4348699999999999  1.0000
  C   C64       1.0  0.63088  0.04872  0.54263  1.0000
  C   C65       1.0  0.9103399999999998  0.55763  0.55565  1.0000
  C   C66       1.0  0.43882  0.35278  0.55449  1.0000
  C   C67       1.0  0.39157  0.94217  0.45616  1.0000
  C   C68       1.0  0.8980599999999999  0.56828  0.48183  1.0000
  C   C69       1.0  0.64025  0.031180000000000003  0.46966  1.0000
  C   C70       1.0  0.42817  0.32803  0.48092  1.0000
  C   C71       1.0  0.9895799999999999  0.41163  0.46332  1.0000
  C   C72       1.0  0.5608499999999998  0.5786100000000001  0.45922  1.0000
  Cr  Cr1       1.0  0.76855  0.54132  0.25066  1.0000
  Cr  Cr2       1.0  0.4586799999999999  0.22723000000000002  0.25066  1.0000
  Cr  Cr3       1.0  0.7727699999999998  0.23145000000000002  0.25066  1.0000
  Cr  Cr4       1.0  0.54132  0.76855  0.74934  1.0000
  Cr  Cr5       1.0  0.22722999999999996  0.45868000000000003  0.74934  1.0000
  Cr  Cr6       1.0  0.23144999999999993  0.77277  0.74934  1.0000
  H   H1        1.0  0.71034  0.01363  0.06308  1.0000
  H   H2        1.0  0.06742999999999998  0.32465  0.12919  1.0000
  H   H3        1.0  0.25626000000000004  0.9403600000000001  0.12525  1.0000
  H   H4        1.0  0.68058  0.74465  0.12726  1.0000
  H   H5        1.0  0.12783  0.04457  0.9323599999999999  1.0000
  H   H6        1.0  0.9593099999999999  0.08186  0.9401100000000001  1.0000
  H   H7        1.0  0.9198399999999998  0.8747600000000001  0.9369  1.0000
  H   H8        1.0  0.04569  0.12763  0.06713  1.0000
  H   H9        1.0  0.08228999999999996  0.95809  0.05931  1.0000
  H   H10       1.0  0.87585  0.9195300000000001  0.06341  1.0000
  H   H11       1.0  0.29979  0.9086800000000002  0.42353  1.0000
  H   H12       1.0  0.9854099999999998  0.69739  0.06249  1.0000
  H   H13       1.0  0.020319999999999994  0.35369  0.4289799999999999  1.0000
  H   H14       1.0  0.6083899999999999  0.66691  0.42334  1.0000
  H   H15       1.0  0.09733999999999995  0.39028  0.55095  1.0000
  H   H16       1.0  0.2751399999999999  0.86469  0.55148  1.0000
  H   H17       1.0  0.57934  0.70689  0.54683  1.0000
  H   H18       1.0  0.7528399999999997  0.14046  0.639  1.0000
  H   H19       1.0  0.8535399999999999  0.60468  0.6587  1.0000
  H   H20       1.0  0.3957399999999999  0.24977000000000002  0.65801  1.0000
  H   H21       1.0  0.8656899999999997  0.69902  0.4036  1.0000
  H   H22       1.0  0.7732899999999999  0.00289  0.39298  1.0000
  H   H23       1.0  0.30252  0.28833  0.0629  1.0000
  H   H24       1.0  0.3007  0.16175  0.40314  1.0000
  H   H25       1.0  0.9651299999999999  0.15637  0.59283  1.0000
  H   H26       1.0  0.82643  0.79649  0.61431  1.0000
  H   H27       1.0  0.20475999999999997  0.02801  0.61515  1.0000
  H   H28       1.0  0.84122  0.84269  0.48574999999999996  1.0000
  H   H29       1.0  0.97573  0.09341  0.46838  1.0000
  H   H30       1.0  0.15243000000000007  0.99223  0.48706000000000005  1.0000
  H   H31       1.0  0.012850000000000002  0.71019  0.93674  1.0000
  H   H32       1.0  0.6976899999999999  0.9866400000000001  0.9373399999999998  1.0000
  H   H33       1.0  0.28797  0.30269  0.93717  1.0000
  H   H34       1.0  0.32538  0.06828  0.87064  1.0000
  H   H35       1.0  0.9405399999999999  0.25561  0.8743999999999998  1.0000
  H   H36       1.0  0.74405  0.67998  0.8728200000000002  1.0000
  O   O1        1.0  0.9109599999999998  0.57241  0.17101  1.0000
  O   O2        1.0  0.5285299999999999  0.63975  0.8244  1.0000
  O   O3        1.0  0.11121999999999999  0.47147  0.8244  1.0000
  O   O4        1.0  0.36024999999999996  0.88878  0.8244  1.0000
  O   O5        1.0  0.90933  0.5724  0.33154  1.0000
  O   O6        1.0  0.4276  0.33693  0.33154  1.0000
  O   O7        1.0  0.66307  0.09067  0.33154  1.0000
  O   O8        1.0  0.5723999999999999  0.90933  0.66846  1.0000
  O   O9        1.0  0.33692999999999995  0.42760000000000004  0.66846  1.0000
  O   O10       1.0  0.09067  0.66307  0.66846  1.0000
  O   O11       1.0  0.63824  0.52852  0.32441  1.0000
  O   O12       1.0  0.42758999999999997  0.33855  0.17101  1.0000
  O   O13       1.0  0.47148  0.10972000000000001  0.32441  1.0000
  O   O14       1.0  0.89028  0.3617600000000001  0.32441  1.0000
  O   O15       1.0  0.5285199999999999  0.63824  0.67559  1.0000
  O   O16       1.0  0.10971999999999996  0.47148000000000007  0.67559  1.0000
  O   O17       1.0  0.36176  0.89028  0.67559  1.0000
  O   O18       1.0  0.66667  0.33333  0.25063  1.0000
  O   O19       1.0  0.33332999999999996  0.66667  0.74937  1.0000
  O   O20       1.0  0.66145  0.08904  0.17101  1.0000
  O   O21       1.0  0.5724100000000001  0.9109600000000001  0.82899  1.0000
  O   O22       1.0  0.33854999999999996  0.42759  0.82899  1.0000
  O   O23       1.0  0.08903999999999992  0.66145  0.82899  1.0000
  O   O24       1.0  0.6397499999999999  0.52853  0.1756  1.0000
  O   O25       1.0  0.47146999999999994  0.11122000000000001  0.1756  1.0000
  O   O26       1.0  0.88878  0.36025000000000007  0.1756  1.0000
