data_image0
_chemical_formula_structural       O8C4O8C4Cu8O16C32N4C4N4C52H4C4N8C36O8C4O8C4Cu4NO2NO2NO2NO2SO3HSO3HSO3HSO3HNO2NO2NO2NO2SO3HSO3HSO3HSO3HNO2NO2NO2NO2NO2NO2NO2NO2SO3HSO3HSO3HSO3HNO2NO2NO2NO2SO3HSO3HSO3HSO3HNO2NO2NO2NO2NO2NO2NO2NO2SO3HSO3HSO3HSO3HNO2NO2NO2NO2SO3HSO3HSO3HSO3HSO3HSO3HSO3HSO3HSO3HSO3HSO3HSO3HSO3HSO3HSO3HSO3HNO2NO2NO2NO2SO3HSO3HSO3HSO3H
_chemical_formula_sum              "O240 C144 Cu12 N52 H44 S40"
_cell_length_a       30.75316
_cell_length_b       30.44476
_cell_length_c       24.62775
_cell_angle_alpha    89.80774
_cell_angle_beta     127.74129
_cell_angle_gamma    90.00116000000001

_symmetry_space_group_name_H-M    'P 1'
_symmetry_Int_Tables_number       1

loop_
  _symmetry_equiv_pos_as_xyz
  'x,y,z'

loop_
  _atom_site_type_symbol
  _atom_site_label
  _atom_site_symmetry_multiplicity
  _atom_site_fract_x
  _atom_site_fract_y
  _atom_site_fract_z
  _atom_site_occupancy
  O   O1        1.0  0.82228  0.76928  0.49999  1.0000
  O   O2        1.0  0.17772000000000002  0.76928  0.50001  1.0000
  O   O3        1.0  0.3222800000000001  0.26928  0.49999  1.0000
  O   O4        1.0  0.6777200000000002  0.26928  0.50001  1.0000
  O   O5        1.0  0.76927  0.82228  0.49999  1.0000
  O   O6        1.0  0.23073  0.82228  0.50001  1.0000
  O   O7        1.0  0.26927  0.32228  0.49999  1.0000
  O   O8        1.0  0.7307300000000002  0.32228  0.50001  1.0000
  C   C1        1.0  0.8105100000000001  0.80993  0.5015000000000001  1.0000
  C   C2        1.0  0.19278  0.80999  0.50461  1.0000
  C   C3        1.0  0.30851000000000006  0.30985  0.4972500000000001  1.0000
  C   C4        1.0  0.68937  0.31002  0.49808  1.0000
  O   O9        1.0  0.7265800000000001  0.7234899999999999  0.40014  1.0000
  O   O10       1.0  0.27342  0.7234899999999999  0.59986  1.0000
  O   O11       1.0  0.22658  0.22349  0.40014  1.0000
  O   O12       1.0  0.77342  0.22349  0.59986  1.0000
  O   O13       1.0  0.67356  0.7765  0.40014  1.0000
  O   O14       1.0  0.3264400000000001  0.7765  0.59986  1.0000
  O   O15       1.0  0.17356  0.2765  0.40014  1.0000
  O   O16       1.0  0.82644  0.2765  0.59986  1.0000
  C   C5        1.0  0.68143  0.74724  0.3677500000000001  1.0000
  C   C6        1.0  0.31781  0.74789  0.63247  1.0000
  C   C7        1.0  0.18177000000000004  0.24768  0.36762  1.0000
  C   C8        1.0  0.81818  0.24754999999999994  0.63236  1.0000
  Cu  Cu1       1.0  0.7813800000000002  0.71861  0.5  1.0000
  Cu  Cu2       1.0  0.21862  0.71861  0.5  1.0000
  Cu  Cu3       1.0  0.28138  0.21861  0.5  1.0000
  Cu  Cu4       1.0  0.71862  0.21861  0.5  1.0000
  Cu  Cu5       1.0  0.7186000000000002  0.7813799999999997  0.5  1.0000
  Cu  Cu6       1.0  0.2814  0.7813799999999997  0.5  1.0000
  Cu  Cu7       1.0  0.2186  0.28138  0.5  1.0000
  Cu  Cu8       1.0  0.7814  0.28138  0.5  1.0000
  O   O17       1.0  0.73072  0.6777  0.50001  1.0000
  O   O18       1.0  0.26928000000000013  0.6777  0.49999  1.0000
  O   O19       1.0  0.23072  0.1777  0.50001  1.0000
  O   O20       1.0  0.76928  0.1777  0.49999  1.0000
  O   O21       1.0  0.6777  0.73071  0.50001  1.0000
  O   O22       1.0  0.3223  0.73071  0.49999  1.0000
  O   O23       1.0  0.1777  0.23071  0.50001  1.0000
  O   O24       1.0  0.8223  0.23071  0.49999  1.0000
  O   O25       1.0  0.82643  0.7234899999999999  0.59985  1.0000
  O   O26       1.0  0.17357000000000006  0.7234899999999999  0.4001500000000001  1.0000
  O   O27       1.0  0.32643  0.22349  0.59985  1.0000
  O   O28       1.0  0.6735700000000003  0.22349  0.4001500000000001  1.0000
  O   O29       1.0  0.77341  0.77649  0.59985  1.0000
  O   O30       1.0  0.22659000000000012  0.77649  0.4001500000000001  1.0000
  O   O31       1.0  0.27341  0.27649  0.59985  1.0000
  O   O32       1.0  0.72659  0.27649  0.4001500000000001  1.0000
  C   C9        1.0  0.69017  0.68994  0.49989000000000006  1.0000
  C   C10       1.0  0.30953  0.68995  0.4994700000000001  1.0000
  C   C11       1.0  0.19035000000000005  0.18991  0.50028  1.0000
  C   C12       1.0  0.80957  0.18991  0.49959  1.0000
  C   C13       1.0  0.8154100000000002  0.7497499999999998  0.63252  1.0000
  C   C14       1.0  0.18512  0.74941  0.36753  1.0000
  C   C15       1.0  0.31508  0.24945  0.63248  1.0000
  C   C16       1.0  0.68469  0.24981  0.36749  1.0000
  C   C17       1.0  0.59935  0.77586  0.25291  1.0000
  C   C18       1.0  0.39276  0.78019  0.74836  1.0000
  C   C19       1.0  0.10397  0.27903  0.25233  1.0000
  C   C20       1.0  0.8975100000000003  0.27777  0.7476400000000001  1.0000
  C   C21       1.0  0.56455  0.77512  0.18102  1.0000
  C   C22       1.0  0.42655  0.77898  0.82046  1.0000
  C   C23       1.0  0.06904000000000003  0.27816  0.18046  1.0000
  C   C24       1.0  0.9308700000000001  0.27724  0.8197000000000001  1.0000
  C   C25       1.0  0.56517  0.73924  0.14558000000000001  1.0000
  C   C26       1.0  0.42958  0.7406899999999997  0.85448  1.0000
  C   C27       1.0  0.06578  0.24051  0.14518  1.0000
  C   C28       1.0  0.93024  0.24073999999999998  0.85414  1.0000
  C   C29       1.0  0.59968  0.70295  0.18347  1.0000
  C   C30       1.0  0.39874000000000004  0.70348  0.8168600000000001  1.0000
  C   C31       1.0  0.09686  0.20288  0.18315  1.0000
  C   C32       1.0  0.89686  0.20438  0.81696  1.0000
  C   C33       1.0  0.63524  0.70326  0.25631  1.0000
  C   C34       1.0  0.36452  0.70403  0.74424  1.0000
  C   C35       1.0  0.13287  0.20345  0.25599  1.0000
  C   C36       1.0  0.86299  0.20436  0.74439  1.0000
  C   C37       1.0  0.63858  0.7418899999999999  0.29163  1.0000
  C   C38       1.0  0.35861  0.74386  0.70903  1.0000
  C   C39       1.0  0.13953000000000004  0.2432  0.29126  1.0000
  C   C40       1.0  0.85972  0.24307  0.70876  1.0000
  N   N1        1.0  0.54655  0.7206099999999998  0.03529  1.0000
  N   N2        1.0  0.51456  0.72064  0.96698  1.0000
  N   N3        1.0  0.04536  0.21851  0.03501  1.0000
  N   N4        1.0  0.01335999999999996  0.21832  0.96672  1.0000
  C   C41       1.0  0.4642600000000001  0.7398499999999998  0.92986  1.0000
  C   C42       1.0  0.52941  0.73958  0.06911000000000002  1.0000
  C   C43       1.0  0.9649000000000001  0.24038  0.9295200000000001  1.0000
  C   C44       1.0  0.030050000000000004  0.24057  0.06874  1.0000
  N   N5        1.0  0.44708000000000003  0.75926  0.9631800000000001  1.0000
  N   N6        1.0  0.47898  0.75892  0.03151  1.0000
  N   N7        1.0  0.9496  0.26288  0.96275  1.0000
  N   N8        1.0  0.9815100000000002  0.26279  0.03109  1.0000
  C   C45       1.0  0.86487  0.88559  0.54802  1.0000
  C   C46       1.0  0.11699  0.8709  0.44128000000000006  1.0000
  C   C47       1.0  0.38268  0.37232999999999994  0.55993  1.0000
  C   C48       1.0  0.6385  0.38826  0.4559500000000001  1.0000
  C   C49       1.0  0.8475200000000003  0.91352  0.48518  1.0000
  C   C50       1.0  0.13323  0.91272  0.48482  1.0000
  C   C51       1.0  0.36486  0.41241  0.51227  1.0000
  C   C52       1.0  0.65314  0.41242  0.5203400000000001  1.0000
  C   C53       1.0  0.9051800000000002  0.90761  0.50423  1.0000
  C   C54       1.0  0.09021  0.90218  0.49641  1.0000
  C   C55       1.0  0.4104  0.4027  0.50498  1.0000
  C   C56       1.0  0.59374  0.40658  0.4955300000000001  1.0000
  C   C57       1.0  0.9230100000000002  0.8793  0.5677  1.0000
  C   C58       1.0  0.07325  0.85969  0.45151  1.0000
  C   C59       1.0  0.4292  0.36238  0.55434  1.0000
  C   C60       1.0  0.57888  0.38228  0.43061  1.0000
  C   C61       1.0  0.9022400000000005  0.83793  0.5221  1.0000
  C   C62       1.0  0.11783  0.83437  0.51771  1.0000
  C   C63       1.0  0.38893000000000016  0.33359  0.49092000000000013  1.0000
  C   C64       1.0  0.5956400000000002  0.33864  0.47025  1.0000
  C   C65       1.0  0.8842800000000002  0.86594  0.45944000000000007  1.0000
  C   C66       1.0  0.13513  0.87606  0.56154  1.0000
  C   C67       1.0  0.36963000000000007  0.37358  0.4424600000000001  1.0000
  C   C68       1.0  0.61039  0.36246  0.53443  1.0000
  C   C69       1.0  0.82724  0.87199  0.4408  1.0000
  C   C70       1.0  0.17759000000000003  0.8865  0.54964  1.0000
  C   C71       1.0  0.32437  0.38345  0.44976  1.0000
  C   C72       1.0  0.6695800000000003  0.36860999999999994  0.5596700000000001  1.0000
  C   C73       1.0  0.8449  0.84393  0.5033  1.0000
  C   C74       1.0  0.16053999999999996  0.84436  0.50632  1.0000
  C   C75       1.0  0.34280000000000005  0.34306  0.4971900000000001  1.0000
  C   C76       1.0  0.65495  0.34439  0.49558  1.0000
  C   C77       1.0  0.83671  0.77227  0.74608  1.0000
  C   C78       1.0  0.16427000000000005  0.77221  0.25409  1.0000
  C   C79       1.0  0.33432  0.26993  0.74553  1.0000
  C   C80       1.0  0.66453  0.27128999999999986  0.25395  1.0000
  C   C81       1.0  0.86971  0.76867  0.81862  1.0000
  C   C82       1.0  0.13183000000000003  0.76858  0.18171  1.0000
  C   C83       1.0  0.36643000000000014  0.26528  0.81777  1.0000
  C   C84       1.0  0.6325  0.26661  0.18171  1.0000
  C   C85       1.0  0.91977  0.74406  0.8544400000000001  1.0000
  C   C86       1.0  0.08242  0.74337  0.14576  1.0000
  C   C87       1.0  0.41823  0.24331999999999995  0.85418  1.0000
  C   C88       1.0  0.58129  0.24366  0.14557  1.0000
  C   C89       1.0  0.93228  0.71992  0.8164000000000001  1.0000
  C   C90       1.0  0.07034  0.71845  0.18378  1.0000
  C   C91       1.0  0.43273  0.22117  0.81668  1.0000
  C   C92       1.0  0.5682300000000002  0.22034  0.18396  1.0000
  C   C93       1.0  0.8979  0.72262  0.7449  1.0000
  C   C94       1.0  0.10413000000000001  0.7212799999999999  0.25522  1.0000
  C   C95       1.0  0.3983700000000001  0.22358999999999998  0.74514  1.0000
  C   C96       1.0  0.6024  0.22313  0.25537  1.0000
  H   H1        1.0  0.9083700000000001  0.70376  0.7171600000000001  1.0000
  H   H2        1.0  0.09389999999999998  0.70191  0.28288  1.0000
  H   H3        1.0  0.41019  0.20616  0.71771  1.0000
  H   H4        1.0  0.5913900000000002  0.20484  0.28315000000000007  1.0000
  C   C97       1.0  0.8505900000000002  0.74868  0.70892  1.0000
  C   C98       1.0  0.15056  0.74811  0.29119  1.0000
  C   C99       1.0  0.34977000000000014  0.24805999999999997  0.70879  1.0000
  C   C100      1.0  0.64993  0.24866  0.29117  1.0000
  N   N9        1.0  0.016200000000000003  0.7471  0.9592  1.0000
  N   N10       1.0  0.98594  0.74487  0.04091000000000001  1.0000
  N   N11       1.0  0.51407  0.25052  0.95871  1.0000
  N   N12       1.0  0.48451  0.24372  0.040530000000000004  1.0000
  N   N13       1.0  0.05444  0.74627  0.027080000000000003  1.0000
  N   N14       1.0  0.94772  0.7443799999999998  0.9730400000000002  1.0000
  N   N15       1.0  0.55234  0.24997  0.02652  1.0000
  N   N16       1.0  0.4462600000000001  0.24307  0.9727000000000001  1.0000
  C   C101      1.0  0.04029  0.74535  0.06952  1.0000
  C   C102      1.0  0.9618700000000002  0.74578  0.93062  1.0000
  C   C103      1.0  0.53873  0.24624  0.06921  1.0000
  C   C104      1.0  0.46009  0.24629  0.93016  1.0000
  C   C105      1.0  0.59889  0.64153  0.43714  1.0000
  C   C106      1.0  0.40299000000000007  0.64506  0.56  1.0000
  C   C107      1.0  0.09661  0.14521  0.43877  1.0000
  C   C108      1.0  0.90114  0.14224  0.56193  1.0000
  C   C109      1.0  0.58064  0.6405  0.4829  1.0000
  C   C110      1.0  0.41682  0.64185  0.50994  1.0000
  C   C111      1.0  0.08274  0.14145  0.48879  1.0000
  C   C112      1.0  0.9186  0.14094  0.51531  1.0000
  C   C113      1.0  0.59691  0.5916599999999997  0.50007  1.0000
  C   C114      1.0  0.40396  0.59234  0.50038  1.0000
  C   C115      1.0  0.09569000000000005  0.09192  0.49823000000000006  1.0000
  C   C116      1.0  0.90345  0.09196  0.5002  1.0000
  C   C117      1.0  0.61623  0.5928599999999999  0.45487  1.0000
  C   C118      1.0  0.38917  0.59572  0.55004  1.0000
  C   C119      1.0  0.11034  0.09578  0.44843  1.0000
  C   C120      1.0  0.8847900000000001  0.09342  0.5462100000000001  1.0000
  C   C121      1.0  0.6748600000000002  0.60677  0.51779  1.0000
  C   C122      1.0  0.32839  0.60608  0.48904000000000003  1.0000
  C   C123      1.0  0.17107999999999998  0.10581  0.50939  1.0000
  C   C124      1.0  0.82556  0.10638  0.48312000000000005  1.0000
  C   C125      1.0  0.65542  0.60631  0.56267  1.0000
  C   C126      1.0  0.34340000000000004  0.60366  0.43959000000000004  1.0000
  C   C127      1.0  0.15615000000000004  0.10281  0.55887  1.0000
  C   C128      1.0  0.84451  0.10577  0.43766  1.0000
  C   C129      1.0  0.6383100000000003  0.65485  0.54554  1.0000
  C   C130      1.0  0.3569900000000001  0.65303  0.449  1.0000
  C   C131      1.0  0.14254  0.15219  0.54992  1.0000
  C   C132      1.0  0.86047  0.15449  0.45276  1.0000
  C   C133      1.0  0.6570300000000002  0.65554  0.50011  1.0000
  C   C134      1.0  0.34265000000000007  0.65568  0.49896000000000007  1.0000
  C   C135      1.0  0.15695  0.1555  0.50004  1.0000
  C   C136      1.0  0.84252  0.1554  0.4990800000000001  1.0000
  O   O33       1.0  0.4253500000000001  0.54575  0.44223  1.0000
  O   O34       1.0  0.57465  0.54575  0.5577700000000001  1.0000
  O   O35       1.0  0.92535  0.04575  0.44223  1.0000
  O   O36       1.0  0.07465000000000004  0.04575  0.5577700000000001  1.0000
  O   O37       1.0  0.48315  0.54573  0.55782  1.0000
  O   O38       1.0  0.51685  0.54573  0.44218  1.0000
  O   O39       1.0  0.98315  0.04573  0.55782  1.0000
  O   O40       1.0  0.016849999999999983  0.04573  0.44218  1.0000
  C   C137      1.0  0.43892  0.55913  0.50024  1.0000
  C   C138      1.0  0.56153  0.55864  0.49978  1.0000
  C   C139      1.0  0.9386300000000002  0.05885  0.50019  1.0000
  C   C140      1.0  0.061070000000000034  0.05894  0.49945  1.0000
  O   O41       1.0  0.92535  0.95417  0.44221000000000005  1.0000
  O   O42       1.0  0.07464999999999995  0.95417  0.55779  1.0000
  O   O43       1.0  0.4253500000000001  0.45417  0.44221000000000005  1.0000
  O   O44       1.0  0.57465  0.45417  0.55779  1.0000
  O   O45       1.0  0.9831600000000003  0.9541499999999999  0.5578  1.0000
  O   O46       1.0  0.016839999999999994  0.9541499999999999  0.4422  1.0000
  O   O47       1.0  0.48316  0.45415  0.5578  1.0000
  O   O48       1.0  0.5168400000000002  0.45415  0.4422  1.0000
  C   C141      1.0  0.93882  0.94107  0.50094  1.0000
  C   C142      1.0  0.057860000000000036  0.9375399999999998  0.49923000000000006  1.0000
  C   C143      1.0  0.4419700000000001  0.4379799999999998  0.50111  1.0000
  C   C144      1.0  0.56065  0.44045  0.49910000000000004  1.0000
  Cu  Cu9       1.0  0.9658100000000001  0.9999599999999997  0.43156000000000005  1.0000
  Cu  Cu10      1.0  0.03419000000000005  0.9999599999999997  0.56844  1.0000
  Cu  Cu11      1.0  0.4658100000000001  0.49996  0.43156000000000005  1.0000
  Cu  Cu12      1.0  0.53419  0.49996  0.56844  1.0000
  N   N17       1.0  0.59167  0.81047  0.28561  1.0000
  O   O49       1.0  0.61061  0.84948  0.28969  1.0000
  O   O50       1.0  0.55487  0.8057  0.2953  1.0000
  N   N18       1.0  0.39629  0.81787  0.71617  1.0000
  O   O51       1.0  0.35518000000000005  0.84496  0.6812100000000001  1.0000
  O   O52       1.0  0.4434400000000001  0.8289499999999997  0.73135  1.0000
  N   N19       1.0  0.10211000000000008  0.31698  0.2849900000000001  1.0000
  O   O53       1.0  0.13882  0.34750999999999993  0.30742  1.0000
  O   O54       1.0  0.05907  0.32432  0.28204  1.0000
  N   N20       1.0  0.9076000000000001  0.31125  0.71548  1.0000
  O   O55       1.0  0.87526  0.34517  0.68723  1.0000
  O   O56       1.0  0.95473  0.31212  0.72656  1.0000
  S   S1        1.0  0.76398  0.86554  0.35672000000000004  1.0000
  O   O57       1.0  0.76228  0.82121  0.32892  1.0000
  O   O58       1.0  0.7174700000000003  0.86884  0.36088  1.0000
  O   O59       1.0  0.7579600000000003  0.9048199999999998  0.30417000000000005  1.0000
  H   H5        1.0  0.7255100000000001  0.92261  0.29  1.0000
  S   S2        1.0  0.24531000000000003  0.90566  0.6150500000000001  1.0000
  O   O60       1.0  0.27148  0.87686  0.67747  1.0000
  O   O61       1.0  0.27891  0.9046  0.58959  1.0000
  O   O62       1.0  0.24178000000000005  0.95736  0.6357200000000001  1.0000
  H   H6        1.0  0.28049  0.96628  0.67096  1.0000
  S   S3        1.0  0.25595  0.39946  0.38137  1.0000
  O   O63       1.0  0.23267000000000002  0.36846999999999996  0.32228000000000007  1.0000
  O   O64       1.0  0.22172000000000008  0.39837  0.40593000000000007  1.0000
  O   O65       1.0  0.25662  0.4506899999999999  0.3563  1.0000
  H   H7        1.0  0.21762  0.46008  0.32605  1.0000
  S   S4        1.0  0.7298900000000003  0.35972  0.6456500000000001  1.0000
  O   O66       1.0  0.73387  0.31229  0.66519  1.0000
  O   O67       1.0  0.7790400000000001  0.37157  0.64958  1.0000
  O   O68       1.0  0.72803  0.39134  0.70014  1.0000
  H   H8        1.0  0.76206  0.40908  0.72504  1.0000
  N   N21       1.0  0.79068  0.80175  0.71062  1.0000
  O   O69       1.0  0.7411900000000001  0.78711  0.6817100000000001  1.0000
  O   O70       1.0  0.79854  0.84361  0.7077700000000001  1.0000
  N   N22       1.0  0.20946  0.80232  0.28942  1.0000
  O   O71       1.0  0.25936  0.78843  0.3193  1.0000
  O   O72       1.0  0.20057000000000005  0.84373  0.2922  1.0000
  N   N23       1.0  0.28822  0.29928  0.71042  1.0000
  O   O73       1.0  0.23851  0.28417  0.67743  1.0000
  O   O74       1.0  0.29626  0.3414699999999999  0.71388  1.0000
  N   N24       1.0  0.71  0.30109  0.28872  1.0000
  O   O75       1.0  0.76004  0.28647  0.32199000000000005  1.0000
  O   O76       1.0  0.70107  0.3432  0.2838  1.0000
  S   S5        1.0  0.8473  0.794  0.8635100000000001  1.0000
  O   O77       1.0  0.8910800000000002  0.8253  0.9162  1.0000
  O   O78       1.0  0.7939800000000002  0.81907  0.8174400000000002  1.0000
  O   O79       1.0  0.8376500000000003  0.75416  0.9029600000000001  1.0000
  H   H9        1.0  0.83467  0.76989  0.93579  1.0000
  S   S6        1.0  0.15434  0.79466  0.13734  1.0000
  O   O80       1.0  0.11081000000000002  0.82638  0.08522  1.0000
  O   O81       1.0  0.20743000000000006  0.8192999999999999  0.184  1.0000
  O   O82       1.0  0.16412  0.7557  0.09734  1.0000
  H   H10       1.0  0.16699  0.77196  0.06476  1.0000
  S   S7        1.0  0.34035  0.28563  0.86107  1.0000
  O   O83       1.0  0.37871000000000005  0.3201599999999999  0.9116600000000001  1.0000
  O   O84       1.0  0.28371  0.30514  0.81324  1.0000
  O   O85       1.0  0.33682  0.24364  0.90291  1.0000
  H   H11       1.0  0.33299000000000006  0.25756  0.93609  1.0000
  S   S8        1.0  0.6586100000000001  0.28785  0.13869  1.0000
  O   O86       1.0  0.6212400000000002  0.3239  0.09038  1.0000
  O   O87       1.0  0.71589  0.30583  0.18699  1.0000
  O   O88       1.0  0.66056  0.24703  0.09423  1.0000
  H   H12       1.0  0.66405  0.26187  0.06122000000000001  1.0000
  N   N25       1.0  0.97907  0.69094  0.84951  1.0000
  O   O89       1.0  0.0068200000000000335  0.68727  0.82582  1.0000
  O   O90       1.0  0.9894600000000002  0.6639  0.89727  1.0000
  N   N26       1.0  0.024620000000000013  0.6885599999999998  0.15077  1.0000
  O   O91       1.0  0.9962400000000002  0.68416  0.17352000000000004  1.0000
  O   O92       1.0  0.015819999999999997  0.6616  0.10408  1.0000
  N   N27       1.0  0.48146000000000005  0.19442  0.8504  1.0000
  O   O93       1.0  0.50938  0.19297  0.82666  1.0000
  O   O94       1.0  0.4939700000000002  0.16717  0.8988800000000001  1.0000
  N   N28       1.0  0.52142  0.19171  0.15148  1.0000
  O   O95       1.0  0.49206  0.19028999999999996  0.17319000000000004  1.0000
  O   O96       1.0  0.51271  0.16272  0.10714  1.0000
  N   N29       1.0  0.5291  0.66022  0.46114  1.0000
  O   O97       1.0  0.52464  0.70277  0.45843  1.0000
  O   O98       1.0  0.48461000000000015  0.63664  0.42741000000000007  1.0000
  N   N30       1.0  0.46587  0.662  0.52463  1.0000
  O   O99       1.0  0.46666  0.70422  0.5173  1.0000
  O   O100      1.0  0.5123  0.64086  0.56267  1.0000
  N   N31       1.0  0.03346999999999998  0.16148  0.47362  1.0000
  O   O101      1.0  0.03145  0.20392  0.47737  1.0000
  O   O102      1.0  0.98767  0.13958  0.4375  1.0000
  N   N32       1.0  0.9693200000000001  0.16099  0.53517  1.0000
  O   O103      1.0  0.97197  0.20352  0.53324  1.0000
  O   O104      1.0  0.014770000000000021  0.13847  0.57168  1.0000
  S   S9        1.0  0.55724  0.66535  0.35275  1.0000
  O   O105      1.0  0.56943  0.71354  0.35752  1.0000
  O   O106      1.0  0.56872  0.64374  0.30803  1.0000
  O   O107      1.0  0.49027000000000004  0.65896  0.31643  1.0000
  H   H13       1.0  0.48128  0.62853  0.29862  1.0000
  S   S10       1.0  0.4468400000000001  0.67319  0.64038  1.0000
  O   O108      1.0  0.4391  0.72194  0.62851  1.0000
  O   O109      1.0  0.4335000000000001  0.6599  0.68739  1.0000
  O   O110      1.0  0.51286  0.66052  0.67754  1.0000
  H   H14       1.0  0.52655  0.64475  0.72059  1.0000
  S   S11       1.0  0.053270000000000026  0.17419  0.35858000000000007  1.0000
  O   O111      1.0  0.06493000000000003  0.22254  0.37051  1.0000
  O   O112      1.0  0.06335  0.15867  0.3094  1.0000
  O   O113      1.0  0.9868100000000002  0.16578  0.3234  1.0000
  H   H15       1.0  0.9779500000000001  0.13643  0.3018600000000001  1.0000
  S   S12       1.0  0.9435  0.16762  0.6449100000000001  1.0000
  O   O114      1.0  0.93281  0.21622  0.63756  1.0000
  O   O115      1.0  0.9314900000000003  0.14875  0.6908600000000001  1.0000
  O   O116      1.0  0.01015000000000004  0.15888  0.6809300000000001  1.0000
  H   H16       1.0  0.026339999999999954  0.14479  0.72589  1.0000
  N   N33       1.0  0.6023  0.56116  0.40197  1.0000
  O   O117      1.0  0.63338  0.55816  0.38296  1.0000
  O   O118      1.0  0.55256  0.54544  0.3621  1.0000
  N   N34       1.0  0.40936000000000017  0.56759  0.6090800000000001  1.0000
  O   O119      1.0  0.3785700000000001  0.56028  0.62772  1.0000
  O   O120      1.0  0.4618  0.55973  0.65275  1.0000
  N   N35       1.0  0.09019  0.06781  0.38952  1.0000
  O   O121      1.0  0.12174000000000006  0.05892  0.37253  1.0000
  O   O122      1.0  0.037710000000000014  0.0605  0.34536  1.0000
  N   N36       1.0  0.8990200000000002  0.06234  0.6002000000000001  1.0000
  O   O123      1.0  0.87692  0.06635  0.63106  1.0000
  O   O124      1.0  0.93723  0.03307  0.62205  1.0000
  S   S13       1.0  0.74193  0.58663  0.55016  1.0000
  O   O125      1.0  0.7435000000000002  0.57642  0.49173000000000006  1.0000
  O   O126      1.0  0.78481  0.6205  0.5958500000000001  1.0000
  O   O127      1.0  0.75813  0.54177  0.59845  1.0000
  H   H17       1.0  0.79746  0.53633  0.62048  1.0000
  S   S14       1.0  0.2653  0.58326  0.4667  1.0000
  O   O128      1.0  0.26745  0.58044  0.52923  1.0000
  O   O129      1.0  0.21776  0.61211  0.41413000000000005  1.0000
  O   O130      1.0  0.25367  0.53311  0.43252  1.0000
  H   H18       1.0  0.23414  0.53801  0.3829  1.0000
  S   S15       1.0  0.23392000000000004  0.08253  0.53166  1.0000
  O   O131      1.0  0.23234000000000007  0.08081  0.46952000000000005  1.0000
  O   O132      1.0  0.28159  0.11038  0.58579  1.0000
  O   O133      1.0  0.24388000000000012  0.03189  0.56423  1.0000
  H   H19       1.0  0.28005  0.02261  0.57732  1.0000
  S   S16       1.0  0.7595  0.08712  0.4562  1.0000
  O   O134      1.0  0.7608  0.08107  0.51779  1.0000
  O   O135      1.0  0.71565  0.11993  0.4078  1.0000
  O   O136      1.0  0.7416300000000002  0.04004  0.41309  1.0000
  H   H20       1.0  0.70243  0.0359  0.39271  1.0000
  N   N37       1.0  0.6907400000000001  0.58971  0.63341  1.0000
  O   O137      1.0  0.73892  0.6071  0.6776800000000001  1.0000
  O   O138      1.0  0.6768400000000001  0.55598  0.6520000000000001  1.0000
  N   N38       1.0  0.3078  0.5827  0.37227000000000005  1.0000
  O   O139      1.0  0.26041  0.60028  0.32468  1.0000
  O   O140      1.0  0.31806  0.54315  0.36315  1.0000
  N   N39       1.0  0.19176000000000007  0.08075999999999998  0.62559  1.0000
  O   O141      1.0  0.23915000000000003  0.09792  0.67355  1.0000
  O   O142      1.0  0.1823400000000001  0.04036  0.6327300000000001  1.0000
  N   N40       1.0  0.81276  0.08814999999999998  0.36798  1.0000
  O   O143      1.0  0.7594199999999999  0.08689  0.33032  1.0000
  O   O144      1.0  0.8353300000000001  0.0856  0.33749  1.0000
  N   N41       1.0  0.53014  0.81244  0.14437  1.0000
  O   O145      1.0  0.48269  0.81573  0.13236  1.0000
  O   O146      1.0  0.55003  0.84614  0.13383  1.0000
  N   N42       1.0  0.45625  0.81771  0.85886  1.0000
  O   O147      1.0  0.50848  0.81564  0.90989  1.0000
  O   O148      1.0  0.4311100000000001  0.85543  0.8423000000000002  1.0000
  N   N43       1.0  0.040310000000000006  0.3175  0.1437  1.0000
  O   O149      1.0  0.9933500000000002  0.32671  0.13041  1.0000
  O   O150      1.0  0.06508  0.34719  0.13356  1.0000
  N   N44       1.0  0.9649500000000001  0.31455  0.8575900000000001  1.0000
  O   O151      1.0  0.016670000000000018  0.3094  0.90906  1.0000
  O   O152      1.0  0.94452  0.35407  0.83966  1.0000
  S   S17       1.0  0.653  0.6945  0.60789  1.0000
  O   O153      1.0  0.71412  0.69768  0.6622000000000001  1.0000
  O   O154      1.0  0.63048  0.73851  0.57396  1.0000
  O   O155      1.0  0.62369  0.67839  0.64402  1.0000
  H   H21       1.0  0.62143  0.70526  0.66474  1.0000
  S   S18       1.0  0.3364  0.69064  0.38137  1.0000
  O   O156      1.0  0.27475000000000005  0.69267  0.33153000000000005  1.0000
  O   O157      1.0  0.3586300000000001  0.73548  0.41085000000000005  1.0000
  O   O158      1.0  0.36156  0.6732899999999999  0.34081  1.0000
  H   H22       1.0  0.3574500000000001  0.69867  0.3127400000000001  1.0000
  S   S19       1.0  0.16228999999999993  0.18863999999999995  0.61793  1.0000
  O   O159      1.0  0.22389999999999996  0.1907  0.6683  1.0000
  O   O160      1.0  0.1395900000000001  0.23364  0.589  1.0000
  O   O161      1.0  0.13681999999999994  0.1698  0.65753  1.0000
  H   H23       1.0  0.13789  0.19523  0.68328  1.0000
  S   S20       1.0  0.84246  0.19339  0.38767  1.0000
  O   O162      1.0  0.7810400000000003  0.19402  0.3342800000000001  1.0000
  O   O163      1.0  0.8618800000000002  0.23834  0.41851  1.0000
  O   O164      1.0  0.87132  0.1788  0.3504  1.0000
  H   H24       1.0  0.9035300000000002  0.1983  0.3705600000000001  1.0000
  N   N45       1.0  0.5976  0.66504  0.14755  1.0000
  O   O165      1.0  0.55261  0.64219  0.10960000000000002  1.0000
  O   O166      1.0  0.6404  0.65366  0.15190000000000003  1.0000
  N   N46       1.0  0.40045000000000003  0.66559  0.8529700000000001  1.0000
  O   O167      1.0  0.44589000000000006  0.64352  0.8938800000000001  1.0000
  O   O168      1.0  0.3563700000000001  0.65298  0.8448200000000001  1.0000
  N   N47       1.0  0.09083  0.16354  0.14727  1.0000
  O   O169      1.0  0.04377000000000001  0.14334  0.10983000000000001  1.0000
  O   O170      1.0  0.13186  0.14858  0.15024  1.0000
  N   N48       1.0  0.8961700000000001  0.16785  0.85345  1.0000
  O   O171      1.0  0.9400700000000001  0.14408  0.89434  1.0000
  O   O172      1.0  0.85118  0.15768  0.8446700000000001  1.0000
  S   S21       1.0  0.67058  0.65334  0.30067  1.0000
  O   O173      1.0  0.72615  0.6536299999999999  0.31651  1.0000
  O   O174      1.0  0.67768  0.64882  0.36639  1.0000
  O   O175      1.0  0.63564  0.60898  0.25266  1.0000
  H   H25       1.0  0.65629  0.58344  0.28301  1.0000
  S   S22       1.0  0.33413000000000004  0.65312  0.7006800000000001  1.0000
  O   O176      1.0  0.27877  0.64897  0.68494  1.0000
  O   O177      1.0  0.32741  0.65055  0.63511  1.0000
  O   O178      1.0  0.37379  0.61043  0.75026  1.0000
  H   H26       1.0  0.35389000000000004  0.58395  0.72266  1.0000
  S   S23       1.0  0.16486  0.15288  0.30067  1.0000
  O   O179      1.0  0.22030999999999998  0.14982  0.31641  1.0000
  O   O180      1.0  0.1718000000000001  0.15063  0.36641000000000007  1.0000
  O   O181      1.0  0.12699000000000002  0.10921  0.25331000000000004  1.0000
  H   H27       1.0  0.14893000000000006  0.08326  0.28124  1.0000
  S   S24       1.0  0.83092  0.15357  0.70174  1.0000
  O   O182      1.0  0.77573  0.15101  0.68674  1.0000
  O   O183      1.0  0.82361  0.14948  0.63589  1.0000
  O   O184      1.0  0.8697300000000001  0.11083  0.75219  1.0000
  H   H28       1.0  0.85069  0.08436  0.7239500000000001  1.0000
  S   S25       1.0  0.8090000000000003  0.96233  0.45865000000000006  1.0000
  O   O185      1.0  0.8354700000000003  0.99288  0.5184  1.0000
  O   O186      1.0  0.8074000000000002  0.9833199999999999  0.40215000000000006  1.0000
  O   O187      1.0  0.7450400000000003  0.95057  0.43141000000000007  1.0000
  H   H29       1.0  0.72084  0.95501  0.38104  1.0000
  S   S26       1.0  0.13697000000000006  0.96565  0.45729000000000003  1.0000
  O   O188      1.0  0.08374000000000005  0.97371  0.38738  1.0000
  O   O189      1.0  0.14345000000000013  0.99904  0.5062300000000001  1.0000
  O   O190      1.0  0.18895  0.9698  0.45232  1.0000
  H   H30       1.0  0.2219  0.9597  0.49724000000000007  1.0000
  S   S27       1.0  0.35668  0.46559  0.53402  1.0000
  O   O191      1.0  0.40801  0.47578  0.60448  1.0000
  O   O192      1.0  0.35048  0.49811  0.48390000000000005  1.0000
  O   O193      1.0  0.30255  0.46823  0.53499  1.0000
  H   H31       1.0  0.27057  0.45903  0.48872000000000004  1.0000
  S   S28       1.0  0.6921100000000002  0.46094  0.55367  1.0000
  O   O194      1.0  0.66159  0.49656  0.50105  1.0000
  O   O195      1.0  0.69986  0.47375  0.6179900000000002  1.0000
  O   O196      1.0  0.75343  0.45263  0.57052  1.0000
  H   H32       1.0  0.7810400000000002  0.45498  0.6209000000000001  1.0000
  S   S29       1.0  0.8491500000000002  0.89897  0.60521  1.0000
  O   O197      1.0  0.7890200000000003  0.9094  0.56451  1.0000
  O   O198      1.0  0.86232  0.86048  0.65145  1.0000
  O   O199      1.0  0.88571  0.94305  0.65268  1.0000
  H   H33       1.0  0.9156900000000001  0.93146  0.6986600000000001  1.0000
  S   S30       1.0  0.11041000000000002  0.87079  0.36345  1.0000
  O   O200      1.0  0.15692  0.89592  0.37358  1.0000
  O   O201      1.0  0.11252000000000004  0.82448  0.34423000000000004  1.0000
  O   O202      1.0  0.05041  0.8946  0.29979  1.0000
  H   H34       1.0  0.03238  0.87366  0.26092  1.0000
  S   S31       1.0  0.38474  0.37334  0.63448  1.0000
  O   O203      1.0  0.33249  0.39293999999999996  0.61628  1.0000
  O   O204      1.0  0.39002999999999993  0.32728999999999997  0.66016  1.0000
  O   O205      1.0  0.43839  0.40383  0.6962  1.0000
  H   H35       1.0  0.4580500000000001  0.38566  0.7384900000000001  1.0000
  S   S32       1.0  0.6562700000000002  0.40492  0.40190000000000003  1.0000
  O   O206      1.0  0.71646  0.4154  0.44461  1.0000
  O   O207      1.0  0.64405  0.36813  0.35382  1.0000
  O   O208      1.0  0.61974  0.44987  0.35656  1.0000
  H   H36       1.0  0.59239  0.43983  0.30878  1.0000
  S   S33       1.0  0.9826600000000002  0.88278  0.65601  1.0000
  O   O209      1.0  0.032289999999999965  0.86489  0.66553  1.0000
  O   O210      1.0  0.9931100000000003  0.92972  0.67916  1.0000
  O   O211      1.0  0.97199  0.85294  0.70454  1.0000
  H   H37       1.0  0.007869999999999995  0.8525  0.75101  1.0000
  S   S34       1.0  0.011579999999999998  0.83326  0.38054  1.0000
  O   O212      1.0  0.99424  0.79848  0.40709  1.0000
  O   O213      1.0  0.9663699999999998  0.8667299999999999  0.33879  1.0000
  O   O214      1.0  0.021440000000000015  0.80751  0.32851  1.0000
  H   H38       1.0  0.9881200000000001  0.7894599999999999  0.29767  1.0000
  S   S35       1.0  0.4941800000000001  0.34273  0.62957  1.0000
  O   O215      1.0  0.5133000000000002  0.3043  0.61111  1.0000
  O   O216      1.0  0.5355900000000001  0.37916  0.6592600000000001  1.0000
  O   O217      1.0  0.4892  0.32482  0.69003  1.0000
  H   H39       1.0  0.5258800000000002  0.31252  0.72687  1.0000
  S   S36       1.0  0.51957  0.3875299999999999  0.34258000000000005  1.0000
  O   O218      1.0  0.4715600000000002  0.36517  0.33208  1.0000
  O   O219      1.0  0.5063000000000001  0.4352  0.32321000000000005  1.0000
  O   O220      1.0  0.53182  0.36315  0.29205000000000003  1.0000
  H   H40       1.0  0.5033200000000002  0.37484  0.24538000000000001  1.0000
  N   N49       1.0  0.93159  0.79651  0.53732  1.0000
  O   O221      1.0  0.98493  0.79628  0.57862  1.0000
  O   O222      1.0  0.90625  0.7633  0.4961  1.0000
  N   N50       1.0  0.1101  0.79334  0.54205  1.0000
  O   O223      1.0  0.06825  0.79021  0.54258  1.0000
  O   O224      1.0  0.1523  0.76797  0.58323  1.0000
  N   N51       1.0  0.40628000000000003  0.29325  0.4764000000000001  1.0000
  O   O225      1.0  0.44145  0.29582999999999987  0.4637  1.0000
  O   O226      1.0  0.38871000000000006  0.2547  0.47719000000000006  1.0000
  N   N52       1.0  0.5640800000000002  0.29818  0.44105  1.0000
  O   O227      1.0  0.5292900000000001  0.28701  0.45208000000000004  1.0000
  O   O228      1.0  0.56293  0.27779  0.39393000000000006  1.0000
  S   S37       1.0  0.8976400000000001  0.85362  0.40129  1.0000
  O   O229      1.0  0.8691000000000002  0.88594  0.34265  1.0000
  O   O230      1.0  0.95859  0.85822  0.44248000000000004  1.0000
  O   O231      1.0  0.8761100000000002  0.80233  0.37143  1.0000
  H   H41       1.0  0.89798  0.79289  0.35618  1.0000
  S   S38       1.0  0.15033000000000005  0.87672  0.64405  1.0000
  O   O232      1.0  0.176  0.9197799999999999  0.6792  1.0000
  O   O233      1.0  0.09758999999999998  0.87078  0.63415  1.0000
  O   O234      1.0  0.19389000000000012  0.8353799999999999  0.6927300000000001  1.0000
  H   H42       1.0  0.18969000000000005  0.83092  0.72912  1.0000
  S   S39       1.0  0.35735000000000006  0.3721899999999999  0.3616400000000001  1.0000
  O   O235      1.0  0.3273200000000001  0.41303  0.32114  1.0000
  O   O236      1.0  0.4115  0.36964  0.37424  1.0000
  O   O237      1.0  0.31951  0.32777  0.31766  1.0000
  H   H43       1.0  0.31342  0.32954  0.27330000000000004  1.0000
  S   S40       1.0  0.58986  0.34705  0.58431  1.0000
  O   O238      1.0  0.61907  0.37485999999999997  0.6478  1.0000
  O   O239      1.0  0.5292  0.35566  0.54031  1.0000
  O   O240      1.0  0.60377  0.29357  0.60558  1.0000
  H   H44       1.0  0.61834  0.29175999999999996  0.6541800000000001  1.0000
