data_image0
_chemical_formula_structural       O8C4O8C4O4V4C4H4C4O4N4C44H12C20O4C4H16C3H7C3H7C3H7C3H7
_chemical_formula_sum              "O28 C96 V4 H60 N4"
_cell_length_a       28.05018
_cell_length_b       7.20815
_cell_length_c       17.15448
_cell_angle_alpha    90.00344
_cell_angle_beta     101.08582
_cell_angle_gamma    89.99471

_symmetry_space_group_name_H-M    'P 1'
_symmetry_Int_Tables_number       1

loop_
  _symmetry_equiv_pos_as_xyz
  'x,y,z'

loop_
  _atom_site_type_symbol
  _atom_site_label
  _atom_site_symmetry_multiplicity
  _atom_site_fract_x
  _atom_site_fract_y
  _atom_site_fract_z
  _atom_site_occupancy
  O   O1        1.0  0.0007000000000000055  0.43651  0.85792  1.0000
  O   O2        1.0  0.9993000000000002  0.5634900000000002  0.14208  1.0000
  O   O3        1.0  0.9993000000000002  0.93651  0.64208  1.0000
  O   O4        1.0  0.000700000000000001  0.06349  0.35792  1.0000
  O   O5        1.0  0.9300800000000001  0.76638  0.72189  1.0000
  O   O6        1.0  0.06992  0.23362  0.27811  1.0000
  O   O7        1.0  0.06992000000000004  0.26638  0.7781100000000002  1.0000
  O   O8        1.0  0.9300800000000002  0.7336200000000002  0.22189  1.0000
  C   C1        1.0  0.9105300000000001  0.59771  0.70952  1.0000
  C   C2        1.0  0.08948  0.40244  0.29045  1.0000
  C   C3        1.0  0.08948000000000002  0.09755  0.7904900000000002  1.0000
  C   C4        1.0  0.9105300000000001  0.9023  0.20952  1.0000
  O   O9        1.0  0.99618  0.76623  0.8623100000000002  1.0000
  O   O10       1.0  0.003820000000000001  0.23377000000000006  0.13769  1.0000
  O   O11       1.0  0.0038199999999999853  0.26623  0.63769  1.0000
  O   O12       1.0  0.99618  0.73377  0.36231  1.0000
  O   O13       1.0  0.06587  0.9364600000000002  0.7835  1.0000
  O   O14       1.0  0.93413  0.06354  0.2165  1.0000
  O   O15       1.0  0.93413  0.43646  0.7165  1.0000
  O   O16       1.0  0.06587  0.56354  0.2835  1.0000
  C   C5        1.0  0.99847  0.59651  0.89446  1.0000
  C   C6        1.0  0.0015300000000000034  0.4034900000000001  0.10554000000000001  1.0000
  C   C7        1.0  0.0015300000000000005  0.0965  0.60554  1.0000
  C   C8        1.0  0.99847  0.9035000000000002  0.3944600000000001  1.0000
  O   O17       1.0  0.022789999999999998  0.6030200000000001  0.72398  1.0000
  O   O18       1.0  0.97721  0.39698  0.27602  1.0000
  O   O19       1.0  0.97721  0.10302  0.77602  1.0000
  O   O20       1.0  0.022790000000000008  0.89698  0.22398000000000007  1.0000
  V   V1        1.0  0.9957700000000003  0.8779  0.75483  1.0000
  V   V2        1.0  0.004230000000000006  0.1221  0.24517  1.0000
  V   V3        1.0  0.00423000000000002  0.3779  0.7451700000000001  1.0000
  V   V4        1.0  0.9957700000000003  0.6221000000000001  0.25483000000000006  1.0000
  C   C9        1.0  0.0017100000000000142  0.08259  0.5194900000000001  1.0000
  C   C10       1.0  0.99829  0.91741  0.48051  1.0000
  C   C11       1.0  0.99829  0.58259  0.98052  1.0000
  C   C12       1.0  0.00171  0.41741  0.01948  1.0000
  H   H1        1.0  0.004510000000000001  0.21112  0.48763000000000006  1.0000
  H   H2        1.0  0.9954900000000002  0.78888  0.51237  1.0000
  H   H3        1.0  0.9954900000000002  0.7111300000000002  0.01238  1.0000
  H   H4        1.0  0.004509999999999993  0.2888700000000001  0.98762  1.0000
  C   C13       1.0  0.68322  0.9132300000000001  0.03492  1.0000
  C   C14       1.0  0.3156600000000001  0.04534  0.96696  1.0000
  C   C15       1.0  0.31567000000000006  0.45398  0.4667300000000001  1.0000
  C   C16       1.0  0.68322  0.5869300000000002  0.53482  1.0000
  O   O21       1.0  0.71307  0.87609  0.98383  1.0000
  O   O22       1.0  0.28502  0.05281  0.01871  1.0000
  O   O23       1.0  0.28503  0.44582  0.51846  1.0000
  O   O24       1.0  0.71308  0.6239700000000001  0.48373  1.0000
  N   N1        1.0  0.7022400000000002  0.9397400000000002  0.11341  1.0000
  N   N2        1.0  0.29753  0.05208  0.88739  1.0000
  N   N3        1.0  0.29753  0.44796  0.38715000000000005  1.0000
  N   N4        1.0  0.7022400000000002  0.56044  0.61332  1.0000
  C   C17       1.0  0.6731  0.9778  0.16696  1.0000
  C   C18       1.0  0.32739  0.04458  0.83303  1.0000
  C   C19       1.0  0.32739  0.4563200000000001  0.3327900000000001  1.0000
  C   C20       1.0  0.6730900000000001  0.52243  0.66686  1.0000
  C   C21       1.0  0.7780900000000002  0.7579  0.14588  1.0000
  C   C22       1.0  0.22279  0.23736  0.84704  1.0000
  C   C23       1.0  0.2176500000000001  0.5974000000000003  0.3469  1.0000
  C   C24       1.0  0.77815  0.74213  0.6451200000000001  1.0000
  C   C25       1.0  0.8287100000000002  0.74861  0.16891000000000006  1.0000
  C   C26       1.0  0.17215000000000003  0.24884000000000006  0.8240200000000002  1.0000
  C   C27       1.0  0.16709  0.58652  0.32401  1.0000
  C   C28       1.0  0.82877  0.7513700000000001  0.66817  1.0000
  C   C29       1.0  0.8322500000000003  0.08368000000000002  0.17989  1.0000
  C   C30       1.0  0.16691  0.9134700000000002  0.82746  1.0000
  C   C31       1.0  0.17197000000000004  0.25087  0.32707  1.0000
  C   C32       1.0  0.83221  0.4165600000000001  0.68057  1.0000
  C   C33       1.0  0.78161  0.09242  0.15721  1.0000
  C   C34       1.0  0.21745  0.90255  0.8504500000000003  1.0000
  C   C35       1.0  0.22261  0.2623  0.35011  1.0000
  C   C36       1.0  0.7815700000000001  0.40787  0.65788  1.0000
  C   C37       1.0  0.7542500000000003  0.9297700000000002  0.13980000000000006  1.0000
  C   C38       1.0  0.24565  0.06419  0.86055  1.0000
  C   C39       1.0  0.24566000000000002  0.4356000000000001  0.36029  1.0000
  C   C40       1.0  0.7542500000000002  0.57041  0.63973  1.0000
  C   C41       1.0  0.6016500000000001  0.9652  0.06006999999999999  1.0000
  C   C42       1.0  0.39793  0.02227  0.94124  1.0000
  C   C43       1.0  0.39793  0.47784  0.44104  1.0000
  C   C44       1.0  0.6016400000000002  0.53502  0.55995  1.0000
  C   C45       1.0  0.6330100000000002  0.9261900000000002  0.00684  1.0000
  C   C46       1.0  0.3658300000000001  0.03127  0.9953000000000001  1.0000
  C   C47       1.0  0.3658300000000001  0.46828  0.4950800000000001  1.0000
  C   C48       1.0  0.6330100000000002  0.5740400000000002  0.50674  1.0000
  C   C49       1.0  0.61384  0.9004  0.9262  1.0000
  C   C50       1.0  0.38419  0.024440000000000007  0.07696  1.0000
  C   C51       1.0  0.3841800000000001  0.4748200000000001  0.57675  1.0000
  C   C52       1.0  0.6138600000000002  0.59989  0.4261  1.0000
  C   C53       1.0  0.62145  0.99048  0.1422  1.0000
  C   C54       1.0  0.37888  0.026760000000000006  0.8580900000000002  1.0000
  C   C55       1.0  0.37889  0.47385  0.3578800000000001  1.0000
  C   C56       1.0  0.62144  0.50972  0.64208  1.0000
  C   C57       1.0  0.85658  0.9115600000000003  0.18589  1.0000
  C   C58       1.0  0.14343000000000006  0.08687000000000003  0.8141900000000002  1.0000
  C   C59       1.0  0.14343000000000006  0.4130300000000001  0.3140300000000001  1.0000
  C   C60       1.0  0.85659  0.5885100000000002  0.68587  1.0000
  H   H5        1.0  0.85224  0.21212  0.1926  1.0000
  H   H6        1.0  0.14630000000000004  0.7855300000000002  0.8205200000000002  1.0000
  H   H7        1.0  0.15526000000000006  0.11495  0.3201  1.0000
  H   H8        1.0  0.85217  0.28821  0.69388  1.0000
  H   H9        1.0  0.7636400000000002  0.22606000000000007  0.15236  1.0000
  H   H10       1.0  0.23473000000000002  0.76813  0.8610500000000002  1.0000
  H   H11       1.0  0.24392  0.13635  0.3607  1.0000
  H   H12       1.0  0.7635700000000002  0.27433  0.65358  1.0000
  H   H13       1.0  0.63716  0.8675400000000002  0.88458  1.0000
  H   H14       1.0  0.3601600000000001  0.026460000000000004  0.11941  1.0000
  H   H15       1.0  0.36014  0.47246  0.61919  1.0000
  H   H16       1.0  0.6371800000000002  0.63275  0.38449  1.0000
  C   C61       1.0  0.48114000000000007  0.98955  0.91765  1.0000
  C   C62       1.0  0.51871  0.01048  0.08344  1.0000
  C   C63       1.0  0.5187  0.48958  0.58329  1.0000
  C   C64       1.0  0.48115  0.51085  0.4175  1.0000
  C   C65       1.0  0.46744000000000013  0.012100000000000001  0.05432  1.0000
  C   C66       1.0  0.53177  0.96175  0.94757  1.0000
  C   C67       1.0  0.53177  0.53859  0.44744  1.0000
  C   C68       1.0  0.4674300000000001  0.48781  0.55415  1.0000
  C   C69       1.0  0.44894999999999996  0.007810000000000002  0.97103  1.0000
  C   C70       1.0  0.55059  0.97891  0.030430000000000002  1.0000
  C   C71       1.0  0.55058  0.52131  0.5303000000000002  1.0000
  C   C72       1.0  0.44894  0.49233  0.47086000000000006  1.0000
  C   C73       1.0  0.46202  0.00187  0.8356000000000002  1.0000
  C   C74       1.0  0.53893  0.042170000000000006  0.16412  1.0000
  C   C75       1.0  0.53892  0.45789  0.66397  1.0000
  C   C76       1.0  0.46203  0.49875  0.33543  1.0000
  C   C77       1.0  0.4119100000000001  0.01482  0.80417  1.0000
  C   C78       1.0  0.5891  0.02939  0.19532  1.0000
  C   C79       1.0  0.58909  0.47078  0.69518  1.0000
  C   C80       1.0  0.41192000000000006  0.4858500000000001  0.30398000000000003  1.0000
  O   O25       1.0  0.30682  0.055320000000000015  0.7554900000000002  1.0000
  O   O26       1.0  0.69456  0.002860000000000001  0.24345  1.0000
  O   O27       1.0  0.6945400000000002  0.49748  0.7433700000000002  1.0000
  O   O28       1.0  0.30680000000000013  0.44656  0.2552300000000001  1.0000
  C   C81       1.0  0.56438  0.91536  0.89726  1.0000
  C   C82       1.0  0.43377000000000004  0.014810000000000004  0.10594  1.0000
  C   C83       1.0  0.43375000000000014  0.4846900000000001  0.60574  1.0000
  C   C84       1.0  0.5643900000000002  0.58501  0.3971500000000001  1.0000
  H   H17       1.0  0.15559  0.38469  0.81441  1.0000
  H   H18       1.0  0.84596  0.61364  0.17272  1.0000
  H   H19       1.0  0.84605  0.8862000000000002  0.67141  1.0000
  H   H20       1.0  0.14663  0.7146  0.31445  1.0000
  H   H21       1.0  0.24425000000000002  0.36323  0.85506  1.0000
  H   H22       1.0  0.7573600000000003  0.6313  0.13238  1.0000
  H   H23       1.0  0.7574500000000002  0.86865  0.63105  1.0000
  H   H24       1.0  0.23507000000000006  0.73196  0.35491  1.0000
  H   H25       1.0  0.48653000000000013  0.008  0.79502  1.0000
  H   H26       1.0  0.51557  0.08442  0.20331  1.0000
  H   H27       1.0  0.51557  0.41558  0.7031500000000003  1.0000
  H   H28       1.0  0.4865400000000001  0.49275000000000013  0.29486  1.0000
  H   H29       1.0  0.55285  0.88535  0.83496  1.0000
  H   H30       1.0  0.44432  0.00377  0.16955  1.0000
  H   H31       1.0  0.44428  0.49553  0.6693600000000001  1.0000
  H   H32       1.0  0.5528800000000001  0.6151  0.33486000000000005  1.0000
  C   C85       1.0  0.3941000000000001  0.01269  0.71372  1.0000
  C   C86       1.0  0.43266000000000004  0.9847500000000002  0.66166  1.0000
  C   C87       1.0  0.4093900000000001  0.97047  0.57372  1.0000
  H   H33       1.0  0.3827600000000001  0.85526  0.56357  1.0000
  H   H34       1.0  0.3902400000000001  0.10069000000000003  0.55277  1.0000
  H   H35       1.0  0.43791  0.9444400000000002  0.53821  1.0000
  H   H36       1.0  0.4582700000000001  0.10395  0.66915  1.0000
  H   H37       1.0  0.4532500000000001  0.85472  0.6791400000000002  1.0000
  H   H38       1.0  0.3678700000000001  0.8963400000000002  0.6994200000000003  1.0000
  H   H39       1.0  0.3754400000000002  0.14631  0.69571  1.0000
  C   C88       1.0  0.6077  0.05633  0.28475  1.0000
  C   C89       1.0  0.56956  0.08947  0.33706  1.0000
  C   C90       1.0  0.59337  0.10336  0.42477  1.0000
  H   H40       1.0  0.61124  0.97101  0.44616  1.0000
  H   H41       1.0  0.6212  0.21441  0.43394  1.0000
  H   H42       1.0  0.56537  0.13513  0.46061  1.0000
  H   H43       1.0  0.54997  0.22143  0.31948  1.0000
  H   H44       1.0  0.54308  0.97314  0.33004  1.0000
  H   H45       1.0  0.6279800000000001  0.92926  0.30792  1.0000
  H   H46       1.0  0.63262  0.17766  0.2931  1.0000
  C   C91       1.0  0.6076700000000002  0.4439  0.7846200000000002  1.0000
  C   C92       1.0  0.5695400000000002  0.41074  0.83692  1.0000
  C   C93       1.0  0.59334  0.39689  0.92464  1.0000
  H   H47       1.0  0.62118  0.28584000000000004  0.93381  1.0000
  H   H48       1.0  0.6112  0.52925  0.9460200000000002  1.0000
  H   H49       1.0  0.5653400000000001  0.36515  0.9604700000000002  1.0000
  H   H50       1.0  0.54304  0.52706  0.82989  1.0000
  H   H51       1.0  0.5499600000000001  0.27876  0.81934  1.0000
  H   H52       1.0  0.63262  0.32261  0.79299  1.0000
  H   H53       1.0  0.62794  0.5710100000000002  0.80779  1.0000
  C   C94       1.0  0.39413  0.48784  0.21353  1.0000
  C   C95       1.0  0.43273  0.51492  0.16146000000000002  1.0000
  C   C96       1.0  0.4094800000000001  0.52873  0.07349  1.0000
  H   H54       1.0  0.3902400000000001  0.3986  0.05271  1.0000
  H   H55       1.0  0.38295  0.64423  0.06317  1.0000
  H   H56       1.0  0.43804  0.554  0.03797  1.0000
  H   H57       1.0  0.45338  0.6448700000000003  0.17879  1.0000
  H   H58       1.0  0.4582700000000001  0.3955  0.16913  1.0000
  H   H59       1.0  0.3753600000000001  0.3544000000000001  0.19557000000000005  1.0000
  H   H60       1.0  0.3680000000000001  0.6045  0.19914000000000004  1.0000
