data_image0
_chemical_formula_structural       O16H8C8H16O4V4H8C72F8
_chemical_formula_sum              "O20 H32 C80 V4 F8"
_cell_length_a       7.22244
_cell_length_b       12.099359999999999
_cell_length_c       29.219339999999995
_cell_angle_alpha    89.96928999999999
_cell_angle_beta     90.00488
_cell_angle_gamma    89.99987

_symmetry_space_group_name_H-M    'P 1'
_symmetry_Int_Tables_number       1

loop_
  _symmetry_equiv_pos_as_xyz
  'x,y,z'

loop_
  _atom_site_type_symbol
  _atom_site_label
  _atom_site_symmetry_multiplicity
  _atom_site_fract_x
  _atom_site_fract_y
  _atom_site_fract_z
  _atom_site_occupancy
  O   O1        1.0  0.64717  0.84918  0.20121999999999995  1.0000
  O   O2        1.0  0.35283  0.15082  0.7987799999999998  1.0000
  O   O3        1.0  0.35283  0.15082  0.70122  1.0000
  O   O4        1.0  0.64717  0.84918  0.29878  1.0000
  O   O5        1.0  0.14716999999999994  0.65082  0.29878  1.0000
  O   O6        1.0  0.8528299999999998  0.34918  0.70122  1.0000
  O   O7        1.0  0.8528299999999998  0.34918  0.7987799999999998  1.0000
  O   O8        1.0  0.14716999999999994  0.65082  0.20121999999999995  1.0000
  O   O9        1.0  0.3174299999999999  0.86221  0.29844999999999994  1.0000
  O   O10       1.0  0.6825699999999999  0.13779  0.70155  1.0000
  O   O11       1.0  0.6825699999999999  0.13779  0.79845  1.0000
  O   O12       1.0  0.3174299999999999  0.86221  0.20154999999999995  1.0000
  O   O13       1.0  0.8174299999999998  0.63779  0.20154999999999995  1.0000
  O   O14       1.0  0.18257  0.36221  0.79845  1.0000
  O   O15       1.0  0.18257  0.36221  0.70155  1.0000
  O   O16       1.0  0.8174299999999998  0.63779  0.29844999999999994  1.0000
  H   H1        1.0  0.009489999999999997  0.22431  0.45423999999999987  1.0000
  H   H2        1.0  0.99051  0.7756900000000001  0.54576  1.0000
  H   H3        1.0  0.9294199999999998  0.77229  0.95388  1.0000
  H   H4        1.0  0.07055999999999997  0.22771000000000002  0.04612  1.0000
  H   H5        1.0  0.50832  0.27573  0.04575999999999999  1.0000
  H   H6        1.0  0.49146  0.72431  0.9542499999999998  1.0000
  H   H7        1.0  0.4288299999999999  0.72776  0.54611  1.0000
  H   H8        1.0  0.57116  0.27224  0.4538899999999999  1.0000
  C   C1        1.0  0.4857399999999999  0.8877  0.3133199999999999  1.0000
  C   C2        1.0  0.51426  0.1123  0.6866799999999998  1.0000
  C   C3        1.0  0.51444  0.11229  0.8133599999999999  1.0000
  C   C4        1.0  0.4855599999999999  0.88771  0.18665  1.0000
  C   C5        1.0  0.9857299999999998  0.6123  0.18668  1.0000
  C   C6        1.0  0.01427  0.38769999999999993  0.8133199999999998  1.0000
  C   C7        1.0  0.01443  0.38771  0.6866499999999999  1.0000
  C   C8        1.0  0.98557  0.61229  0.3133499999999999  1.0000
  H   H9        1.0  0.048899999999999985  0.60902  0.69022  1.0000
  H   H10       1.0  0.9511  0.39098  0.30978  1.0000
  H   H11       1.0  0.9934099999999998  0.39011  0.19068  1.0000
  H   H12       1.0  0.00659  0.60989  0.8093199999999998  1.0000
  H   H13       1.0  0.54966  0.8910300000000001  0.8097999999999999  1.0000
  H   H14       1.0  0.45032999999999995  0.10897  0.19021  1.0000
  H   H15       1.0  0.4937799999999999  0.1099  0.3093199999999999  1.0000
  H   H16       1.0  0.50621  0.89011  0.6906799999999997  1.0000
  H   H17       1.0  0.9621199999999998  0.26116  0.3739699999999999  1.0000
  H   H18       1.0  0.03788  0.73884  0.62604  1.0000
  H   H19       1.0  0.97658  0.7385299999999999  0.87346  1.0000
  H   H20       1.0  0.02341  0.26147  0.12654  1.0000
  H   H21       1.0  0.4609899999999999  0.23879999999999998  0.12603  1.0000
  H   H22       1.0  0.53891  0.76121  0.8739799999999999  1.0000
  H   H23       1.0  0.47603  0.76149  0.62654  1.0000
  H   H24       1.0  0.52396  0.23852  0.37346  1.0000
  O   O17       1.0  0.48063  0.68063  0.24999999999999994  1.0000
  O   O18       1.0  0.5193699999999998  0.31937  0.7499999999999998  1.0000
  O   O19       1.0  0.9806299999999998  0.81937  0.24999999999999994  1.0000
  O   O20       1.0  0.01937  0.18063  0.7499999999999998  1.0000
  V   V1        1.0  0.2058  0.76286  0.24999999999999994  1.0000
  V   V2        1.0  0.7942  0.23713999999999996  0.7499999999999998  1.0000
  V   V3        1.0  0.7058  0.73714  0.24999999999999994  1.0000
  V   V4        1.0  0.2941999999999999  0.26286  0.7499999999999998  1.0000
  H   H25       1.0  0.04888  0.2833  0.5307  1.0000
  H   H26       1.0  0.95113  0.7167  0.46929999999999994  1.0000
  H   H27       1.0  0.9044399999999999  0.71121  0.030449999999999994  1.0000
  H   H28       1.0  0.09554999999999997  0.28879  0.9695499999999998  1.0000
  H   H29       1.0  0.54797  0.21678  0.9693  1.0000
  H   H30       1.0  0.4517899999999999  0.78327  0.03071  1.0000
  H   H31       1.0  0.404  0.78887  0.46954  1.0000
  H   H32       1.0  0.59598  0.21114  0.5304599999999998  1.0000
  C   C9        1.0  0.99119  0.53521  0.35195  1.0000
  C   C10       1.0  0.00881  0.46479  0.64805  1.0000
  C   C11       1.0  0.00682  0.46443  0.85195  1.0000
  C   C12       1.0  0.9931799999999997  0.53557  0.14805  1.0000
  C   C13       1.0  0.49111999999999995  0.9648000000000001  0.14805  1.0000
  C   C14       1.0  0.50887  0.03521  0.85195  1.0000
  C   C15       1.0  0.50677  0.03557  0.64805  1.0000
  C   C16       1.0  0.4932299999999999  0.96443  0.35195  1.0000
  C   C17       1.0  0.9726199999999998  0.3489999999999999  0.38082999999999995  1.0000
  C   C18       1.0  0.027389999999999994  0.651  0.6191699999999998  1.0000
  C   C19       1.0  0.9872899999999999  0.65077  0.8804999999999997  1.0000
  C   C20       1.0  0.012699999999999996  0.34923  0.1195  1.0000
  C   C21       1.0  0.4718599999999999  0.15099  0.11916999999999997  1.0000
  C   C22       1.0  0.52807  0.84903  0.88084  1.0000
  C   C23       1.0  0.48692  0.84924  0.6194999999999999  1.0000
  C   C24       1.0  0.5130799999999999  0.15076  0.3804999999999999  1.0000
  C   C25       1.0  0.9679299999999997  0.42238000000000003  0.34426  1.0000
  C   C26       1.0  0.03208  0.57762  0.6557399999999998  1.0000
  C   C27       1.0  0.0031399999999999987  0.57794  0.8439599999999998  1.0000
  C   C28       1.0  0.99686  0.42206  0.15604  1.0000
  C   C29       1.0  0.46737  0.07759  0.15573999999999993  1.0000
  C   C30       1.0  0.5325999999999999  0.9224199999999999  0.84427  1.0000
  C   C31       1.0  0.50286  0.9220600000000001  0.6560399999999997  1.0000
  C   C32       1.0  0.49712999999999996  0.07794  0.34396  1.0000
  C   C33       1.0  0.01184  0.57584  0.3966099999999999  1.0000
  C   C34       1.0  0.9881599999999998  0.42416  0.60339  1.0000
  C   C35       1.0  0.0012499999999999996  0.42303  0.8967799999999998  1.0000
  C   C36       1.0  0.99875  0.57696  0.10322  1.0000
  C   C37       1.0  0.51202  0.9242000000000001  0.10338999999999997  1.0000
  C   C38       1.0  0.48795  0.07582  0.8966099999999999  1.0000
  C   C39       1.0  0.50133  0.07697  0.6032199999999998  1.0000
  C   C40       1.0  0.49867  0.9230399999999999  0.39678  1.0000
  C   C41       1.0  0.99813  0.50349  0.4349999999999999  1.0000
  C   C42       1.0  0.0018699999999999995  0.49651  0.5649999999999998  1.0000
  C   C43       1.0  0.0012299999999999995  0.49623000000000006  0.9349999999999998  1.0000
  C   C44       1.0  0.9987599999999998  0.50377  0.06499  1.0000
  C   C45       1.0  0.49805  0.99653  0.06499999999999997  1.0000
  C   C46       1.0  0.50185  0.003500000000000001  0.9349999999999998  1.0000
  C   C47       1.0  0.5012  0.00377  0.5649999999999998  1.0000
  C   C48       1.0  0.4987899999999999  0.99623  0.4349999999999999  1.0000
  C   C49       1.0  0.98972  0.38821  0.42581  1.0000
  C   C50       1.0  0.010289999999999997  0.61179  0.57419  1.0000
  C   C51       1.0  0.9834499999999998  0.61108  0.9256199999999998  1.0000
  C   C52       1.0  0.01654  0.38892  0.07437999999999997  1.0000
  C   C53       1.0  0.4891799999999999  0.11179  0.07419  1.0000
  C   C54       1.0  0.5107099999999999  0.88823  0.9258199999999998  1.0000
  C   C55       1.0  0.48317999999999994  0.88894  0.57437  1.0000
  C   C56       1.0  0.51681  0.11106  0.42562  1.0000
  C   C57       1.0  0.9958899999999998  0.53987  0.48182999999999987  1.0000
  C   C58       1.0  0.00412  0.46013  0.51817  1.0000
  C   C59       1.0  0.012569999999999996  0.46069000000000004  0.9818799999999998  1.0000
  C   C60       1.0  0.9874199999999997  0.53931  0.01812  1.0000
  C   C61       1.0  0.49596  0.96015  0.01816999999999999  1.0000
  C   C62       1.0  0.50391  0.03989  0.98183  1.0000
  C   C63       1.0  0.51265  0.0393  0.51812  1.0000
  C   C64       1.0  0.4873499999999999  0.9607  0.4818799999999999  1.0000
  C   C65       1.0  0.019969999999999995  0.34737  0.5062999999999998  1.0000
  C   C66       1.0  0.9800299999999997  0.65263  0.4936999999999999  1.0000
  C   C67       1.0  0.94707  0.64982  0.006109999999999999  1.0000
  C   C68       1.0  0.05291  0.35018000000000005  0.9938899999999998  1.0000
  C   C69       1.0  0.51932  0.15267  0.9937099999999998  1.0000
  C   C70       1.0  0.4805  0.84737  0.0063  1.0000
  C   C71       1.0  0.44675999999999993  0.85022  0.49389  1.0000
  C   C72       1.0  0.55323  0.14979  0.5061099999999998  1.0000
  C   C73       1.0  0.004549999999999999  0.31224  0.4613599999999999  1.0000
  C   C74       1.0  0.9954599999999998  0.68776  0.53865  1.0000
  C   C75       1.0  0.9540499999999997  0.6855799999999999  0.9611099999999998  1.0000
  C   C76       1.0  0.04593  0.31442  0.03889  1.0000
  C   C77       1.0  0.50374  0.18779  0.03864999999999998  1.0000
  C   C78       1.0  0.49609  0.81225  0.9613599999999998  1.0000
  C   C79       1.0  0.45365  0.81446  0.5388899999999998  1.0000
  C   C80       1.0  0.5463399999999999  0.18555  0.46111  1.0000
  F   F1        1.0  0.9433699999999999  0.3158  0.5991299999999998  1.0000
  F   F2        1.0  0.05663  0.6842  0.40087  1.0000
  F   F3        1.0  0.01923  0.68784  0.0986  1.0000
  F   F4        1.0  0.98078  0.31216  0.9013999999999998  1.0000
  F   F5        1.0  0.44274999999999987  0.18413000000000002  0.90085  1.0000
  F   F6        1.0  0.5572599999999998  0.8159000000000001  0.09914  1.0000
  F   F7        1.0  0.51894  0.81215  0.4014  1.0000
  F   F8        1.0  0.4810599999999999  0.18785  0.5985999999999998  1.0000
