data_image0
_chemical_formula_structural       O3CO2CO2VOCOCVOCH3C13H3C2H2C2H2C2H2C2H2CH3C13H5O3CO2CO2VOCOCVONO3CH3
_chemical_formula_sum              "O23 C45 V4 H25 N1"
_cell_length_a       6.94479
_cell_length_b       13.62943
_cell_length_c       20.40188
_cell_angle_alpha    102.12028
_cell_angle_beta     90.21527999999999
_cell_angle_gamma    90.46125000000002

_space_group_name_H-M_alt    "P 1"
_space_group_IT_number       1

loop_
  _space_group_symop_operation_xyz
  'x, y, z'

loop_
  _atom_site_type_symbol
  _atom_site_label
  _atom_site_symmetry_multiplicity
  _atom_site_fract_x
  _atom_site_fract_y
  _atom_site_fract_z
  _atom_site_occupancy
  O   O1        1.0  0.50686  0.59939  0.44924  1.0000
  O   O2        1.0  0.18022  0.5946  0.58678  1.0000
  O   O3        1.0  0.004500000000000001  0.40061  0.55076  1.0000
  C   C1        1.0  0.34918000000000005  0.61598  0.6135  1.0000
  O   O4        1.0  0.17748999999999998  0.61129  0.45197  1.0000
  O   O5        1.0  0.0017499999999999985  0.4174199999999999  0.41499  1.0000
  C   C2        1.0  0.34643  0.63796  0.43524  1.0000
  O   O6        1.0  0.50961  0.58258  0.58501  1.0000
  O   O7        1.0  0.33742000000000005  0.43637  0.48802  1.0000
  V   V1        1.0  0.06468  0.5118  0.50222  1.0000
  O   O8        1.0  0.6717100000000003  0.4054  0.41322  1.0000
  C   C3        1.0  0.8396400000000002  0.38409  0.38652  1.0000
  O   O9        1.0  0.67444  0.38871  0.54803  1.0000
  C   C4        1.0  0.8434000000000003  0.3620699999999999  0.56488  1.0000
  V   V2        1.0  0.56401  0.4881999999999999  0.49777999999999994  1.0000
  O   O10       1.0  0.84114  0.5636299999999997  0.51198  1.0000
  C   C5        1.0  0.9442900000000002  0.11835  0.61542  1.0000
  H   H1        1.0  0.9425500000000002  0.16806  0.52239  1.0000
  H   H2        1.0  0.98059  0.9960199999999999  0.69961  1.0000
  H   H3        1.0  0.9860800000000002  0.04289999999999997  0.59149  1.0000
  C   C6        1.0  0.85587  0.28522999999999993  0.6051  1.0000
  C   C7        1.0  0.8265900000000003  0.31802  0.9308099999999999  1.0000
  C   C8        1.0  0.82359  0.39390999999999987  0.89444  1.0000
  C   C9        1.0  0.85269  0.3737499999999999  0.82527  1.0000
  C   C10       1.0  0.86601  0.27261  0.78859  1.0000
  C   C11       1.0  0.8820400000000003  0.1954  0.82607  1.0000
  C   C12       1.0  0.8719100000000002  0.24514999999999995  0.71668  1.0000
  C   C13       1.0  0.92114  0.14527  0.68523  1.0000
  C   C14       1.0  0.9456700000000002  0.07259999999999998  0.72338  1.0000
  C   C15       1.0  0.92118  0.09637999999999998  0.79225  1.0000
  C   C16       1.0  0.8266600000000002  0.31197999999999987  0.67436  1.0000
  C   C17       1.0  0.9173100000000002  0.18884999999999993  0.57587  1.0000
  C   C18       1.0  0.86107  0.21839  0.89691  1.0000
  H   H4        1.0  0.76659  0.3849199999999999  0.69312  1.0000
  H   H5        1.0  0.8080500000000003  0.4712399999999999  0.92065  1.0000
  H   H6        1.0  0.9372200000000002  0.03607999999999999  0.8188899999999999  1.0000
  C   C19       1.0  0.00523  0.2889099999999999  0.28513  1.0000
  C   C20       1.0  0.84197  0.31572999999999996  0.31972  1.0000
  H   H7        1.0  0.14234000000000002  0.31761  0.30723  1.0000
  H   H8        1.0  0.7033400000000001  0.28755  0.2993  1.0000
  C   C21       1.0  0.01387  0.22078  0.21753  1.0000
  C   C22       1.0  0.85882  0.18310999999999997  0.18041  1.0000
  H   H9        1.0  0.15678  0.20174999999999996  0.19765  1.0000
  H   H10       1.0  0.71465  0.20138999999999999  0.1987  1.0000
  C   C23       1.0  0.20434  0.79081  0.78216  1.0000
  C   C24       1.0  0.36328  0.8153999999999998  0.8200499999999998  1.0000
  H   H11       1.0  0.06666  0.8213099999999998  0.80125  1.0000
  H   H12       1.0  0.50173  0.7852  0.80224  1.0000
  C   C25       1.0  0.20297  0.72242  0.71462  1.0000
  C   C26       1.0  0.3612200000000001  0.68415  0.6803  1.0000
  H   H13       1.0  0.061760000000000016  0.70362  0.69222  1.0000
  H   H14       1.0  0.50432  0.70248  0.70064  1.0000
  C   C27       1.0  0.37512  0.8887699999999998  0.38743  1.0000
  H   H15       1.0  0.37087  0.83866  0.48033  1.0000
  H   H16       1.0  0.38771  0.013969999999999988  0.30422  1.0000
  H   H17       1.0  0.38441999999999993  0.96711  0.41249  1.0000
  C   C28       1.0  0.35576  0.7147399999999998  0.39507  1.0000
  C   C29       1.0  0.34409  0.68434  0.07104  1.0000
  C   C30       1.0  0.3351500000000001  0.6082799999999999  0.1068  1.0000
  C   C31       1.0  0.33952  0.631  0.17665  1.0000
  C   C32       1.0  0.35287000000000013  0.73172  0.21287  1.0000
  C   C33       1.0  0.3613  0.80943  0.17577  1.0000
  C   C34       1.0  0.35797  0.75794  0.2845  1.0000
  C   C35       1.0  0.37048  0.8608899999999998  0.31715  1.0000
  C   C36       1.0  0.37818  0.9354099999999995  0.27962  1.0000
  C   C37       1.0  0.37386000000000014  0.9103099999999997  0.21012  1.0000
  C   C38       1.0  0.3510800000000001  0.68573  0.32514  1.0000
  C   C39       1.0  0.36757  0.8160299999999999  0.42615  1.0000
  C   C40       1.0  0.35704000000000014  0.78456  0.10476999999999999  1.0000
  H   H18       1.0  0.3417800000000001  0.60634  0.30435  1.0000
  H   H19       1.0  0.34077  0.66503  0.01673  1.0000
  H   H20       1.0  0.33194  0.56781  0.20056  1.0000
  H   H21       1.0  0.32475  0.53082  0.08016  1.0000
  H   H22       1.0  0.3803600000000001  0.9711  0.18349  1.0000
  O   O11       1.0  0.20323000000000005  0.9173099999999998  0.91502  1.0000
  O   O12       1.0  0.5355  0.88869  0.04804  1.0000
  O   O13       1.0  0.71108  0.08261  0.085  1.0000
  C   C41       1.0  0.36657  0.86196  0.06474  1.0000
  O   O14       1.0  0.53263  0.90537  0.91323  1.0000
  O   O15       1.0  0.70819  0.09940999999999993  0.94923  1.0000
  C   C42       1.0  0.3642  0.8841199999999998  0.8865500000000001  1.0000
  O   O16       1.0  0.20612000000000003  0.90051  0.050789999999999995  1.0000
  O   O17       1.0  0.3753600000000001  0.06357  0.01199  1.0000
  V   V3        1.0  0.6481700000000002  0.9881999999999997  0.99778  1.0000
  O   O18       1.0  0.03824  0.11139000000000006  0.95194  1.0000
  C   C43       1.0  0.8695  0.13820000000000002  0.93526  1.0000
  O   O19       1.0  0.041120000000000004  0.09471  0.08675  1.0000
  C   C44       1.0  0.87268  0.11545  0.11362  1.0000
  V   V4        1.0  0.14881  0.011929999999999996  0.00218  1.0000
  O   O20       1.0  0.8717500000000002  0.9364299999999999  0.98801  1.0000
  N   N1        1.0  0.8012600000000002  0.3444899999999999  0.0024  1.0000
  O   O21       1.0  0.69265  0.41983  0.028620000000000003  1.0000
  O   O22       1.0  0.90484  0.3027499999999999  0.04209  1.0000
  O   O23       1.0  0.8764900000000001  0.4554499999999999  0.79586  1.0000
  C   C45       1.0  0.07501  0.47763  0.79437  1.0000
  H   H23       1.0  0.15612000000000004  0.41362999999999994  0.76434  1.0000
  H   H24       1.0  0.13634  0.49919999999999987  0.84594  1.0000
  H   H25       1.0  0.09436  0.5424999999999999  0.77002  1.0000
