data_image0
_chemical_formula_structural       C42Cu2H14N4O12CHOCHOSO3HSO3HCHOCHO
_chemical_formula_sum              "C46 Cu2 H20 N4 O22 S2"
_cell_length_a       27.75428
_cell_length_b       8.71532
_cell_length_c       7.43567
_cell_angle_alpha    102.55606
_cell_angle_beta     94.12190000000001
_cell_angle_gamma    92.49574000000001

_space_group_name_H-M_alt    "P 1"
_space_group_IT_number       1

loop_
  _space_group_symop_operation_xyz
  'x, y, z'

loop_
  _atom_site_type_symbol
  _atom_site_label
  _atom_site_symmetry_multiplicity
  _atom_site_fract_x
  _atom_site_fract_y
  _atom_site_fract_z
  _atom_site_occupancy
  C   C1        1.0  0.49745999999999996  0.20044  0.45489  1.0000
  C   C2        1.0  0.50262  0.7995800000000001  0.54511  1.0000
  C   C3        1.0  0.10207  0.48205000000000003  0.51227  1.0000
  C   C4        1.0  0.89805  0.4829  0.47966  1.0000
  C   C5        1.0  0.12483999999999999  0.34285  0.44213  1.0000
  C   C6        1.0  0.87506  0.6256  0.49905  1.0000
  C   C7        1.0  0.09669999999999997  0.20296  0.37063  1.0000
  C   C8        1.0  0.90305  0.76759  0.53284  1.0000
  C   C9        1.0  0.13054  0.62142  0.59103  1.0000
  C   C10       1.0  0.86984  0.34082  0.4558800000000001  1.0000
  C   C11       1.0  0.35498999999999997  0.49612  0.50877  1.0000
  C   C12       1.0  0.64516  0.49746  0.49107000000000006  1.0000
  C   C13       1.0  0.9716799999999999  0.33702000000000004  0.44714  1.0000
  C   C14       1.0  0.02842  0.62611  0.55804  1.0000
  C   C15       1.0  0.9773399999999999  0.62744  0.53297  1.0000
  C   C16       1.0  0.02266  0.33787000000000006  0.44041  1.0000
  C   C17       1.0  0.94921  0.48242000000000007  0.48615  1.0000
  C   C18       1.0  0.05087  0.48197  0.5036  1.0000
  C   C19       1.0  0.94222  0.19583  0.41792  1.0000
  C   C20       1.0  0.05794  0.76386  0.63794  1.0000
  C   C21       1.0  0.89232  0.19823000000000002  0.4254500000000001  1.0000
  C   C22       1.0  0.10804999999999998  0.76076  0.6563  1.0000
  C   C23       1.0  0.40763  0.49925  0.50257  1.0000
  C   C24       1.0  0.5924399999999999  0.49991  0.49736  1.0000
  C   C25       1.0  0.04658  0.19976000000000002  0.3718800000000001  1.0000
  C   C26       1.0  0.95327  0.76901  0.55229  1.0000
  C   C27       1.0  0.48821  0.03551  0.43879  1.0000
  C   C28       1.0  0.51194  0.9645200000000002  0.5611900000000002  1.0000
  C   C29       1.0  0.17546  0.34770000000000006  0.44342  1.0000
  C   C30       1.0  0.82436  0.62269  0.4866100000000001  1.0000
  C   C31       1.0  0.18108999999999997  0.61803  0.60177  1.0000
  C   C32       1.0  0.8196199999999999  0.34526999999999997  0.46549  1.0000
  C   C33       1.0  0.27624  0.55657  0.38771000000000005  1.0000
  C   C34       1.0  0.71507  0.42059  0.32119  1.0000
  C   C35       1.0  0.32643  0.55778  0.38224  1.0000
  C   C36       1.0  0.66502  0.42715  0.32788  1.0000
  C   C37       1.0  0.33326  0.43044999999999994  0.64083  1.0000
  C   C38       1.0  0.6757  0.56289  0.6495500000000001  1.0000
  C   C39       1.0  0.28296  0.42305  0.64655  1.0000
  C   C40       1.0  0.7259599999999999  0.55827  0.64795  1.0000
  C   C41       1.0  0.25408  0.48774  0.51943  1.0000
  C   C42       1.0  0.74611  0.48671000000000003  0.4819200000000001  1.0000
  Cu  Cu1       1.0  0.50538  0.51738  0.68438  1.0000
  Cu  Cu2       1.0  0.49462  0.48262  0.31562  1.0000
  H   H1        1.0  0.35569  0.38195000000000007  0.73777  1.0000
  H   H2        1.0  0.66021  0.61738  0.7759900000000002  1.0000
  H   H3        1.0  0.46235  0.37812  0.94867  1.0000
  H   H4        1.0  0.53765  0.62189  0.05133  1.0000
  H   H5        1.0  0.11335  0.09453000000000002  0.31471000000000005  1.0000
  H   H6        1.0  0.8862  0.87883  0.5499  1.0000
  H   H7        1.0  0.64131  0.37462  0.20591  1.0000
  H   H8        1.0  0.3435499999999999  0.60983  0.28159  1.0000
  H   H9        1.0  0.8712  0.08747000000000002  0.40373000000000003  1.0000
  H   H10       1.0  0.12916  0.86911  0.71922  1.0000
  H   H11       1.0  0.95689  0.08146  0.39517  1.0000
  H   H12       1.0  0.04321  0.87516  0.69334  1.0000
  H   H13       1.0  0.027359999999999995  0.08805  0.31221  1.0000
  H   H14       1.0  0.97242  0.8828700000000002  0.5775300000000001  1.0000
  N   N1        1.0  0.20240000000000005  0.48401000000000005  0.52295  1.0000
  N   N2        1.0  0.79775  0.48439  0.47591  1.0000
  N   N3        1.0  0.48651  0.45643  0.03851000000000001  1.0000
  N   N4        1.0  0.51349  0.54357  0.9614900000000001  1.0000
  O   O1        1.0  0.5035  0.28612000000000004  0.61978  1.0000
  O   O2        1.0  0.4965  0.71388  0.3802200000000001  1.0000
  O   O3        1.0  0.49441  0.25678  0.3083600000000001  1.0000
  O   O4        1.0  0.50559  0.7432200000000002  0.6916400000000003  1.0000
  O   O5        1.0  0.43481  0.5147  0.65569  1.0000
  O   O6        1.0  0.56519  0.48530000000000006  0.34431  1.0000
  O   O7        1.0  0.42572  0.48535  0.34428  1.0000
  O   O8        1.0  0.57428  0.51465  0.6557200000000002  1.0000
  O   O9        1.0  0.19767  0.21754  0.36686000000000013  1.0000
  O   O10       1.0  0.80178  0.75727  0.49015  1.0000
  O   O11       1.0  0.7929000000000002  0.21217000000000005  0.4654100000000001  1.0000
  O   O12       1.0  0.2088  0.74778  0.6884100000000001  1.0000
  C   C43       1.0  0.26278  0.34724  0.7880400000000002  1.0000
  H   H15       1.0  0.28706  0.29887  0.87961  1.0000
  O   O13       1.0  0.2195  0.33807  0.80631  1.0000
  C   C44       1.0  0.75543  0.6281  0.8242  1.0000
  H   H16       1.0  0.7382000000000001  0.69637  0.9394500000000001  1.0000
  O   O14       1.0  0.79849  0.60794  0.8461800000000002  1.0000
  S   S1        1.0  0.73694  0.32511  0.10988  1.0000
  O   O15       1.0  0.78559  0.39675000000000005  0.08574  1.0000
  O   O16       1.0  0.7417  0.15388  0.10956  1.0000
  O   O17       1.0  0.69794  0.33966000000000013  0.9311900000000002  1.0000
  H   H17       1.0  0.67551  0.24467  0.90894  1.0000
  S   S2        1.0  0.24227  0.64553  0.23098  1.0000
  O   O18       1.0  0.19735  0.54428  0.15094  1.0000
  O   O19       1.0  0.22761  0.8031900000000001  0.33167000000000013  1.0000
  O   O20       1.0  0.27527  0.67148  0.05752  1.0000
  H   H18       1.0  0.29407  0.7733300000000001  0.10477  1.0000
  C   C45       1.0  0.44576  0.96264  0.30832  1.0000
  H   H19       1.0  0.43889  0.99969  0.17906  1.0000
  O   O21       1.0  0.41656  0.86939  0.34879  1.0000
  C   C46       1.0  0.5544  0.03739000000000001  0.69167  1.0000
  H   H20       1.0  0.56142  0.99973  0.82047  1.0000
  O   O22       1.0  0.58346  0.13139  0.65172  1.0000
