data_image0
_chemical_formula_structural       C124Cr12H144N4O52
_chemical_formula_sum              "C124 Cr12 H144 N4 O52"
_cell_length_a       19.5888
_cell_length_b       11.29683
_cell_length_c       18.68742
_cell_angle_alpha    90.17669000000001
_cell_angle_beta     89.4039
_cell_angle_gamma    90.05188999999999

_space_group_name_H-M_alt    "P 1"
_space_group_IT_number       1

loop_
  _space_group_symop_operation_xyz
  'x, y, z'

loop_
  _atom_site_type_symbol
  _atom_site_label
  _atom_site_symmetry_multiplicity
  _atom_site_fract_x
  _atom_site_fract_y
  _atom_site_fract_z
  _atom_site_occupancy
  C   C1        1.0  0.27286  0.04199  0.85487  1.0000
  C   C2        1.0  0.69136  0.51494  0.96001  1.0000
  C   C3        1.0  0.22447  0.53966  0.35526  1.0000
  C   C4        1.0  0.47047999999999995  0.82305  0.64648  1.0000
  C   C5        1.0  0.53077  0.82352  0.35439999999999994  1.0000
  C   C6        1.0  0.97048  0.32305  0.64648  1.0000
  C   C7        1.0  0.030770000000000002  0.32352000000000003  0.35439999999999994  1.0000
  C   C8        1.0  0.26087  0.64017  0.64369  1.0000
  C   C9        1.0  0.73731  0.64506  0.35817  1.0000
  C   C10       1.0  0.76087  0.14017  0.64369  1.0000
  C   C11       1.0  0.23731  0.14506  0.35817  1.0000
  C   C12       1.0  0.47206999999999993  0.9115100000000003  0.0395  1.0000
  C   C13       1.0  0.81609  0.03963  0.04502  1.0000
  C   C14       1.0  0.51111  0.9245200000000001  0.96732  1.0000
  C   C15       1.0  0.97207  0.41151  0.0395  1.0000
  C   C16       1.0  0.011109999999999998  0.42452000000000006  0.96732  1.0000
  C   C17       1.0  0.42974  0.80857  0.0078  1.0000
  C   C18       1.0  0.56473  0.8342600000000001  0.9923099999999999  1.0000
  C   C19       1.0  0.92974  0.30857  0.0078  1.0000
  C   C20       1.0  0.06473  0.33426000000000006  0.9923099999999999  1.0000
  C   C21       1.0  0.46933  0.8223100000000001  0.9366199999999999  1.0000
  C   C22       1.0  0.52556  0.8220100000000001  0.06388  1.0000
  C   C23       1.0  0.96933  0.32231  0.9366199999999999  1.0000
  C   C24       1.0  0.19136  0.01494  0.96001  1.0000
  C   C25       1.0  0.02556  0.32201  0.06388  1.0000
  C   C26       1.0  0.3669  0.64854  0.32575  1.0000
  C   C27       1.0  0.61974  0.62762  0.67279  1.0000
  C   C28       1.0  0.8669  0.14854000000000003  0.32575  1.0000
  C   C29       1.0  0.11973999999999999  0.12762  0.67279  1.0000
  C   C30       1.0  0.32342  0.55912  0.9634899999999998  1.0000
  C   C31       1.0  0.68729  0.52268  0.04245  1.0000
  C   C32       1.0  0.8234199999999999  0.05912  0.9634899999999998  1.0000
  C   C33       1.0  0.18729  0.022680000000000002  0.04245  1.0000
  C   C34       1.0  0.18701  0.51293  0.02675  1.0000
  C   C35       1.0  0.82292  0.5299  0.9735699999999999  1.0000
  C   C36       1.0  0.687  0.012930000000000002  0.02675  1.0000
  C   C37       1.0  0.72835  0.04467  0.14663  1.0000
  C   C38       1.0  0.32292  0.0299  0.9735699999999999  1.0000
  C   C39       1.0  0.23573  0.70756  0.056490000000000005  1.0000
  C   C40       1.0  0.75274  0.70349  0.94503  1.0000
  C   C41       1.0  0.73573  0.20756  0.056490000000000005  1.0000
  C   C42       1.0  0.25274  0.2035  0.94503  1.0000
  C   C43       1.0  0.24329  0.57557  0.07097  1.0000
  C   C44       1.0  0.75899  0.5712200000000001  0.9311899999999999  1.0000
  C   C45       1.0  0.74329  0.07557  0.07097  1.0000
  C   C46       1.0  0.25899  0.07122  0.9311899999999999  1.0000
  C   C47       1.0  0.25622  0.61083  0.93254  1.0000
  C   C48       1.0  0.77286  0.54199  0.85487  1.0000
  C   C49       1.0  0.7453  0.60441  0.06971  1.0000
  C   C50       1.0  0.75623  0.11083  0.93254  1.0000
  C   C51       1.0  0.24529999999999996  0.10441  0.06971  1.0000
  C   C52       1.0  0.19989  0.52013  0.94551  1.0000
  C   C53       1.0  0.81384  0.54451  0.05452  1.0000
  C   C54       1.0  0.6999  0.02013  0.94551  1.0000
  C   C55       1.0  0.31384  0.04451  0.05452  1.0000
  C   C56       1.0  0.23609  0.7246700000000003  0.97477  1.0000
  C   C57       1.0  0.74055  0.72044  0.0262  1.0000
  C   C58       1.0  0.73609  0.22468  0.97477  1.0000
  C   C59       1.0  0.22835  0.54467  0.14663  1.0000
  C   C60       1.0  0.24055  0.22044000000000005  0.0262  1.0000
  C   C61       1.0  0.50947  0.70329  0.46121999999999996  1.0000
  C   C62       1.0  0.50069  0.70219  0.54006  1.0000
  C   C63       1.0  0.00947  0.20329000000000005  0.46121999999999996  1.0000
  C   C64       1.0  0.00069  0.20219  0.54006  1.0000
  C   C65       1.0  0.44321  0.8174400000000003  0.8625299999999999  1.0000
  C   C66       1.0  0.55396  0.81753  0.13723  1.0000
  C   C67       1.0  0.94321  0.31744  0.8625299999999999  1.0000
  C   C68       1.0  0.05396  0.31753  0.13723  1.0000
  C   C69       1.0  0.56113  0.9117600000000001  0.47187  1.0000
  C   C70       1.0  0.52228  0.73225  0.96162  1.0000
  C   C71       1.0  0.43231  0.88652  0.529  1.0000
  C   C72       1.0  0.061130000000000004  0.41176  0.47187  1.0000
  C   C73       1.0  0.93231  0.38652  0.529  1.0000
  C   C74       1.0  0.44005  0.88231  0.44647  1.0000
  C   C75       1.0  0.5551  0.8995400000000002  0.55392  1.0000
  C   C76       1.0  0.9400600000000001  0.38231  0.44647  1.0000
  C   C77       1.0  0.05509999999999999  0.39954000000000006  0.55392  1.0000
  C   C78       1.0  0.51038  0.8304000000000001  0.43099  1.0000
  C   C79       1.0  0.49094000000000004  0.82855  0.56978  1.0000
  C   C80       1.0  0.01039  0.3304  0.43099  1.0000
  C   C81       1.0  0.48352000000000006  0.71935  0.03308  1.0000
  C   C82       1.0  0.9909400000000002  0.32855000000000006  0.56978  1.0000
  C   C83       1.0  0.17532  0.6410400000000002  0.46165  1.0000
  C   C84       1.0  0.8171999999999999  0.66107  0.54284  1.0000
  C   C85       1.0  0.67532  0.14104  0.46165  1.0000
  C   C86       1.0  0.3172  0.16107  0.54284  1.0000
  C   C87       1.0  0.17946  0.6483900000000001  0.54166  1.0000
  C   C88       1.0  0.81321  0.66664  0.46289  1.0000
  C   C89       1.0  0.67946  0.14839  0.54166  1.0000
  C   C90       1.0  0.31321  0.16664  0.46289  1.0000
  C   C91       1.0  0.25212  0.45514  0.47326  1.0000
  C   C92       1.0  0.022279999999999994  0.23225  0.96162  1.0000
  C   C93       1.0  0.7604  0.46153  0.5258  1.0000
  C   C94       1.0  0.75212  0.95514  0.47326  1.0000
  C   C95       1.0  0.2604  0.96153  0.5258  1.0000
  C   C96       1.0  0.29757  0.65418  0.43917  1.0000
  C   C97       1.0  0.69324  0.64088  0.56275  1.0000
  C   C98       1.0  0.79757  0.15418  0.43917  1.0000
  C   C99       1.0  0.19324  0.14088  0.56275  1.0000
  C   C100      1.0  0.23717999999999997  0.57117  0.43014  1.0000
  C   C101      1.0  0.76068  0.57684  0.5716  1.0000
  C   C102      1.0  0.73718  0.07117000000000001  0.43014  1.0000
  C   C103      1.0  0.9835200000000001  0.21935000000000002  0.03308  1.0000
  C   C104      1.0  0.26068  0.07684  0.5716  1.0000
  C   C105      1.0  0.25094  0.60572  0.5675399999999999  1.0000
  C   C106      1.0  0.74521  0.61115  0.43446  1.0000
  C   C107      1.0  0.75094  0.10572  0.5675399999999999  1.0000
  C   C108      1.0  0.24521  0.11115  0.43446  1.0000
  C   C109      1.0  0.25437  0.47407000000000005  0.55472  1.0000
  C   C110      1.0  0.75284  0.47929  0.44463  1.0000
  C   C111      1.0  0.75437  0.9740700000000002  0.55472  1.0000
  C   C112      1.0  0.25284  0.97929  0.44463  1.0000
  C   C113      1.0  0.26243  0.64281  0.85518  1.0000
  C   C114      1.0  0.31609  0.53963  0.04502  1.0000
  C   C115      1.0  0.73864  0.63836  0.14647  1.0000
  C   C116      1.0  0.76243  0.14281000000000002  0.85518  1.0000
  C   C117      1.0  0.23864  0.13836  0.14647  1.0000
  C   C118      1.0  0.30807  0.66353  0.5212599999999998  1.0000
  C   C119      1.0  0.68026  0.6449600000000001  0.48081  1.0000
  C   C120      1.0  0.80807  0.16353000000000004  0.5212599999999998  1.0000
  C   C121      1.0  0.18026  0.14496  0.48081  1.0000
  C   C122      1.0  0.27441  0.04267  0.64596  1.0000
  C   C123      1.0  0.72447  0.03966  0.35526  1.0000
  C   C124      1.0  0.77441  0.5426700000000001  0.64596  1.0000
  Cr  Cr1       1.0  0.22962000000000002  0.8360400000000002  0.74911  1.0000
  Cr  Cr2       1.0  0.61398  0.6765900000000001  0.25079  1.0000
  Cr  Cr3       1.0  0.8860199999999999  0.17659000000000005  0.74921  1.0000
  Cr  Cr4       1.0  0.11398  0.17659  0.25079  1.0000
  Cr  Cr5       1.0  0.77038  0.8360400000000002  0.25089  1.0000
  Cr  Cr6       1.0  0.72962  0.33604000000000006  0.74911  1.0000
  Cr  Cr7       1.0  0.27038  0.33604000000000006  0.25089  1.0000
  Cr  Cr8       1.0  0.38763  0.9906800000000002  0.75073  1.0000
  Cr  Cr9       1.0  0.61237  0.9906800000000002  0.24926999999999996  1.0000
  Cr  Cr10      1.0  0.88763  0.4906800000000001  0.75073  1.0000
  Cr  Cr11      1.0  0.11237  0.4906800000000001  0.24926999999999996  1.0000
  Cr  Cr12      1.0  0.38602  0.6765900000000001  0.74921  1.0000
  H   H1        1.0  0.37513  0.7923800000000002  0.0178  1.0000
  H   H2        1.0  0.70937  0.73905  0.9139299999999999  1.0000
  H   H3        1.0  0.22231  0.89793  0.54547  1.0000
  H   H4        1.0  0.30282  0.43986  0.57698  1.0000
  H   H5        1.0  0.70771  0.43038  0.42429  1.0000
  H   H6        1.0  0.80282  0.9398600000000003  0.57698  1.0000
  H   H7        1.0  0.20772  0.9303800000000001  0.42429  1.0000
  H   H8        1.0  0.32891  0.44736000000000004  0.05817  1.0000
  H   H9        1.0  0.68374  0.42492  0.9412199999999998  1.0000
  H   H10       1.0  0.82891  0.9473600000000001  0.05817  1.0000
  H   H11       1.0  0.18374  0.9249200000000002  0.9412199999999998  1.0000
  H   H12       1.0  0.35435  0.59423  0.07361  1.0000
  H   H13       1.0  0.77727  0.25845  0.08229  1.0000
  H   H14       1.0  0.64741  0.5634900000000002  0.9372199999999999  1.0000
  H   H15       1.0  0.85435  0.09423  0.07361  1.0000
  H   H16       1.0  0.14741  0.06349  0.9372199999999999  1.0000
  H   H17       1.0  0.36696  0.61887  0.95211  1.0000
  H   H18       1.0  0.63613  0.55771  0.05798  1.0000
  H   H19       1.0  0.8669599999999998  0.11887  0.95211  1.0000
  H   H20       1.0  0.13613  0.05770000000000001  0.05798  1.0000
  H   H21       1.0  0.33569  0.47334  0.93693  1.0000
  H   H22       1.0  0.69196  0.4343400000000001  0.06674  1.0000
  H   H23       1.0  0.83569  0.97334  0.93693  1.0000
  H   H24       1.0  0.20938  0.23905  0.9139299999999999  1.0000
  H   H25       1.0  0.19196  0.93434  0.06674  1.0000
  H   H26       1.0  0.68288  0.92333  0.04582  1.0000
  H   H27       1.0  0.33598  0.93953  0.9584599999999999  1.0000
  H   H28       1.0  0.18288  0.42333  0.04582  1.0000
  H   H29       1.0  0.83597  0.43953000000000003  0.9584599999999999  1.0000
  H   H30       1.0  0.71576  0.93367  0.9234  1.0000
  H   H31       1.0  0.31615  0.9573  0.0816  1.0000
  H   H32       1.0  0.21576  0.43367000000000006  0.9234  1.0000
  H   H33       1.0  0.81615  0.4573  0.0816  1.0000
  H   H34       1.0  0.38134  0.53599  0.41484  1.0000
  H   H35       1.0  0.27016  0.79709  0.9596  1.0000
  H   H36       1.0  0.37677  0.56925  0.29196  1.0000
  H   H37       1.0  0.41123  0.7083  0.3203  1.0000
  H   H38       1.0  0.32146  0.6955  0.30493  1.0000
  H   H39       1.0  0.6312  0.49182  0.59419  1.0000
  H   H40       1.0  0.5747  0.57849  0.69368  1.0000
  H   H41       1.0  0.60605  0.7224700000000002  0.66911  1.0000
  H   H42       1.0  0.66158  0.6199300000000002  0.71179  1.0000
  H   H43       1.0  0.88135  0.03599  0.41484  1.0000
  H   H44       1.0  0.8767600000000001  0.06925  0.29196  1.0000
  H   H45       1.0  0.9112299999999999  0.2083  0.3203  1.0000
  H   H46       1.0  0.68764  0.74764  0.03513  1.0000
  H   H47       1.0  0.82146  0.1955  0.30493  1.0000
  H   H48       1.0  0.1312  0.9918200000000001  0.59419  1.0000
  H   H49       1.0  0.0747  0.07849  0.69368  1.0000
  H   H50       1.0  0.10605  0.22247  0.66911  1.0000
  H   H51       1.0  0.16158  0.11993  0.71179  1.0000
  H   H52       1.0  0.77016  0.29709  0.9596  1.0000
  H   H53       1.0  0.18764  0.24764000000000003  0.03513  1.0000
  H   H54       1.0  0.18282  0.74591  0.9597800000000001  1.0000
  H   H55       1.0  0.77616  0.78738  0.04651999999999999  1.0000
  H   H56       1.0  0.68282  0.24591  0.9597800000000001  1.0000
  H   H57       1.0  0.61701  0.83815  0.9720399999999999  1.0000
  H   H58       1.0  0.27615  0.28738  0.04651999999999999  1.0000
  H   H59       1.0  0.63624  0.05365000000000001  0.0383  1.0000
  H   H60       1.0  0.36856  0.0828  0.95742  1.0000
  H   H61       1.0  0.13624  0.55365  0.0383  1.0000
  H   H62       1.0  0.86856  0.5828  0.95742  1.0000
  H   H63       1.0  0.15204  0.54623  0.91812  1.0000
  H   H64       1.0  0.85609  0.6001  0.07549  1.0000
  H   H65       1.0  0.65204  0.04623  0.91812  1.0000
  H   H66       1.0  0.35609  0.10010000000000002  0.07549  1.0000
  H   H67       1.0  0.55425  0.65315  0.44621  1.0000
  H   H68       1.0  0.87513  0.29238000000000003  0.0178  1.0000
  H   H69       1.0  0.46012999999999993  0.63898  0.55433  1.0000
  H   H70       1.0  0.05425  0.15315000000000004  0.44621  1.0000
  H   H71       1.0  0.96013  0.13898  0.55433  1.0000
  H   H72       1.0  0.46881  0.65171  0.43700999999999995  1.0000
  H   H73       1.0  0.54533  0.66527  0.5628099999999999  1.0000
  H   H74       1.0  0.96881  0.15171  0.43700999999999995  1.0000
  H   H75       1.0  0.04533  0.16527000000000003  0.5628099999999999  1.0000
  H   H76       1.0  0.61351  0.9008300000000002  0.45264999999999994  1.0000
  H   H77       1.0  0.39113  0.8316300000000001  0.54559  1.0000
  H   H78       1.0  0.11351  0.4008300000000001  0.45264999999999994  1.0000
  H   H79       1.0  0.11701  0.33815  0.9720399999999999  1.0000
  H   H80       1.0  0.8911299999999999  0.33163  0.54559  1.0000
  H   H81       1.0  0.60077  0.85536  0.57546  1.0000
  H   H82       1.0  0.39919  0.8283000000000001  0.42275  1.0000
  H   H83       1.0  0.10078  0.35536  0.57546  1.0000
  H   H84       1.0  0.89919  0.32830000000000004  0.42275  1.0000
  H   H85       1.0  0.45347999999999994  0.9858  0.07315  1.0000
  H   H86       1.0  0.52227  0.00982  0.94027  1.0000
  H   H87       1.0  0.95348  0.4858000000000001  0.07315  1.0000
  H   H88       1.0  0.022269999999999998  0.50982  0.94027  1.0000
  H   H89       1.0  0.4357599999999999  0.9723300000000001  0.42335  1.0000
  H   H90       1.0  0.18657  0.7403100000000002  0.07923  1.0000
  H   H91       1.0  0.54973  0.9876700000000002  0.57968  1.0000
  H   H92       1.0  0.93576  0.47233  0.42335  1.0000
  H   H93       1.0  0.049729999999999996  0.4876700000000001  0.57968  1.0000
  H   H94       1.0  0.42562999999999995  0.97855  0.54705  1.0000
  H   H95       1.0  0.54475  0.0029  0.45947  1.0000
  H   H96       1.0  0.92563  0.4785500000000001  0.54705  1.0000
  H   H97       1.0  0.04475  0.5029000000000001  0.45947  1.0000
  H   H98       1.0  0.12645  0.6055200000000001  0.44648999999999994  1.0000
  H   H99       1.0  0.86964  0.63493  0.55663  1.0000
  H   H100      1.0  0.62645  0.10552  0.44648999999999994  1.0000
  H   H101      1.0  0.79977  0.75137  0.9277999999999998  1.0000
  H   H102      1.0  0.36964  0.13493  0.55663  1.0000
  H   H103      1.0  0.17359  0.73203  0.43910999999999994  1.0000
  H   H104      1.0  0.81127  0.7499100000000001  0.56668  1.0000
  H   H105      1.0  0.67359  0.23203  0.43910999999999994  1.0000
  H   H106      1.0  0.31127  0.24991  0.56668  1.0000
  H   H107      1.0  0.16636  0.7401300000000001  0.557  1.0000
  H   H108      1.0  0.8225099999999999  0.7568000000000001  0.44595999999999997  1.0000
  H   H109      1.0  0.66636  0.24013000000000004  0.557  1.0000
  H   H110      1.0  0.32251  0.25680000000000003  0.44594999999999996  1.0000
  H   H111      1.0  0.13938  0.59374  0.56683  1.0000
  H   H112      1.0  0.68657  0.24032000000000003  0.07923  1.0000
  H   H113      1.0  0.85749  0.61838  0.43936  1.0000
  H   H114      1.0  0.63938  0.09374  0.56683  1.0000
  H   H115      1.0  0.35749  0.11838000000000003  0.43936  1.0000
  H   H116      1.0  0.71898  0.8818000000000003  0.45880999999999994  1.0000
  H   H117      1.0  0.31024  0.9300200000000002  0.53291  1.0000
  H   H118      1.0  0.21897999999999998  0.3818  0.45880999999999994  1.0000
  H   H119      1.0  0.81024  0.43002  0.53291  1.0000
  H   H120      1.0  0.71122  0.9291100000000001  0.58203  1.0000
  H   H121      1.0  0.29811  0.9458  0.41454  1.0000
  H   H122      1.0  0.21122  0.42911  0.58203  1.0000
  H   H123      1.0  0.29977  0.25137  0.9277999999999998  1.0000
  H   H124      1.0  0.79811  0.4458  0.41454  1.0000
  H   H125      1.0  0.28464  0.7435200000000001  0.4188  1.0000
  H   H126      1.0  0.69761  0.7329600000000001  0.58273  1.0000
  H   H127      1.0  0.78464  0.24352000000000004  0.4188  1.0000
  H   H128      1.0  0.19762  0.23296  0.58273  1.0000
  H   H129      1.0  0.54269  0.65718  0.92964  1.0000
  H   H130      1.0  0.47309000000000007  0.63331  0.05951  1.0000
  H   H131      1.0  0.04268999999999999  0.15718  0.92964  1.0000
  H   H132      1.0  0.9730899999999999  0.13331  0.05951  1.0000
  H   H133      1.0  0.30255  0.7536900000000001  0.53564  1.0000
  H   H134      1.0  0.27727  0.7584500000000002  0.08229  1.0000
  H   H135      1.0  0.65838  0.72953  0.465  1.0000
  H   H136      1.0  0.80255  0.2536900000000001  0.53564  1.0000
  H   H137      1.0  0.15837  0.22953000000000004  0.465  1.0000
  H   H138      1.0  0.35759  0.62706  0.53636  1.0000
  H   H139      1.0  0.6422  0.5751100000000001  0.46993  1.0000
  H   H140      1.0  0.85759  0.12706  0.53636  1.0000
  H   H141      1.0  0.1422  0.07511000000000001  0.46993  1.0000
  H   H142      1.0  0.30364  0.42834000000000005  0.4578  1.0000
  H   H143      1.0  0.72231  0.39793  0.54547  1.0000
  H   H144      1.0  0.80364  0.9283400000000002  0.4578  1.0000
  N   N1        1.0  0.35805  0.61376  0.40017  1.0000
  N   N2        1.0  0.63902  0.58098  0.60269  1.0000
  N   N3        1.0  0.8580499999999999  0.11376000000000001  0.40017  1.0000
  N   N4        1.0  0.13902  0.08098  0.60269  1.0000
  O   O1        1.0  0.21413  0.7085700000000003  0.8298899999999999  1.0000
  O   O2        1.0  0.54283  0.7173  0.33162  1.0000
  O   O3        1.0  0.95717  0.2173  0.6683799999999999  1.0000
  O   O4        1.0  0.04283  0.2173  0.33162  1.0000
  O   O5        1.0  0.32087  0.62489  0.67313  1.0000
  O   O6        1.0  0.67913  0.62489  0.32687  1.0000
  O   O7        1.0  0.8208699999999999  0.12489000000000003  0.67313  1.0000
  O   O8        1.0  0.17913  0.12489000000000003  0.32687  1.0000
  O   O9        1.0  0.33443  0.83443  0.74968  1.0000
  O   O10       1.0  0.66557  0.83443  0.25032  1.0000
  O   O11       1.0  0.83443  0.33443  0.74968  1.0000
  O   O12       1.0  0.78587  0.7085700000000003  0.17011  1.0000
  O   O13       1.0  0.16557  0.33443  0.25032  1.0000
  O   O14       1.0  0.23605  0.9591500000000001  0.82527  1.0000
  O   O15       1.0  0.76395  0.9591500000000001  0.17473  1.0000
  O   O16       1.0  0.73605  0.45915  0.82527  1.0000
  O   O17       1.0  0.26395  0.45915  0.17473  1.0000
  O   O18       1.0  0.3321  0.07665000000000001  0.83231  1.0000
  O   O19       1.0  0.6679  0.07665000000000001  0.16769  1.0000
  O   O20       1.0  0.8320999999999998  0.57665  0.83231  1.0000
  O   O21       1.0  0.1679  0.57665  0.16769  1.0000
  O   O22       1.0  0.44649999999999995  0.9186200000000002  0.82624  1.0000
  O   O23       1.0  0.7141300000000002  0.20857000000000003  0.8298899999999999  1.0000
  O   O24       1.0  0.5535  0.9186200000000002  0.17376  1.0000
  O   O25       1.0  0.9465  0.41862000000000005  0.82624  1.0000
  O   O26       1.0  0.05349999999999999  0.41862000000000005  0.17376  1.0000
  O   O27       1.0  0.45731000000000005  0.71583  0.83128  1.0000
  O   O28       1.0  0.54269  0.71583  0.16872  1.0000
  O   O29       1.0  0.95731  0.21583  0.83128  1.0000
  O   O30       1.0  0.04269  0.21583  0.16872  1.0000
  O   O31       1.0  0.321  0.62352  0.82413  1.0000
  O   O32       1.0  0.679  0.62352  0.17587  1.0000
  O   O33       1.0  0.821  0.12352000000000003  0.82413  1.0000
  O   O34       1.0  0.28587  0.20857000000000003  0.17011  1.0000
  O   O35       1.0  0.179  0.12352000000000003  0.17587  1.0000
  O   O36       1.0  0.21399  0.71004  0.667  1.0000
  O   O37       1.0  0.78601  0.71004  0.333  1.0000
  O   O38       1.0  0.71399  0.21004000000000003  0.667  1.0000
  O   O39       1.0  0.28601  0.21004000000000003  0.333  1.0000
  O   O40       1.0  0.23592  0.9605200000000002  0.67426  1.0000
  O   O41       1.0  0.76408  0.9605200000000002  0.32574  1.0000
  O   O42       1.0  0.73592  0.46052000000000004  0.67426  1.0000
  O   O43       1.0  0.26408  0.46052000000000004  0.32574  1.0000
  O   O44       1.0  0.33196  0.07812  0.66941  1.0000
  O   O45       1.0  0.44636  0.91999  0.67523  1.0000
  O   O46       1.0  0.66804  0.07812  0.33059  1.0000
  O   O47       1.0  0.8319599999999999  0.57812  0.66941  1.0000
  O   O48       1.0  0.16804  0.57812  0.33059  1.0000
  O   O49       1.0  0.55364  0.91999  0.32477  1.0000
  O   O50       1.0  0.9463599999999999  0.41999  0.67523  1.0000
  O   O51       1.0  0.05363999999999999  0.41999  0.32477  1.0000
  O   O52       1.0  0.45717  0.7173  0.6683799999999999  1.0000
