data_image0
_chemical_formula_structural       O4C2O4C2O2V2C4H4C4H4C36H16O4C2O4C2O2V2C3H7C3H7Br2
_chemical_formula_sum              "O20 C58 V4 H38 Br2"
_cell_length_a       21.96246
_cell_length_b       7.20191
_cell_length_c       14.76403
_cell_angle_alpha    90.05792999999998
_cell_angle_beta     105.6027
_cell_angle_gamma    89.92769

_space_group_name_H-M_alt    "P 1"
_space_group_IT_number       1

loop_
  _space_group_symop_operation_xyz
  'x, y, z'

loop_
  _atom_site_type_symbol
  _atom_site_label
  _atom_site_symmetry_multiplicity
  _atom_site_fract_x
  _atom_site_fract_y
  _atom_site_fract_z
  _atom_site_occupancy
  O   O1        1.0  0.58477  0.50577  0.00209  1.0000
  O   O2        1.0  0.41522999999999993  0.00577  0.99791  1.0000
  O   O3        1.0  0.46706  0.17334  0.86195  1.0000
  O   O4        1.0  0.53294  0.67334  0.13805  1.0000
  C   C1        1.0  0.45545  0.34421000000000007  0.8256299999999999  1.0000
  C   C2        1.0  0.54459  0.84422  0.17438  1.0000
  O   O5        1.0  0.58751  0.17589  0.99321  1.0000
  O   O6        1.0  0.4124899999999999  0.67589  0.00679  1.0000
  O   O7        1.0  0.53654  0.00815  0.1301  1.0000
  O   O8        1.0  0.46346  0.50815  0.8699  1.0000
  C   C3        1.0  0.6125199999999998  0.34324  0.99451  1.0000
  C   C4        1.0  0.38753  0.84378  0.0057  1.0000
  O   O9        1.0  0.48313999999999996  0.34004  0.04476  1.0000
  O   O10       1.0  0.51686  0.84004  0.9552400000000001  1.0000
  V   V1        1.0  0.50313  0.06419  0.9917  1.0000
  V   V2        1.0  0.49686999999999987  0.56419  0.0083  1.0000
  C   C5        1.0  0.22123999999999994  0.70453  0.0261  1.0000
  C   C6        1.0  0.77939  0.20673  0.97296  1.0000
  C   C7        1.0  0.19540999999999997  0.8716500000000001  0.02202  1.0000
  C   C8        1.0  0.8044399999999998  0.37481  0.9759  1.0000
  H   H1        1.0  0.19856999999999997  0.58072  0.04262  1.0000
  H   H2        1.0  0.80122  0.08568  0.95177  1.0000
  H   H3        1.0  0.17325  0.9781600000000003  0.03338  1.0000
  H   H4        1.0  0.82586  0.48669000000000007  0.9667  1.0000
  C   C9        1.0  0.28688  0.69759  0.016  1.0000
  C   C10       1.0  0.71401  0.19651  0.98395  1.0000
  C   C11       1.0  0.32334  0.8513700000000002  0.01895  1.0000
  C   C12       1.0  0.67655  0.34957  0.98075  1.0000
  H   H5        1.0  0.30439  0.56207  0.00412  1.0000
  H   H6        1.0  0.69692  0.06116  0.99669  1.0000
  H   H7        1.0  0.30671  0.98651  0.03174  1.0000
  H   H8        1.0  0.6926  0.48407  0.96562  1.0000
  C   C13       1.0  0.9288600000000001  0.87906  0.72041  1.0000
  C   C14       1.0  0.07104  0.37954  0.27952  1.0000
  C   C15       1.0  0.57447  0.85094  0.27592  1.0000
  C   C16       1.0  0.42566999999999994  0.35142  0.7241200000000001  1.0000
  C   C17       1.0  0.9394199999999999  0.83534  0.56236  1.0000
  C   C18       1.0  0.06097  0.33586  0.43762  1.0000
  C   C19       1.0  0.96804  0.84862  0.65868  1.0000
  C   C20       1.0  0.03224  0.34503  0.34125  1.0000
  C   C21       1.0  0.8625299999999999  0.88159  0.6824699999999999  1.0000
  C   C22       1.0  0.13736  0.3879  0.31743  1.0000
  C   C23       1.0  0.83368  0.85492  0.58455  1.0000
  C   C24       1.0  0.16648999999999994  0.36372  0.41542  1.0000
  C   C25       1.0  0.8740299999999998  0.8375600000000002  0.52562  1.0000
  C   C26       1.0  0.12626  0.34438  0.47436  1.0000
  C   C27       1.0  0.76667  0.84734  0.54326  1.0000
  C   C28       1.0  0.23353999999999997  0.35916  0.45676  1.0000
  C   C29       1.0  0.74082  0.8331600000000001  0.44222000000000006  1.0000
  C   C30       1.0  0.25937  0.34528  0.55785  1.0000
  C   C31       1.0  0.78531  0.81143  0.38654000000000005  1.0000
  C   C32       1.0  0.21491999999999997  0.32499000000000006  0.61364  1.0000
  C   C33       1.0  0.8499  0.81759  0.42928  1.0000
  C   C34       1.0  0.1504  0.3283600000000001  0.57078  1.0000
  C   C35       1.0  0.72511  0.8480000000000002  0.60138  1.0000
  C   C36       1.0  0.27512  0.36122  0.39868  1.0000
  C   C37       1.0  0.6604499999999999  0.85195  0.56478  1.0000
  C   C38       1.0  0.33978  0.36163  0.43532  1.0000
  C   C39       1.0  0.6337  0.85254  0.46848  1.0000
  C   C40       1.0  0.3665299999999999  0.35841  0.53161  1.0000
  C   C41       1.0  0.67257  0.84057  0.40519  1.0000
  C   C42       1.0  0.32759  0.34984000000000004  0.59487  1.0000
  C   C43       1.0  0.56754  0.8657200000000003  0.43535999999999997  1.0000
  C   C44       1.0  0.43277999999999994  0.3645700000000001  0.5647400000000001  1.0000
  C   C45       1.0  0.53808  0.86443  0.33954  1.0000
  C   C46       1.0  0.46221  0.35963  0.66053  1.0000
  C   C47       1.0  0.64039  0.84404  0.3082  1.0000
  C   C48       1.0  0.35971  0.35248  0.69184  1.0000
  H   H9        1.0  0.8826999999999998  0.80154  0.38629  1.0000
  H   H10       1.0  0.11764  0.31255  0.61382  1.0000
  H   H11       1.0  0.66374  0.85205  0.25425  1.0000
  H   H12       1.0  0.33642  0.3655  0.74565  1.0000
  H   H13       1.0  0.48711000000000004  0.8738800000000002  0.31491  1.0000
  H   H14       1.0  0.51328  0.36342  0.68518  1.0000
  H   H15       1.0  0.63092  0.85602  0.61301  1.0000
  H   H16       1.0  0.36934  0.36505  0.3871  1.0000
  H   H17       1.0  0.9690499999999997  0.81937  0.51462  1.0000
  H   H18       1.0  0.03152  0.31793  0.48545  1.0000
  H   H19       1.0  0.8349799999999999  0.90642  0.73166  1.0000
  H   H20       1.0  0.16464  0.41483  0.26815  1.0000
  H   H21       1.0  0.74109  0.84313  0.67684  1.0000
  H   H22       1.0  0.25916  0.35892  0.32316  1.0000
  H   H23       1.0  0.53846  0.8766000000000002  0.48399  1.0000
  H   H24       1.0  0.46196000000000004  0.37247  0.51613  1.0000
  O   O11       1.0  0.03645  0.23307000000000003  0.13013  1.0000
  O   O12       1.0  0.96355  0.73307  0.86987  1.0000
  O   O13       1.0  0.9124699999999999  0.56057  0.00679  1.0000
  O   O14       1.0  0.08752999999999998  0.06057  0.99321  1.0000
  C   C49       1.0  0.88163  0.39185  0.99037  1.0000
  C   C50       1.0  0.11839999999999998  0.89113  0.00961  1.0000
  O   O15       1.0  0.03292  0.56294  0.13805  1.0000
  O   O16       1.0  0.9670799999999999  0.06294  0.86195  1.0000
  O   O17       1.0  0.08479  0.7305000000000003  0.00209  1.0000
  O   O18       1.0  0.9152100000000001  0.23050000000000004  0.99791  1.0000
  C   C51       1.0  0.04558999999999999  0.39387  0.17551  1.0000
  C   C52       1.0  0.954  0.89385  0.82453  1.0000
  O   O19       1.0  0.01682  0.39617  0.95526  1.0000
  O   O20       1.0  0.98318  0.8961700000000002  0.04474  1.0000
  V   V3        1.0  0.99688  0.67209  0.0083  1.0000
  V   V4        1.0  0.0031200000000000047  0.17209  0.9917  1.0000
  C   C53       1.0  0.03996  0.8352200000000002  0.68493  1.0000
  C   C54       1.0  0.07188  0.77218  0.78444  1.0000
  C   C55       1.0  0.14175  0.7306  0.79944  1.0000
  H   H25       1.0  0.14968  0.6349700000000003  0.74508  1.0000
  H   H26       1.0  0.16880999999999996  0.86087  0.80038  1.0000
  H   H27       1.0  0.15883999999999998  0.65687  0.8662  1.0000
  H   H28       1.0  0.06859  0.88685  0.83221  1.0000
  H   H29       1.0  0.04860999999999999  0.64413  0.80023  1.0000
  H   H30       1.0  0.053520000000000005  0.73264  0.63719  1.0000
  H   H31       1.0  0.05948  0.97165  0.67168  1.0000
  C   C56       1.0  0.9604899999999998  0.32395  0.31504  1.0000
  C   C57       1.0  0.92934  0.25373  0.21637  1.0000
  C   C58       1.0  0.8607899999999999  0.19759  0.2032  1.0000
  H   H32       1.0  0.85687  0.09029  0.25502  1.0000
  H   H33       1.0  0.8313899999999999  0.3198500000000001  0.20913  1.0000
  H   H34       1.0  0.8429099999999999  0.13347  0.13347  1.0000
  H   H35       1.0  0.92975  0.36856  0.16734  1.0000
  H   H36       1.0  0.95518  0.13031  0.20139  1.0000
  H   H37       1.0  0.9482199999999998  0.22232  0.36431  1.0000
  H   H38       1.0  0.9391799999999998  0.45891  0.3263  1.0000
  Br  Br1       1.0  0.7701799999999999  0.74061  0.25593  1.0000
  Br  Br2       1.0  0.22977  0.26025  0.7449999999999999  1.0000
