data_image0
_chemical_formula_structural       C48Cr6H17O27H
_chemical_formula_sum              "C48 Cr6 H18 O27"
_cell_length_a       10.75024
_cell_length_b       10.70946
_cell_length_c       17.0915
_cell_angle_alpha    99.77860999999999
_cell_angle_beta     99.53061
_cell_angle_gamma    60.6696

_symmetry_space_group_name_H-M    'P 1'
_symmetry_Int_Tables_number       1

loop_
  _symmetry_equiv_pos_as_xyz
  'x,y,z'

loop_
  _atom_site_type_symbol
  _atom_site_label
  _atom_site_symmetry_multiplicity
  _atom_site_fract_x
  _atom_site_fract_y
  _atom_site_fract_z
  _atom_site_occupancy
  C   C1        1.0  0.35508  0.77734  0.4016799999999999  1.0000
  C   C2        1.0  0.8135899999999999  0.23590000000000003  0.19341  1.0000
  C   C3        1.0  0.8259599999999999  0.21922  0.27482  1.0000
  C   C4        1.0  0.92566  0.38474  0.31097  1.0000
  C   C5        1.0  0.9294299999999999  0.38686  0.23078  1.0000
  C   C6        1.0  0.75386  0.16285  0.13631  1.0000
  C   C7        1.0  0.72506  0.06134  0.15865  1.0000
  C   C8        1.0  0.75237  0.03369999999999999  0.23776999999999995  1.0000
  C   C9        1.0  0.80415  0.10955  0.29525  1.0000
  C   C10       1.0  0.8583  0.31388  0.33301999999999987  1.0000
  C   C11       1.0  0.31769  0.86143  0.16858999999999993  1.0000
  C   C12       1.0  0.36976  0.34607999999999994  0.3574699999999999  1.0000
  C   C13       1.0  0.45354000000000005  0.81217  0.21144  1.0000
  C   C14       1.0  0.46268  0.81924  0.29526  1.0000
  C   C15       1.0  0.2061699999999999  0.8991600000000001  0.28829  1.0000
  C   C16       1.0  0.19495  0.9085299999999998  0.20838999999999994  1.0000
  C   C17       1.0  0.5799000000000001  0.7557  0.17316  1.0000
  C   C18       1.0  0.7110699999999998  0.72057  0.21762999999999993  1.0000
  C   C19       1.0  0.7179199999999999  0.74455  0.30041  1.0000
  C   C20       1.0  0.59493  0.79601  0.33902  1.0000
  C   C21       1.0  0.33972  0.84592  0.33142  1.0000
  C   C22       1.0  0.29956999999999995  0.27572  0.79933  1.0000
  C   C23       1.0  0.78142  0.37195  0.4051299999999999  1.0000
  C   C24       1.0  0.42719  0.17646  0.7631999999999998  1.0000
  C   C25       1.0  0.47831000000000007  0.22697000000000003  0.71276  1.0000
  C   C26       1.0  0.24629999999999996  0.4446800000000001  0.70579  1.0000
  C   C27       1.0  0.20876999999999996  0.4083  0.7689799999999998  1.0000
  C   C28       1.0  0.50971  0.030629999999999984  0.77921  1.0000
  C   C29       1.0  0.6489799999999997  0.9464600000000001  0.75769  1.0000
  C   C30       1.0  0.7088499999999999  0.006440000000000003  0.72019  1.0000
  C   C31       1.0  0.62457  0.14546  0.69805  1.0000
  C   C32       1.0  0.3800299999999999  0.35407  0.6764099999999997  1.0000
  C   C33       1.0  0.84534  0.32924000000000003  0.70558  1.0000
  C   C34       1.0  0.3579300000000001  0.7692399999999999  0.6274199999999999  1.0000
  C   C35       1.0  0.89192  0.29412999999999995  0.7720399999999997  1.0000
  C   C36       1.0  0.33884999999999993  0.8095099999999997  0.7094299999999998  1.0000
  C   C37       1.0  0.31313  0.83713  0.7775099999999998  1.0000
  C   C38       1.0  0.89838  0.30797  0.09034999999999997  1.0000
  C   C39       1.0  0.31884000000000007  0.30022  0.12014999999999999  1.0000
  C   C40       1.0  0.29133999999999993  0.8956100000000001  0.08698999999999997  1.0000
  C   C41       1.0  0.9424299999999999  0.27359  0.8542799999999998  1.0000
  C   C42       1.0  0.27936000000000005  0.25232999999999994  0.8771599999999998  1.0000
  C   C43       1.0  0.2791899999999998  0.8843300000000001  0.8573199999999997  1.0000
  C   C44       1.0  0.40705  0.37577  0.60002  1.0000
  C   C45       1.0  0.77734  0.37858  0.6291599999999998  1.0000
  C   C46       1.0  0.34318  0.33588  0.27418  1.0000
  C   C47       1.0  0.3310399999999999  0.32676  0.20344  1.0000
  C   C48       1.0  0.8664100000000001  0.32082  0.17162  1.0000
  Cr  Cr1       1.0  0.6080999999999999  0.6108600000000001  0.52225  1.0000
  Cr  Cr2       1.0  0.28888999999999987  0.5999900000000001  0.48842  1.0000
  Cr  Cr3       1.0  0.60304  0.28919000000000006  0.48939  1.0000
  Cr  Cr4       1.0  0.05395999999999994  0.05225  0.9673799999999999  1.0000
  Cr  Cr5       1.0  0.05989000000000001  0.37316  0.99271  1.0000
  Cr  Cr6       1.0  0.37337  0.06168999999999999  0.9917099999999999  1.0000
  H   H1        1.0  0.8065399999999999  0.6812  0.18765  1.0000
  H   H2        1.0  0.8183799999999999  0.72626  0.33472  1.0000
  H   H3        1.0  0.6046599999999998  0.82168  0.40287  1.0000
  H   H4        1.0  0.17092  0.54379  0.6801199999999997  1.0000
  H   H5        1.0  0.46846999999999983  0.9813  0.8094799999999998  1.0000
  H   H6        1.0  0.10936999999999988  0.48418000000000005  0.79437  1.0000
  H   H7        1.0  0.7116200000000001  0.83643  0.77238  1.0000
  H   H8        1.0  0.81928  0.94436  0.7064799999999998  1.0000
  H   H9        1.0  0.6746099999999999  0.1877  0.66902  1.0000
  H   H10       1.0  0.7295999999999999  0.1827  0.07423999999999997  1.0000
  H   H11       1.0  0.9853600000000002  0.43869  0.21497  1.0000
  H   H12       1.0  0.6841  0.00201  0.11436  1.0000
  H   H13       1.0  0.7320099999999997  0.9547100000000001  0.25531  1.0000
  H   H14       1.0  0.83115  0.07772  0.35506  1.0000
  H   H15       1.0  0.11094999999999995  0.9251200000000002  0.31537  1.0000
  H   H16       1.0  0.57897  0.73677  0.10892999999999997  1.0000
  H   H17       1.0  0.08791999999999985  0.95256  0.17771999999999993  1.0000
  O   O1        1.0  0.74981  0.49979000000000007  0.43804  1.0000
  O   O2        1.0  0.29896999999999996  0.46880000000000005  0.55739  1.0000
  O   O3        1.0  0.4894  0.25593  0.56191  1.0000
  O   O4        1.0  0.72389  0.30605  0.58461  1.0000
  O   O5        1.0  0.50001  0.50001  0.50002  1.0000
  O   O6        1.0  0.1711  0.91468  0.0531  1.0000
  O   O7        1.0  0.9416799999999999  0.18484  0.05071  1.0000
  O   O8        1.0  0.9220799999999999  0.40342  0.07261  1.0000
  O   O9        1.0  0.19687999999999997  0.36915  0.08385  1.0000
  O   O10       1.0  0.4117299999999999  0.18102000000000001  0.09153  1.0000
  O   O11       1.0  0.36501  0.94436  0.06332  1.0000
  O   O12       1.0  0.47766  0.72626  0.43928999999999996  1.0000
  O   O13       1.0  0.15937999999999994  0.9066700000000001  0.87621  1.0000
  O   O14       1.0  0.93082  0.17742000000000002  0.88673  1.0000
  O   O15       1.0  0.91036  0.39541999999999994  0.8957199999999998  1.0000
  O   O16       1.0  0.18601  0.36173  0.91987  1.0000
  O   O17       1.0  0.39999999999999997  0.17301  0.91463  1.0000
  O   O18       1.0  0.3541399999999999  0.93694  0.89934  1.0000
  O   O19       1.0  0.16241  0.16236999999999996  0.98393  1.0000
  O   O20       1.0  0.26015  0.743  0.41227  1.0000
  O   O21       1.0  0.29773999999999995  0.46655  0.39472  1.0000
  O   O22       1.0  0.4880800000000001  0.2535  0.38643  1.0000
  O   O23       1.0  0.72267  0.30380000000000007  0.42194  1.0000
  O   O24       1.0  0.7511299999999999  0.50222  0.61352  1.0000
  O   O25       1.0  0.47888999999999987  0.72851  0.60196  1.0000
  O   O26       1.0  0.26147  0.74543  0.58775  1.0000
  O   O27       1.0  0.9879100000000001  0.45338000000000006  0.36574  1.0000
  H   H18       1.0  0.004729999999999994  0.41744  0.41827  1.0000
