data_image0
_chemical_formula_structural       C70Cr6H41O27H
_chemical_formula_sum              "C70 Cr6 H42 O27"
_cell_length_a       10.7852
_cell_length_b       10.99402
_cell_length_c       18.83262
_cell_angle_alpha    90.43716000000002
_cell_angle_beta     90.3062
_cell_angle_gamma    61.12046999999999

_space_group_name_H-M_alt    "P 1"
_space_group_IT_number       1

loop_
  _space_group_symop_operation_xyz
  'x, y, z'

loop_
  _atom_site_type_symbol
  _atom_site_label
  _atom_site_symmetry_multiplicity
  _atom_site_fract_x
  _atom_site_fract_y
  _atom_site_fract_z
  _atom_site_occupancy
  C   C1        1.0  0.23497000000000007  0.64499  0.60951  1.0000
  C   C2        1.0  0.7273699999999999  0.50444  0.805  1.0000
  C   C3        1.0  0.6872499999999997  0.659  0.81699  1.0000
  C   C4        1.0  0.6472199999999998  0.61663  0.6839  1.0000
  C   C5        1.0  0.7475199999999999  0.68031  0.68893  1.0000
  C   C6        1.0  0.7122299999999999  0.47848999999999997  0.72575  1.0000
  C   C7        1.0  0.72128  0.08475  0.81221  1.0000
  C   C8        1.0  0.8198799999999999  0.11448  0.77623  1.0000
  C   C9        1.0  0.8107199999999998  0.12735  0.7009099999999999  1.0000
  C   C10       1.0  0.60202  0.09847  0.70056  1.0000
  C   C11       1.0  0.61799  0.07187  0.7721599999999998  1.0000
  C   C12       1.0  0.62774  0.58827  0.60861  1.0000
  C   C13       1.0  0.9253099999999997  0.13464  0.81114  1.0000
  C   C14       1.0  0.02831999999999999  0.14765  0.7725999999999997  1.0000
  C   C15       1.0  0.029289999999999986  0.1406  0.69894  1.0000
  C   C16       1.0  0.92178  0.13051  0.6632599999999997  1.0000
  C   C17       1.0  0.6895999999999999  0.13838  0.6654899999999999  1.0000
  C   C18       1.0  0.17708  0.67338  0.8334699999999998  1.0000
  C   C19       1.0  0.20941000000000007  0.5465  0.79986  1.0000
  C   C20       1.0  0.20202999999999993  0.54095  0.72453  1.0000
  C   C21       1.0  0.16104  0.77888  0.71944  1.0000
  C   C22       1.0  0.16087  0.78526  0.7924  1.0000
  C   C23       1.0  0.6331099999999998  0.22051  0.60025  1.0000
  C   C24       1.0  0.25039  0.42478  0.83979  1.0000
  C   C25       1.0  0.27220999999999995  0.30261  0.80696  1.0000
  C   C26       1.0  0.25104  0.30027  0.73435  1.0000
  C   C27       1.0  0.21296999999999988  0.41839  0.6935799999999998  1.0000
  C   C28       1.0  0.1856  0.65749  0.68382  1.0000
  C   C29       1.0  0.65921  0.64508  0.16585  1.0000
  C   C30       1.0  0.77386  0.54614  0.20729999999999998  1.0000
  C   C31       1.0  0.7779  0.57262  0.27976  1.0000
  C   C32       1.0  0.52382  0.72052  0.27455  1.0000
  C   C33       1.0  0.53026  0.72239  0.19988999999999996  1.0000
  C   C34       1.0  0.21940999999999997  0.64823  0.40273999999999993  1.0000
  C   C35       1.0  0.8894300000000002  0.42727  0.17797  1.0000
  C   C36       1.0  0.02022  0.36614  0.2122  1.0000
  C   C37       1.0  0.02802  0.40766  0.28124  1.0000
  C   C38       1.0  0.9092799999999993  0.51013  0.31490999999999997  1.0000
  C   C39       1.0  0.6493099999999998  0.6513  0.31548  1.0000
  C   C40       1.0  0.65629  0.11997999999999999  0.18186  1.0000
  C   C41       1.0  0.5524499999999999  0.1079  0.22283999999999998  1.0000
  C   C42       1.0  0.50897  0.18042  0.2873  1.0000
  C   C43       1.0  0.67712  0.26882  0.26976  1.0000
  C   C44       1.0  0.7092999999999999  0.20782000000000003  0.20356  1.0000
  C   C45       1.0  0.6403700000000001  0.62103  0.3909299999999999  1.0000
  C   C46       1.0  0.48569  0.03047  0.19977  1.0000
  C   C47       1.0  0.37323  0.0326  0.236  1.0000
  C   C48       1.0  0.3291  0.10339  0.29857  1.0000
  C   C49       1.0  0.39031  0.18102  0.32221  1.0000
  C   C50       1.0  0.58669  0.24778  0.31393  1.0000
  C   C51       1.0  0.12209999999999997  0.70079  0.18969  1.0000
  C   C52       1.0  0.07960999999999994  0.81932  0.2363  1.0000
  C   C53       1.0  0.07095  0.79965  0.30910999999999994  1.0000
  C   C54       1.0  0.20958000000000007  0.55137  0.28897  1.0000
  C   C55       1.0  0.18585000000000002  0.56795  0.21716999999999997  1.0000
  C   C56       1.0  0.5775099999999999  0.2925  0.38753  1.0000
  C   C57       1.0  0.05528  0.9535000000000001  0.21578999999999998  1.0000
  C   C58       1.0  0.009219999999999994  0.06196000000000001  0.26484999999999986  1.0000
  C   C59       1.0  0.97806  0.04458  0.33389  1.0000
  C   C60       1.0  0.005079999999999862  0.91439  0.35584  1.0000
  C   C61       1.0  0.15098999999999999  0.66585  0.33511  1.0000
  C   C62       1.0  0.72649  0.04812  0.88809  1.0000
  C   C63       1.0  0.71831  0.6839  0.8906899999999999  1.0000
  C   C64       1.0  0.11899000000000001  0.70669  0.9057699999999999  1.0000
  C   C65       1.0  0.6946699999999999  0.05589000000000001  0.11241  1.0000
  C   C66       1.0  0.69362  0.68482  0.09581999999999999  1.0000
  C   C67       1.0  0.5289899999999997  0.74943  0.7970599999999998  1.0000
  C   C68       1.0  0.08495000000000001  0.7172  0.11512  1.0000
  C   C69       1.0  0.5043599999999999  0.71791  0.7198599999999999  1.0000
  C   C70       1.0  0.78001  0.69387  0.76712  1.0000
  Cr  Cr1       1.0  0.3929399999999999  0.39795  0.50223  1.0000
  Cr  Cr2       1.0  0.3983999999999999  0.7085  0.50126  1.0000
  Cr  Cr3       1.0  0.70864  0.39353  0.49646  1.0000
  Cr  Cr4       1.0  0.9378799999999999  0.9383199999999999  0.00762  1.0000
  Cr  Cr5       1.0  0.6255599999999999  0.9372199999999999  0.99451  1.0000
  Cr  Cr6       1.0  0.9380799999999999  0.62501  0.0011899999999999999  1.0000
  H   H1        1.0  0.4965300000000001  0.86147  0.80228  1.0000
  H   H2        1.0  0.81842  0.40713  0.7039099999999999  1.0000
  H   H3        1.0  0.8941999999999998  0.6218  0.7775999999999997  1.0000
  H   H4        1.0  0.8487899999999999  0.61427  0.6606  1.0000
  H   H5        1.0  0.51504  0.09518  0.67333  1.0000
  H   H6        1.0  0.93168  0.14238  0.86771  1.0000
  H   H7        1.0  0.54588  0.04273  0.79668  1.0000
  H   H8        1.0  0.11016999999999998  0.15877  0.8003899999999998  1.0000
  H   H9        1.0  0.11288  0.14282  0.66875  1.0000
  H   H10       1.0  0.9292699999999998  0.12096999999999998  0.60609  1.0000
  H   H11       1.0  0.15252000000000004  0.8670499999999999  0.6907199999999999  1.0000
  H   H12       1.0  0.46144999999999997  0.72779  0.8337  1.0000
  H   H13       1.0  0.26988  0.42202999999999996  0.8963199999999999  1.0000
  H   H14       1.0  0.14462999999999995  0.88065  0.8170199999999999  1.0000
  H   H15       1.0  0.30422  0.20982000000000003  0.8381299999999999  1.0000
  H   H16       1.0  0.26719  0.20527  0.70928  1.0000
  H   H17       1.0  0.18898999999999994  0.41177  0.63853  1.0000
  H   H18       1.0  0.42124  0.7732  0.30008  1.0000
  H   H19       1.0  0.8805300000000001  0.38648  0.12679  1.0000
  H   H20       1.0  0.4363999999999997  0.78143  0.16827  1.0000
  H   H21       1.0  0.12511  0.36089  0.3099499999999999  1.0000
  H   H22       1.0  0.4364700000000001  0.668  0.72002  1.0000
  H   H23       1.0  0.9210999999999998  0.53978  0.36844  1.0000
  H   H24       1.0  0.7271299999999998  0.32865  0.28760999999999987  1.0000
  H   H25       1.0  0.5149799999999999  0.96944  0.15298  1.0000
  H   H26       1.0  0.77983  0.22609999999999997  0.17008  1.0000
  H   H27       1.0  0.3145099999999999  0.9847700000000001  0.21423999999999999  1.0000
  H   H28       1.0  0.23970999999999995  0.10681  0.32629  1.0000
  H   H29       1.0  0.3307800000000001  0.24832000000000004  0.36527  1.0000
  H   H30       1.0  0.28032  0.44922999999999996  0.30806  1.0000
  H   H31       1.0  0.08129999999999997  0.97783  0.1647  1.0000
  H   H32       1.0  0.22536  0.47742  0.18278999999999995  1.0000
  H   H33       1.0  0.44809999999999994  0.81725  0.6902199999999998  1.0000
  H   H34       1.0  0.99329  0.16152  0.24864  1.0000
  H   H35       1.0  0.9395299999999999  0.13039  0.3710899999999999  1.0000
  H   H36       1.0  0.9871800000000001  0.90075  0.41108  1.0000
  H   H37       1.0  0.7628  0.80011  0.7775899999999999  1.0000
  H   H38       1.0  0.6970899999999999  0.78442  0.66353  1.0000
  H   H39       1.0  0.83849  0.43418  0.82166  1.0000
  H   H40       1.0  0.65773  0.47791000000000006  0.83733  1.0000
  H   H41       1.0  0.64503  0.42769  0.71991  1.0000
  O   O1        1.0  0.5073400000000001  0.25569  0.58143  1.0000
  O   O2        1.0  0.5245099999999999  0.69582  0.42404999999999987  1.0000
  O   O3        1.0  0.73637  0.50426  0.41480999999999996  1.0000
  O   O4        1.0  0.6912199999999997  0.27727  0.42218  1.0000
  O   O5        1.0  0.49999000000000005  0.49999  0.49998  1.0000
  O   O6        1.0  0.08956999999999998  0.82545  0.93059  1.0000
  O   O7        1.0  0.8186999999999999  0.05426  0.92986  1.0000
  O   O8        1.0  0.60631  0.07701  0.91552  1.0000
  O   O9        1.0  0.6467299999999999  0.80654  0.91756  1.0000
  O   O10       1.0  0.8372899999999999  0.59324  0.91524  1.0000
  O   O11       1.0  0.06531999999999998  0.63531  0.93158  1.0000
  O   O12       1.0  0.28035999999999994  0.52738  0.57891  1.0000
  O   O13       1.0  0.06847000000000002  0.82862  0.09185  1.0000
  O   O14       1.0  0.79915  0.057199999999999994  0.07935  1.0000
  O   O15       1.0  0.58522  0.08018  0.07677  1.0000
  O   O16       1.0  0.6271699999999998  0.80948  0.06705  1.0000
  O   O17       1.0  0.8162  0.59641  0.0765  1.0000
  O   O18       1.0  0.04577  0.63824  0.08107  1.0000
  O   O19       1.0  0.8338399999999998  0.83352  0.00111  1.0000
  O   O20       1.0  0.2606  0.73961  0.58458  1.0000
  O   O21       1.0  0.53237  0.69505  0.57383  1.0000
  O   O22       1.0  0.7448500000000001  0.50343  0.5763799999999999  1.0000
  O   O23       1.0  0.6990799999999999  0.2765  0.5719499999999998  1.0000
  O   O24       1.0  0.4988599999999999  0.25652  0.41985999999999996  1.0000
  O   O25       1.0  0.27249000000000007  0.52815  0.42913999999999997  1.0000
  O   O26       1.0  0.2521099999999999  0.74044  0.42301  1.0000
  O   O27       1.0  0.14096999999999996  0.26766  0.17912  1.0000
  H   H42       1.0  0.11699999999999998  0.2509  0.1304  1.0000
