data_image0
_chemical_formula_structural       C50Cl5Cr6H27O26
_chemical_formula_sum              "C50 Cl5 Cr6 H27 O26"
_cell_length_a       10.89359
_cell_length_b       10.9229
_cell_length_c       18.85413
_cell_angle_alpha    90.38148
_cell_angle_beta     89.85434999999998
_cell_angle_gamma    60.21678

_space_group_name_H-M_alt    "P 1"
_space_group_IT_number       1

loop_
  _space_group_symop_operation_xyz
  'x, y, z'

loop_
  _atom_site_type_symbol
  _atom_site_label
  _atom_site_symmetry_multiplicity
  _atom_site_fract_x
  _atom_site_fract_y
  _atom_site_fract_z
  _atom_site_occupancy
  C   C1        1.0  0.23937  0.6453  0.61044  1.0000
  C   C2        1.0  0.5528  0.21318  0.79423  1.0000
  C   C3        1.0  0.54033  0.22085  0.72189  1.0000
  C   C4        1.0  0.65546  0.62399  0.5999299999999999  1.0000
  C   C5        1.0  0.65604  0.19289  0.67868  1.0000
  C   C6        1.0  0.21526  0.54504  0.7243499999999999  1.0000
  C   C7        1.0  0.20420000000000002  0.5529099999999999  0.79808  1.0000
  C   C8        1.0  0.17458999999999997  0.6778  0.8331599999999998  1.0000
  C   C9        1.0  0.16752  0.79034  0.79425  1.0000
  C   C10       1.0  0.1771599999999999  0.783  0.7213399999999999  1.0000
  C   C11       1.0  0.20062  0.66052  0.68545  1.0000
  C   C12       1.0  0.6553  0.56369  0.7983  1.0000
  C   C13       1.0  0.7058600000000003  0.5238699999999997  0.26983  1.0000
  C   C14       1.0  0.7059700000000001  0.5388199999999999  0.19692999999999994  1.0000
  C   C15       1.0  0.64922  0.67408  0.16797  1.0000
  C   C16       1.0  0.62634  0.23195999999999997  0.6041899999999999  1.0000
  C   C17       1.0  0.5793200000000001  0.7935899999999999  0.21255999999999997  1.0000
  C   C18       1.0  0.5764  0.77789  0.28579999999999994  1.0000
  C   C19       1.0  0.6454800000000003  0.64271  0.31482  1.0000
  C   C20       1.0  0.52821  0.18378  0.28539  1.0000
  C   C21       1.0  0.534  0.17455  0.21286  1.0000
  C   C22       1.0  0.65743  0.14853  0.17791999999999997  1.0000
  C   C23       1.0  0.7041299999999999  0.67241  0.81124  1.0000
  C   C24       1.0  0.77479  0.13279  0.21644  1.0000
  C   C25       1.0  0.7672999999999999  0.14736  0.28917  1.0000
  C   C26       1.0  0.64297  0.17544999999999997  0.32368999999999987  1.0000
  C   C27       1.0  0.11051  0.7999599999999999  0.30175  1.0000
  C   C28       1.0  0.21879000000000012  0.6499699999999998  0.4024999999999999  1.0000
  C   C29       1.0  0.10148  0.80685  0.22960999999999998  1.0000
  C   C30       1.0  0.11774000000000004  0.69086  0.18942  1.0000
  C   C31       1.0  0.14098000000000002  0.56758  0.22307999999999995  1.0000
  C   C32       1.0  0.15895000000000004  0.5575499999999999  0.29614  1.0000
  C   C33       1.0  0.15004999999999996  0.67237  0.33487  1.0000
  C   C34       1.0  0.67535  0.6508399999999999  0.6746499999999997  1.0000
  C   C35       1.0  0.7015999999999999  0.10354999999999998  0.8965499999999998  1.0000
  C   C36       1.0  0.72429  0.68774  0.88783  1.0000
  C   C37       1.0  0.11783000000000005  0.7072499999999999  0.9053199999999999  1.0000
  C   C38       1.0  0.67603  0.10474  0.10479  1.0000
  C   C39       1.0  0.6939400000000001  0.69039  0.09723  1.0000
  C   C40       1.0  0.6399100000000001  0.61954  0.39054999999999995  1.0000
  C   C41       1.0  0.08635999999999995  0.71336  0.11474  1.0000
  C   C42       1.0  0.61717  0.22793999999999998  0.3953299999999999  1.0000
  C   C43       1.0  0.5891800000000001  0.8166599999999998  0.77983  1.0000
  C   C44       1.0  0.5523999999999999  0.79464  0.7038799999999998  1.0000
  C   C45       1.0  0.8245800000000001  0.6381999999999998  0.6892699999999998  1.0000
  C   C46       1.0  0.8492000000000001  0.62201  0.7709899999999997  1.0000
  C   C47       1.0  0.6639299999999999  0.53373  0.71798  1.0000
  C   C48       1.0  0.78741  0.15356  0.70986  1.0000
  C   C49       1.0  0.8027400000000005  0.13565  0.78345  1.0000
  C   C50       1.0  0.68527  0.16244  0.82569  1.0000
  Cl  Cl1       1.0  0.97701  0.4412899999999999  0.79448  1.0000
  Cl  Cl2       1.0  0.9703600000000001  0.49745  0.64061  1.0000
  Cl  Cl3       1.0  0.7828999999999999  0.38571  0.14338  1.0000
  Cl  Cl4       1.0  0.50435  0.9469999999999998  0.6502  1.0000
  Cl  Cl5       1.0  0.83161  0.7911  0.66046  1.0000
  Cr  Cr1       1.0  0.39293  0.3979  0.50223  1.0000
  Cr  Cr2       1.0  0.3982400000000001  0.7085999999999999  0.50126  1.0000
  Cr  Cr3       1.0  0.7088000000000001  0.3934699999999999  0.4964599999999999  1.0000
  Cr  Cr4       1.0  0.9376200000000001  0.93854  0.007639999999999999  1.0000
  Cr  Cr5       1.0  0.62515  0.93745  0.9945199999999998  1.0000
  Cr  Cr6       1.0  0.93799  0.62508  0.00119  1.0000
  H   H1        1.0  0.7576400000000001  0.42858  0.70683  1.0000
  H   H2        1.0  0.53505  0.89899  0.19141  1.0000
  H   H3        1.0  0.5246400000000001  0.8705399999999999  0.3197  1.0000
  H   H4        1.0  0.43004  0.20544  0.31079  1.0000
  H   H5        1.0  0.44362  0.18314  0.18457  1.0000
  H   H6        1.0  0.8726999999999999  0.10907  0.19037999999999994  1.0000
  H   H7        1.0  0.85605  0.14153  0.31789  1.0000
  H   H8        1.0  0.10050000000000009  0.8906899999999998  0.33062  1.0000
  H   H9        1.0  0.45409  0.78726  0.7066199999999998  1.0000
  H   H10       1.0  0.08176  0.90455  0.20565999999999998  1.0000
  H   H11       1.0  0.14902000000000004  0.47896  0.19305  1.0000
  H   H12       1.0  0.8774500000000001  0.13501  0.67753  1.0000
  H   H13       1.0  0.18859000000000006  0.4579199999999999  0.3213499999999999  1.0000
  H   H14       1.0  0.89528  0.68779  0.7888999999999999  1.0000
  H   H15       1.0  0.7209700000000001  0.46397999999999995  0.8274799999999998  1.0000
  H   H16       1.0  0.5444499999999999  0.60686  0.8174099999999999  1.0000
  H   H17       1.0  0.56881  0.52715  0.70218  1.0000
  H   H18       1.0  0.62933  0.8925499999999998  0.78037  1.0000
  H   H19       1.0  0.43813999999999986  0.25023  0.69994  1.0000
  H   H20       1.0  0.75217  0.41857  0.29131  1.0000
  H   H21       1.0  0.9062800000000001  0.09563  0.8066799999999997  1.0000
  H   H22       1.0  0.4598  0.23561999999999994  0.82515  1.0000
  H   H23       1.0  0.23470999999999997  0.44929  0.69775  1.0000
  H   H24       1.0  0.21302000000000001  0.46416999999999997  0.8274199999999999  1.0000
  H   H25       1.0  0.14653000000000005  0.8881999999999999  0.81956  1.0000
  H   H26       1.0  0.49046  0.86371  0.8123499999999998  1.0000
  H   H27       1.0  0.16870000000000004  0.8731299999999999  0.69332  1.0000
  O   O1        1.0  0.5074300000000002  0.25557  0.58142  1.0000
  O   O2        1.0  0.8372  0.59329  0.9152499999999999  1.0000
  O   O3        1.0  0.06533  0.63537  0.93159  1.0000
  O   O4        1.0  0.28018999999999994  0.52739  0.57891  1.0000
  O   O5        1.0  0.06830000000000001  0.82879  0.09185999999999998  1.0000
  O   O6        1.0  0.7987300000000003  0.05748  0.07937  1.0000
  O   O7        1.0  0.58468  0.08047999999999998  0.07679  1.0000
  O   O8        1.0  0.6267900000000002  0.80964  0.06705  1.0000
  O   O9        1.0  0.81601  0.59646  0.0765  1.0000
  O   O10       1.0  0.04567999999999997  0.63831  0.08106999999999999  1.0000
  O   O11       1.0  0.8335900000000002  0.8336899999999999  0.0011199999999999995  1.0000
  O   O12       1.0  0.52446  0.6959199999999998  0.4240599999999999  1.0000
  O   O13       1.0  0.26031000000000004  0.7397399999999997  0.58458  1.0000
  O   O14       1.0  0.5322500000000001  0.69515  0.57383  1.0000
  O   O15       1.0  0.74493  0.50343  0.5763799999999999  1.0000
  O   O16       1.0  0.69925  0.27639  0.5719499999999998  1.0000
  O   O17       1.0  0.49902  0.2564  0.4198499999999999  1.0000
  O   O18       1.0  0.27240000000000003  0.5281599999999999  0.42914  1.0000
  O   O19       1.0  0.2519100000000001  0.74057  0.42302  1.0000
  O   O20       1.0  0.7365300000000002  0.5042599999999999  0.4148099999999999  1.0000
  O   O21       1.0  0.69146  0.27716  0.42218  1.0000
  O   O22       1.0  0.49999  0.49998999999999993  0.4999799999999999  1.0000
  O   O23       1.0  0.08949000000000001  0.82561  0.9306099999999999  1.0000
  O   O24       1.0  0.8183700000000002  0.05454  0.92988  1.0000
  O   O25       1.0  0.60587  0.07731  0.91553  1.0000
  O   O26       1.0  0.64644  0.8067  0.9175699999999999  1.0000
