data_image0
_chemical_formula_structural       O3CO2CO2VOCOCVOHC14H6C16H7C16H7C14H6O3CO2CO2VOCOCVOF3CHOF
_chemical_formula_sum              "O21 C69 V4 H28 F4"
_cell_length_a       6.9371
_cell_length_b       17.66598
_cell_length_c       19.37843
_cell_angle_alpha    108.55751
_cell_angle_beta     89.73259
_cell_angle_gamma    90.24495

_symmetry_space_group_name_H-M    'P 1'
_symmetry_Int_Tables_number       1

loop_
  _symmetry_equiv_pos_as_xyz
  'x,y,z'

loop_
  _atom_site_type_symbol
  _atom_site_label
  _atom_site_symmetry_multiplicity
  _atom_site_fract_x
  _atom_site_fract_y
  _atom_site_fract_z
  _atom_site_occupancy
  O   O1        1.0  0.49433000000000005  0.41572  0.41372  1.0000
  O   O2        1.0  0.81933  0.43006999999999995  0.56021  1.0000
  O   O3        1.0  0.9943200000000001  0.58428  0.58628  1.0000
  C   C1        1.0  0.65044  0.41458999999999996  0.5815  1.0000
  O   O4        1.0  0.8237300000000002  0.4063  0.41267  1.0000
  O   O5        1.0  0.9987600000000002  0.56034  0.43769  1.0000
  C   C2        1.0  0.65534  0.38395000000000007  0.3847500000000001  1.0000
  O   O6        1.0  0.4898900000000001  0.43966  0.56231  1.0000
  O   O7        1.0  0.66234  0.55056  0.5083800000000002  1.0000
  V   V1        1.0  0.9353700000000003  0.49062  0.49845  1.0000
  O   O8        1.0  0.32875  0.56993  0.43979  1.0000
  C   C3        1.0  0.16033  0.58379  0.41713  1.0000
  O   O9        1.0  0.32434  0.5937  0.58733  1.0000
  C   C4        1.0  0.15512000000000004  0.61722  0.6145  1.0000
  V   V2        1.0  0.43594  0.50938  0.5015500000000002  1.0000
  O   O10       1.0  0.15910000000000005  0.44944  0.49162  1.0000
  H   H1        1.0  0.29223  0.87462  0.57019  1.0000
  C   C5        1.0  0.06170000000000001  0.59321  0.75099  1.0000
  C   C6        1.0  0.015279999999999998  0.57912  0.8158800000000003  1.0000
  C   C7        1.0  0.0029200000000000003  0.64239  0.88041  1.0000
  C   C8        1.0  0.03713  0.72021  0.88057  1.0000
  C   C9        1.0  0.08364  0.73647  0.81546  1.0000
  C   C10       1.0  0.09596  0.67172  0.74921  1.0000
  C   C11       1.0  0.12078000000000003  0.8155199999999999  0.8159200000000001  1.0000
  C   C12       1.0  0.16934  0.8300500000000001  0.75006  1.0000
  C   C13       1.0  0.18037  0.76554  0.6832300000000001  1.0000
  C   C14       1.0  0.14437000000000005  0.68595  0.6830600000000002  1.0000
  C   C15       1.0  0.20412000000000005  0.90889  0.7494400000000001  1.0000
  C   C16       1.0  0.24914000000000003  0.9242599999999999  0.6852  1.0000
  C   C17       1.0  0.25883000000000006  0.862  0.6200800000000002  1.0000
  C   C18       1.0  0.22427000000000005  0.78359  0.6183100000000002  1.0000
  H   H2        1.0  0.07131000000000003  0.5417100000000001  0.7025200000000001  1.0000
  H   H3        1.0  0.9895200000000002  0.51869  0.81607  1.0000
  H   H4        1.0  0.9675100000000001  0.63112  0.93074  1.0000
  H   H5        1.0  0.027630000000000005  0.76726  0.9323400000000001  1.0000
  H   H6        1.0  0.19575  0.9597999999999999  0.79845  1.0000
  H   H7        1.0  0.27523  0.98498  0.6859  1.0000
  C   C19       1.0  0.9902200000000002  0.62562  0.32086  1.0000
  C   C20       1.0  0.15157000000000004  0.63126  0.36625  1.0000
  C   C21       1.0  0.3058200000000001  0.68146  0.36195  1.0000
  C   C22       1.0  0.29906  0.7264  0.31396  1.0000
  C   C23       1.0  0.13737  0.72024  0.2684200000000001  1.0000
  C   C24       1.0  0.9826600000000002  0.66921  0.27143  1.0000
  C   C25       1.0  0.45162  0.77753  0.31077  1.0000
  C   C26       1.0  0.44537  0.8216399999999999  0.26243  1.0000
  C   C27       1.0  0.28582  0.81589  0.21677  1.0000
  C   C28       1.0  0.13063000000000002  0.76536  0.21987000000000004  1.0000
  C   C29       1.0  0.9690500000000002  0.7599699999999999  0.17453000000000005  1.0000
  C   C30       1.0  0.81757  0.70795  0.17699  1.0000
  C   C31       1.0  0.8240900000000002  0.6628  0.22478000000000004  1.0000
  C   C32       1.0  0.27822  0.86056  0.16870000000000002  1.0000
  C   C33       1.0  0.11471000000000002  0.85907  0.12579  1.0000
  C   C34       1.0  0.9614600000000002  0.8071699999999999  0.12806  1.0000
  H   H8        1.0  0.87177  0.58636  0.32338  1.0000
  H   H9        1.0  0.43059000000000003  0.68632  0.39661000000000013  1.0000
  H   H10       1.0  0.57661  0.78305  0.34539  1.0000
  H   H11       1.0  0.56552  0.8603999999999999  0.26095  1.0000
  H   H12       1.0  0.39898  0.8975  0.16555000000000003  1.0000
  H   H13       1.0  0.8360600000000002  0.80382  0.09402  1.0000
  H   H14       1.0  0.69293  0.70264  0.14224000000000006  1.0000
  C   C35       1.0  0.4678100000000001  0.18860000000000005  0.8696700000000002  1.0000
  C   C36       1.0  0.6222100000000003  0.13709  0.87101  1.0000
  C   C37       1.0  0.7815500000000002  0.13289999999999993  0.82473  1.0000
  C   C38       1.0  0.7862500000000001  0.17778000000000005  0.7765300000000002  1.0000
  C   C39       1.0  0.631  0.22868  0.77514  1.0000
  C   C40       1.0  0.4717800000000001  0.23445000000000005  0.8221500000000002  1.0000
  C   C41       1.0  0.9429500000000001  0.17203000000000007  0.7291100000000003  1.0000
  C   C42       1.0  0.9470900000000002  0.2166  0.68094  1.0000
  C   C43       1.0  0.7941000000000003  0.26814  0.67955  1.0000
  C   C44       1.0  0.6348500000000001  0.27386000000000005  0.7265800000000001  1.0000
  C   C45       1.0  0.4793  0.32470000000000004  0.72512  1.0000
  C   C46       1.0  0.32279000000000013  0.33054  0.7725600000000002  1.0000
  C   C47       1.0  0.31896000000000013  0.2859  0.82056  1.0000
  C   C48       1.0  0.79719  0.31414  0.63223  1.0000
  C   C49       1.0  0.64238  0.36479  0.63033  1.0000
  C   C50       1.0  0.48316  0.36914  0.67658  1.0000
  H   H15       1.0  0.9003700000000002  0.09333000000000004  0.82509  1.0000
  H   H16       1.0  0.06290000000000001  0.13301000000000004  0.7293800000000001  1.0000
  H   H17       1.0  0.9198000000000002  0.31025  0.59641  1.0000
  H   H18       1.0  0.3639  0.40839  0.67589  1.0000
  H   H19       1.0  0.20243000000000005  0.36935  0.77225  1.0000
  H   H20       1.0  0.19516  0.29141  0.85608  1.0000
  H   H21       1.0  0.9215900000000002  0.14784000000000005  0.4267200000000001  1.0000
  C   C51       1.0  0.5158  0.40329  0.25122  1.0000
  C   C52       1.0  0.44885  0.41497999999999996  0.18778  1.0000
  C   C53       1.0  0.43908000000000014  0.35122  0.12366000000000002  1.0000
  C   C54       1.0  0.4951100000000001  0.27525  0.12266000000000002  1.0000
  C   C55       1.0  0.5605200000000001  0.26095  0.18666000000000005  1.0000
  C   C56       1.0  0.57211  0.32655999999999996  0.25214  1.0000
  C   C57       1.0  0.61652  0.18322999999999998  0.18568  1.0000
  C   C58       1.0  0.6845200000000002  0.17105  0.25127  1.0000
  C   C59       1.0  0.70888  0.23877  0.31509000000000004  1.0000
  C   C60       1.0  0.64584  0.31541  0.3162200000000001  1.0000
  C   C61       1.0  0.7292200000000001  0.09387000000000002  0.2567900000000001  1.0000
  C   C62       1.0  0.8233700000000003  0.08752000000000004  0.3186700000000001  1.0000
  C   C63       1.0  0.8553800000000003  0.15415  0.37836  1.0000
  C   C64       1.0  0.79223  0.22818999999999998  0.37798  1.0000
  H   H22       1.0  0.52515  0.4554500000000001  0.29908  1.0000
  H   H23       1.0  0.40632000000000007  0.47404  0.18824  1.0000
  H   H24       1.0  0.38894  0.36069  0.07423  1.0000
  H   H25       1.0  0.4872200000000001  0.22834  0.07085000000000001  1.0000
  H   H26       1.0  0.8618400000000003  0.02975000000000002  0.32287000000000005  1.0000
  H   H27       1.0  0.81063  0.27671  0.42811  1.0000
  O   O11       1.0  0.7752000000000002  0.060470000000000065  0.9378000000000001  1.0000
  O   O12       1.0  0.4411100000000001  0.09371999999999998  0.08735  1.0000
  O   O13       1.0  0.26633000000000007  0.93963  0.06228  1.0000
  C   C65       1.0  0.60961  0.11672999999999999  0.11521000000000002  1.0000
  O   O14       1.0  0.44575  0.06995  0.93982  1.0000
  O   O15       1.0  0.27100000000000013  0.9156999999999998  0.9137  1.0000
  C   C66       1.0  0.6145900000000002  0.08615000000000002  0.91906  1.0000
  O   O16       1.0  0.7705300000000003  0.0844  0.08638  1.0000
  O   O17       1.0  0.60283  0.94951  0.9916800000000001  1.0000
  V   V3        1.0  0.3297100000000001  0.00937  0.00155  1.0000
  O   O18       1.0  0.94099  0.9061700000000001  0.9125700000000001  1.0000
  C   C67       1.0  0.11018  0.8832199999999999  0.88517  1.0000
  O   O19       1.0  0.9363500000000001  0.92994  0.06010000000000001  1.0000
  C   C68       1.0  0.10514000000000003  0.91233  0.07964  1.0000
  V   V4        1.0  0.8291600000000002  0.9904499999999999  0.9983100000000001  1.0000
  O   O20       1.0  0.10591000000000002  0.05048  0.008320000000000001  1.0000
  F   F1        1.0  0.6745200000000002  0.61326  0.22565  1.0000
  F   F2        1.0  0.31459  0.19513  0.91522  1.0000
  F   F3        1.0  0.10107  0.20928  0.63577  1.0000
  C   C69       1.0  0.6570800000000002  0.018339999999999985  0.20541  1.0000
  H   H28       1.0  0.5234  0.017199999999999997  0.17679  1.0000
  O   O21       1.0  0.74158  0.9557100000000001  0.19724000000000005  1.0000
  F   F4        1.0  0.23165000000000005  0.72675  0.5521700000000002  1.0000
