data_image0
_chemical_formula_structural       C60Cr6H37O26NH2CHOCHONH2NH2
_chemical_formula_sum              "C62 Cr6 H45 O28 N3"
_cell_length_a       10.99018
_cell_length_b       11.00172
_cell_length_c       18.75851
_cell_angle_alpha    89.99281
_cell_angle_beta     90.10025
_cell_angle_gamma    60.16748

_space_group_name_H-M_alt    "P 1"
_space_group_IT_number       1

loop_
  _space_group_symop_operation_xyz
  'x, y, z'

loop_
  _atom_site_type_symbol
  _atom_site_label
  _atom_site_symmetry_multiplicity
  _atom_site_fract_x
  _atom_site_fract_y
  _atom_site_fract_z
  _atom_site_occupancy
  C   C1        1.0  0.24125000000000005  0.64466  0.61065  1.0000
  C   C2        1.0  0.6515200000000001  0.56806  0.80046  1.0000
  C   C3        1.0  0.70181  0.67446  0.8113500000000001  1.0000
  C   C4        1.0  0.6718  0.64817  0.67544  1.0000
  C   C5        1.0  0.82507  0.60879  0.69118  1.0000
  C   C6        1.0  0.63358  0.5528  0.72039  1.0000
  C   C7        1.0  0.6822299999999999  0.15254  0.82209  1.0000
  C   C8        1.0  0.7794700000000001  0.17399  0.78449  1.0000
  C   C9        1.0  0.77427  0.18224  0.71018  1.0000
  C   C10       1.0  0.5811500000000002  0.13782  0.7094  1.0000
  C   C11       1.0  0.57582  0.14675  0.7825400000000001  1.0000
  C   C12       1.0  0.6547300000000001  0.62278  0.60021  1.0000
  C   C13       1.0  0.9347  0.0913  0.78618  1.0000
  C   C14       1.0  0.9304900000000002  0.09857  0.7055000000000001  1.0000
  C   C15       1.0  0.6761000000000001  0.16194  0.6716900000000001  1.0000
  C   C16       1.0  0.18394  0.66838  0.83592  1.0000
  C   C17       1.0  0.16176000000000001  0.57383  0.79593  1.0000
  C   C18       1.0  0.17198000000000005  0.56931  0.72191  1.0000
  C   C19       1.0  0.22109999999999996  0.75956  0.72565  1.0000
  C   C20       1.0  0.21948999999999996  0.75916  0.80002  1.0000
  C   C21       1.0  0.24317  0.41835  0.80211  1.0000
  C   C22       1.0  0.25692000000000004  0.4135  0.7214500000000001  1.0000
  C   C23       1.0  0.6305000000000002  0.22516  0.60164  1.0000
  C   C24       1.0  0.20008000000000004  0.6631  0.68556  1.0000
  C   C25       1.0  0.7184399999999999  0.71437  0.18307000000000004  1.0000
  C   C26       1.0  0.8139500000000001  0.59464  0.21943  1.0000
  C   C27       1.0  0.7985099999999998  0.57555  0.29036  1.0000
  C   C28       1.0  0.60192  0.8078  0.29769  1.0000
  C   C29       1.0  0.61901  0.82707  0.22436  1.0000
  C   C30       1.0  0.86376  0.4455299999999999  0.2018  1.0000
  C   C31       1.0  0.8491800000000003  0.4234  0.27988  1.0000
  C   C32       1.0  0.68305  0.6745  0.32883  1.0000
  C   C33       1.0  0.66082  0.15367  0.17754  1.0000
  C   C34       1.0  0.22492  0.64834  0.40022  1.0000
  C   C35       1.0  0.55359  0.15052  0.21449999999999997  1.0000
  C   C36       1.0  0.54902  0.15157  0.28733  1.0000
  C   C37       1.0  0.77168  0.14347  0.29215  1.0000
  C   C38       1.0  0.7753800000000001  0.1466  0.21745000000000003  1.0000
  C   C39       1.0  0.39947000000000005  0.23906  0.2052  1.0000
  C   C40       1.0  0.39198  0.24181  0.2859  1.0000
  C   C41       1.0  0.6520300000000002  0.16095  0.32695  1.0000
  C   C42       1.0  0.16489999999999996  0.65355  0.17870000000000003  1.0000
  C   C43       1.0  0.24917000000000014  0.70091  0.20826  1.0000
  C   C44       1.0  0.2601399999999999  0.70446  0.28074  1.0000
  C   C45       1.0  0.64602  0.62644  0.39428  1.0000
  C   C46       1.0  0.12973  0.58437  0.29627  1.0000
  C   C47       1.0  0.12084000000000003  0.57876  0.22223  1.0000
  C   C48       1.0  0.25263  0.83343  0.19826  1.0000
  C   C49       1.0  0.26174000000000003  0.8391599999999999  0.27886  1.0000
  C   C50       1.0  0.19023  0.6586  0.32593  1.0000
  C   C51       1.0  0.70191  0.10019999999999998  0.8953300000000001  1.0000
  C   C52       1.0  0.72447  0.68882  0.88778  1.0000
  C   C53       1.0  0.11933999999999999  0.70606  0.90633  1.0000
  C   C54       1.0  0.6763000000000002  0.10754  0.10398  1.0000
  C   C55       1.0  0.73391  0.71837  0.10526  1.0000
  C   C56       1.0  0.6173200000000001  0.22740000000000002  0.39589  1.0000
  C   C57       1.0  0.09589000000000003  0.70684  0.11147  1.0000
  C   C58       1.0  0.59412  0.81753  0.77787  1.0000
  C   C59       1.0  0.57422  0.80204  0.69791  1.0000
  C   C60       1.0  0.8429200000000001  0.62315  0.77121  1.0000
  Cr  Cr1       1.0  0.3929600000000001  0.39792  0.50224  1.0000
  Cr  Cr2       1.0  0.39834  0.70848  0.50125  1.0000
  Cr  Cr3       1.0  0.7086700000000001  0.39357  0.49646000000000007  1.0000
  Cr  Cr4       1.0  0.93765  0.93854  0.00761  1.0000
  Cr  Cr5       1.0  0.62533  0.93737  0.99452  1.0000
  Cr  Cr6       1.0  0.9379400000000001  0.62523  0.00119  1.0000
  H   H1        1.0  0.63516  0.89032  0.78449  1.0000
  H   H2        1.0  0.70299  0.44219  0.70503  1.0000
  H   H3        1.0  0.9245400000000001  0.51967  0.79214  1.0000
  H   H4        1.0  0.89777  0.49878  0.67504  1.0000
  H   H5        1.0  0.5007  0.1255  0.68239  1.0000
  H   H6        1.0  0.49393000000000004  0.13425  0.80751  1.0000
  H   H7        1.0  0.97113  0.98475  0.80733  1.0000
  H   H8        1.0  0.9819200000000001  0.14991  0.81108  1.0000
  H   H9        1.0  0.9757800000000001  0.16123  0.68351  1.0000
  H   H10       1.0  0.96745  0.9954400000000001  0.67934  1.0000
  H   H11       1.0  0.24641  0.83175  0.69942  1.0000
  H   H12       1.0  0.49194000000000004  0.8632799999999999  0.80567  1.0000
  H   H13       1.0  0.17790000000000006  0.37594  0.82403  1.0000
  H   H14       1.0  0.3438600000000001  0.3827  0.8307600000000002  1.0000
  H   H15       1.0  0.36392  0.37975  0.70208  1.0000
  H   H16       1.0  0.5189400000000001  0.8919799999999999  0.32771  1.0000
  H   H17       1.0  0.5476  0.92449  0.19887  1.0000
  H   H18       1.0  0.97391  0.3882  0.18275  1.0000
  H   H19       1.0  0.78686  0.43435  0.16784  1.0000
  H   H20       1.0  0.7661200000000001  0.39622  0.29028  1.0000
  H   H21       1.0  0.4625400000000001  0.83415  0.68781  1.0000
  H   H22       1.0  0.9510200000000001  0.35632  0.3071400000000001  1.0000
  H   H23       1.0  0.8540300000000001  0.14564  0.32304  1.0000
  H   H24       1.0  0.3525  0.18115  0.17918  1.0000
  H   H25       1.0  0.37009  0.34224  0.18101  1.0000
  H   H26       1.0  0.35397  0.3465  0.30973  1.0000
  H   H27       1.0  0.08972000000000001  0.53201  0.3298  1.0000
  H   H28       1.0  0.07041000000000003  0.52595  0.19928  1.0000
  H   H29       1.0  0.15721999999999997  0.92025  0.17493  1.0000
  H   H30       1.0  0.5990499999999999  0.87237  0.66627  1.0000
  H   H31       1.0  0.3615300000000001  0.82533  0.29929  1.0000
  H   H32       1.0  0.16662  0.9266099999999999  0.30363  1.0000
  H   H33       1.0  0.88018  0.69942  0.77953  1.0000
  H   H34       1.0  0.85363  0.67753  0.66045  1.0000
  H   H35       1.0  0.7291800000000003  0.46455  0.82324  1.0000
  H   H36       1.0  0.55036  0.60318  0.82836  1.0000
  H   H37       1.0  0.52378  0.57847  0.70938  1.0000
  O   O1        1.0  0.5073800000000003  0.2557  0.58144  1.0000
  O   O2        1.0  0.52448  0.69581  0.42404  1.0000
  O   O3        1.0  0.73639  0.50429  0.41479  1.0000
  O   O4        1.0  0.6912999999999999  0.27729  0.42217000000000005  1.0000
  O   O5        1.0  0.4999900000000001  0.49999  0.49998  1.0000
  O   O6        1.0  0.0894  0.82569  0.9305700000000001  1.0000
  O   O7        1.0  0.81846  0.05444  0.92985  1.0000
  O   O8        1.0  0.6060600000000002  0.07715  0.91551  1.0000
  O   O9        1.0  0.64655  0.80668  0.91757  1.0000
  O   O10       1.0  0.83717  0.59341  0.9152500000000001  1.0000
  O   O11       1.0  0.06520000000000002  0.63553  0.93157  1.0000
  O   O12       1.0  0.28031999999999996  0.52735  0.57893  1.0000
  O   O13       1.0  0.06825999999999997  0.82889  0.09184  1.0000
  O   O14       1.0  0.79887  0.05741  0.07934  1.0000
  O   O15       1.0  0.5849299999999998  0.08035  0.07678  1.0000
  O   O16       1.0  0.6269599999999999  0.80965  0.06706  1.0000
  O   O17       1.0  0.81604  0.59661  0.07651  1.0000
  O   O18       1.0  0.045609999999999984  0.6385  0.08106  1.0000
  O   O19       1.0  0.8336400000000002  0.83371  0.0011  1.0000
  O   O20       1.0  0.26051  0.73959  0.58459  1.0000
  O   O21       1.0  0.5322999999999999  0.69508  0.57382  1.0000
  O   O22       1.0  0.74484  0.5035  0.57637  1.0000
  O   O23       1.0  0.69912  0.27656  0.57196  1.0000
  O   O24       1.0  0.49894  0.2565  0.41986  1.0000
  O   O25       1.0  0.2725000000000001  0.52808  0.42915  1.0000
  O   O26       1.0  0.25206  0.74038  0.42301  1.0000
  N   N1        1.0  0.24667000000000003  0.8558799999999999  0.83894  1.0000
  H   H38       1.0  0.25991000000000003  0.92295  0.80443  1.0000
  H   H39       1.0  0.33992999999999995  0.79786  0.86742  1.0000
  C   C61       1.0  0.18580000000000002  0.34623  0.68271  1.0000
  H   H40       1.0  0.14647  0.38015  0.62906  1.0000
  O   O27       1.0  0.17592000000000002  0.25053  0.70972  1.0000
  C   C62       1.0  0.8929600000000002  0.15614  0.1842  1.0000
  H   H41       1.0  0.8888  0.18763  0.12916  1.0000
  O   O28       1.0  0.9938200000000001  0.1379  0.21970999999999996  1.0000
  N   N2        1.0  0.3222999999999999  0.1678  0.31307  1.0000
  H   H42       1.0  0.21516000000000002  0.23004999999999998  0.30236  1.0000
  H   H43       1.0  0.33274  0.16231  0.36854  1.0000
  N   N3        1.0  0.37978999999999996  0.80865  0.16182  1.0000
  H   H44       1.0  0.38390000000000024  0.76178  0.11270000000000001  1.0000
  H   H45       1.0  0.36658  0.90711  0.14943000000000004  1.0000
