data_image0
_chemical_formula_structural       C22Cl4Cu2H8N2O8
_chemical_formula_sum              "C22 Cl4 Cu2 H8 N2 O8"
_cell_length_a       15.00041
_cell_length_b       8.67378
_cell_length_c       7.453009999999999
_cell_angle_alpha    102.92070000000001
_cell_angle_beta     93.91683999999998
_cell_angle_gamma    92.46768

_symmetry_space_group_name_H-M    'P 1'
_symmetry_Int_Tables_number       1

loop_
  _symmetry_equiv_pos_as_xyz
  'x,y,z'

loop_
  _atom_site_type_symbol
  _atom_site_label
  _atom_site_symmetry_multiplicity
  _atom_site_fract_x
  _atom_site_fract_y
  _atom_site_fract_z
  _atom_site_occupancy
  C   C1        1.0  0.49715  0.19977  0.45331  1.0000
  C   C2        1.0  0.18251  0.35474  0.4611400000000001  1.0000
  C   C3        1.0  0.7667  0.50046  0.4910200000000001  1.0000
  C   C4        1.0  0.23331  0.49953999999999993  0.5089800000000002  1.0000
  C   C5        1.0  0.80704  0.35558000000000006  0.4443100000000001  1.0000
  C   C6        1.0  0.19296  0.64442  0.55568  1.0000
  C   C7        1.0  0.90066  0.3546500000000001  0.4485400000000001  1.0000
  C   C8        1.0  0.09934  0.64535  0.55146  1.0000
  C   C9        1.0  0.95288  0.50012  0.49749000000000004  1.0000
  C   C10       1.0  0.04713  0.49988  0.50251  1.0000
  C   C11       1.0  0.91111  0.64583  0.5416700000000002  1.0000
  C   C12       1.0  0.50285  0.8002300000000001  0.5466900000000002  1.0000
  C   C13       1.0  0.08889  0.35417  0.4583300000000001  1.0000
  C   C14       1.0  0.9433800000000001  0.21163000000000004  0.4063500000000001  1.0000
  C   C15       1.0  0.05662  0.78837  0.59366  1.0000
  C   C16       1.0  0.03597  0.21139  0.4112900000000001  1.0000
  C   C17       1.0  0.96403  0.7886100000000001  0.5887100000000002  1.0000
  C   C18       1.0  0.49579  0.03181000000000002  0.4270600000000001  1.0000
  C   C19       1.0  0.50421  0.96819  0.5729400000000001  1.0000
  C   C20       1.0  0.32935  0.4996499999999999  0.5028500000000002  1.0000
  C   C21       1.0  0.6706500000000001  0.50035  0.4971500000000001  1.0000
  C   C22       1.0  0.81749  0.6452600000000001  0.5388600000000002  1.0000
  Cl  Cl1       1.0  0.7621500000000001  0.82468  0.5950100000000003  1.0000
  Cl  Cl2       1.0  0.23785  0.17532  0.40499  1.0000
  Cl  Cl3       1.0  0.73883  0.17638  0.38443  1.0000
  Cl  Cl4       1.0  0.26117  0.82362  0.6155700000000002  1.0000
  Cu  Cu1       1.0  0.51001  0.51738  0.68438  1.0000
  Cu  Cu2       1.0  0.48999  0.48262000000000005  0.3156200000000001  1.0000
  H   H1        1.0  0.90599  0.09812  0.36921  1.0000
  H   H2        1.0  0.09401  0.9018800000000001  0.6307900000000002  1.0000
  H   H3        1.0  0.06525  0.09772  0.3774500000000001  1.0000
  H   H4        1.0  0.93475  0.90228  0.6225500000000002  1.0000
  H   H5        1.0  0.48794  0.9602100000000001  0.2864800000000001  1.0000
  H   H6        1.0  0.51206  0.039790000000000054  0.7135200000000003  1.0000
  H   H7        1.0  0.4301  0.37778  0.9487800000000001  1.0000
  H   H8        1.0  0.5699  0.62222  0.051220000000000016  1.0000
  N   N1        1.0  0.47489  0.45642  0.03852000000000001  1.0000
  N   N2        1.0  0.52511  0.54358  0.9614800000000002  1.0000
  O   O1        1.0  0.50651  0.28613  0.61977  1.0000
  O   O2        1.0  0.49349  0.71387  0.38023  1.0000
  O   O3        1.0  0.48960000000000004  0.25677  0.30836  1.0000
  O   O4        1.0  0.5104  0.74323  0.6916400000000003  1.0000
  O   O5        1.0  0.37871  0.51464  0.65572  1.0000
  O   O6        1.0  0.62129  0.48536  0.34428  1.0000
  O   O7        1.0  0.3618  0.48529  0.3443000000000001  1.0000
  O   O8        1.0  0.6382  0.51471  0.6557  1.0000
