data_image0
_chemical_formula_structural       C70Cr6H40O26NHCH3NHCH3
_chemical_formula_sum              "C72 Cr6 H48 O26 N2"
_cell_length_a       10.85295
_cell_length_b       11.02814
_cell_length_c       18.82774
_cell_angle_alpha    90.0016
_cell_angle_beta     89.61877
_cell_angle_gamma    60.093160000000005

_space_group_name_H-M_alt    "P 1"
_space_group_IT_number       1

loop_
  _space_group_symop_operation_xyz
  'x, y, z'

loop_
  _atom_site_type_symbol
  _atom_site_label
  _atom_site_symmetry_multiplicity
  _atom_site_fract_x
  _atom_site_fract_y
  _atom_site_fract_z
  _atom_site_occupancy
  C   C1        1.0  0.23494999999999983  0.64581  0.60966  1.0000
  C   C2        1.0  0.7251999999999997  0.51668  0.80025  1.0000
  C   C3        1.0  0.6942399999999999  0.66693  0.81524  1.0000
  C   C4        1.0  0.6651899999999998  0.63936  0.67976  1.0000
  C   C5        1.0  0.7834  0.67579  0.69034  1.0000
  C   C6        1.0  0.7038  0.50178  0.72081  1.0000
  C   C7        1.0  0.7221  0.08501  0.81239  1.0000
  C   C8        1.0  0.8208499999999997  0.11253  0.77548  1.0000
  C   C9        1.0  0.8107499999999999  0.12602  0.70021  1.0000
  C   C10       1.0  0.59983  0.10366  0.70208  1.0000
  C   C11       1.0  0.6165399999999999  0.07701  0.77348  1.0000
  C   C12       1.0  0.65019  0.61638  0.60367  1.0000
  C   C13       1.0  0.92716  0.12998  0.80936  1.0000
  C   C14       1.0  0.02945  0.14215  0.76975  1.0000
  C   C15       1.0  0.029470000000000003  0.13561  0.69608  1.0000
  C   C16       1.0  0.9219399999999999  0.12678  0.66153  1.0000
  C   C17       1.0  0.6889399999999999  0.13937  0.6658  1.0000
  C   C18       1.0  0.18328  0.67064  0.83417  1.0000
  C   C19       1.0  0.2124  0.54537  0.79967  1.0000
  C   C20       1.0  0.19721999999999987  0.54558  0.72474  1.0000
  C   C21       1.0  0.1742199999999999  0.77634  0.72101  1.0000
  C   C22       1.0  0.17413999999999993  0.7809  0.79397  1.0000
  C   C23       1.0  0.63294  0.22090000000000004  0.60031  1.0000
  C   C24       1.0  0.26076999999999995  0.41872999999999994  0.83764  1.0000
  C   C25       1.0  0.26508  0.30384  0.804  1.0000
  C   C26       1.0  0.23173999999999997  0.31032  0.7326  1.0000
  C   C27       1.0  0.1969799999999999  0.42962000000000006  0.6932  1.0000
  C   C28       1.0  0.18747000000000008  0.65986  0.68463  1.0000
  C   C29       1.0  0.64124  0.66767  0.16441  1.0000
  C   C30       1.0  0.6918799999999999  0.52973  0.1877  1.0000
  C   C31       1.0  0.70998  0.50186  0.26117  1.0000
  C   C32       1.0  0.5713599999999998  0.75246  0.28471  1.0000
  C   C33       1.0  0.58366  0.77779  0.21353  1.0000
  C   C34       1.0  0.21830999999999995  0.65276  0.40209  1.0000
  C   C35       1.0  0.74143  0.4167  0.13883  1.0000
  C   C36       1.0  0.84939  0.28572  0.15971  1.0000
  C   C37       1.0  0.8868099999999999  0.26196  0.23056  1.0000
  C   C38       1.0  0.8100499999999998  0.36377  0.28158  1.0000
  C   C39       1.0  0.63439  0.61491  0.30986  1.0000
  C   C40       1.0  0.67341  0.10312  0.18411  1.0000
  C   C41       1.0  0.53529  0.18123  0.21286  1.0000
  C   C42       1.0  0.5209699999999999  0.17748  0.28617  1.0000
  C   C43       1.0  0.7769899999999998  0.07843  0.30008  1.0000
  C   C44       1.0  0.7927099999999999  0.04482  0.22854  1.0000
  C   C45       1.0  0.6186699999999999  0.59079  0.38543  1.0000
  C   C46       1.0  0.41082  0.25482  0.17143  1.0000
  C   C47       1.0  0.27926999999999996  0.28712  0.19878  1.0000
  C   C48       1.0  0.26699  0.26082  0.26948  1.0000
  C   C49       1.0  0.38635999999999987  0.20415  0.31279  1.0000
  C   C50       1.0  0.6413299999999998  0.15166  0.32878  1.0000
  C   C51       1.0  0.14734000000000003  0.67274  0.18451  1.0000
  C   C52       1.0  0.19953999999999997  0.75326  0.21708  1.0000
  C   C53       1.0  0.17075000000000004  0.78289  0.28926  1.0000
  C   C54       1.0  0.11039999999999997  0.5992  0.30024  1.0000
  C   C55       1.0  0.09603999999999997  0.60211  0.22695000000000004  1.0000
  C   C56       1.0  0.6178499999999999  0.22294  0.39694  1.0000
  C   C57       1.0  0.25951  0.82168  0.17823  1.0000
  C   C58       1.0  0.26395  0.93524  0.20745  1.0000
  C   C59       1.0  0.21805000000000002  0.9755699999999999  0.27678  1.0000
  C   C60       1.0  0.16618  0.9047399999999999  0.31626  1.0000
  C   C61       1.0  0.15215999999999993  0.6867  0.33204  1.0000
  C   C62       1.0  0.72732  0.04809  0.88829  1.0000
  C   C63       1.0  0.7191899999999999  0.6849  0.8903  1.0000
  C   C64       1.0  0.11971999999999997  0.70613  0.9058299999999999  1.0000
  C   C65       1.0  0.69609  0.05439999999999999  0.1117  1.0000
  C   C66       1.0  0.69323  0.69032  0.09674  1.0000
  C   C67       1.0  0.5388499999999999  0.76903  0.79264  1.0000
  C   C68       1.0  0.09455999999999999  0.7085  0.11245000000000001  1.0000
  C   C69       1.0  0.52445  0.75893  0.71201  1.0000
  C   C70       1.0  0.7994499999999999  0.69366  0.77006  1.0000
  Cr  Cr1       1.0  0.39294  0.39795  0.50223  1.0000
  Cr  Cr2       1.0  0.3984  0.7085  0.50126  1.0000
  Cr  Cr3       1.0  0.7086399999999999  0.39353  0.49645999999999996  1.0000
  Cr  Cr4       1.0  0.93788  0.93832  0.00762  1.0000
  Cr  Cr5       1.0  0.62556  0.93722  0.99451  1.0000
  Cr  Cr6       1.0  0.93808  0.62501  0.00119  1.0000
  H   H1        1.0  0.50496  0.87841  0.80699  1.0000
  H   H2        1.0  0.8036099999999999  0.41334  0.69914  1.0000
  H   H3        1.0  0.91098  0.61916  0.78556  1.0000
  H   H4        1.0  0.88575  0.59119  0.66824  1.0000
  H   H5        1.0  0.5105  0.10462  0.67622  1.0000
  H   H6        1.0  0.93477  0.13619  0.8658699999999999  1.0000
  H   H7        1.0  0.54182  0.05363  0.79892  1.0000
  H   H8        1.0  0.1122  0.15091  0.79673  1.0000
  H   H9        1.0  0.11357999999999992  0.13471  0.66487  1.0000
  H   H10       1.0  0.92968  0.11608  0.60437  1.0000
  H   H11       1.0  0.1716799999999999  0.8626400000000001  0.69287  1.0000
  H   H12       1.0  0.4654399999999998  0.74206  0.82101  1.0000
  H   H13       1.0  0.16266999999999995  0.8739300000000001  0.81918  1.0000
  H   H14       1.0  0.30083999999999994  0.20677  0.83243  1.0000
  H   H15       1.0  0.24146  0.21912  0.70661  1.0000
  H   H16       1.0  0.16777999999999996  0.42962000000000006  0.63854  1.0000
  H   H17       1.0  0.52045  0.8407300000000001  0.3208  1.0000
  H   H18       1.0  0.55166  0.88359  0.19723  1.0000
  H   H19       1.0  0.90244  0.20151  0.12170000000000002  1.0000
  H   H20       1.0  0.96804  0.16022  0.24676  1.0000
  H   H21       1.0  0.43637000000000004  0.73793  0.70171  1.0000
  H   H22       1.0  0.83945  0.33136  0.33542  1.0000
  H   H23       1.0  0.8691599999999999  0.04962  0.33263  1.0000
  H   H24       1.0  0.41259  0.28669  0.11746000000000001  1.0000
  H   H25       1.0  0.8986899999999999  0.98021  0.207  1.0000
  H   H26       1.0  0.18726  0.33127  0.1647  1.0000
  H   H27       1.0  0.16403999999999994  0.2865  0.29101  1.0000
  H   H28       1.0  0.3714199999999999  0.17675  0.36596  1.0000
  H   H29       1.0  0.08639999999999999  0.53175  0.33211  1.0000
  H   H30       1.0  0.29579  0.79288  0.12392  1.0000
  H   H31       1.0  0.04201000000000002  0.55184  0.20377  1.0000
  H   H32       1.0  0.49683999999999995  0.86055  0.68671  1.0000
  H   H33       1.0  0.3014800000000001  0.99274  0.1761  1.0000
  H   H34       1.0  0.21947  0.063  0.30058  1.0000
  H   H35       1.0  0.12078999999999998  0.94794  0.36779  1.0000
  H   H36       1.0  0.78161  0.80017  0.78039  1.0000
  H   H37       1.0  0.7570399999999999  0.77412  0.6618  1.0000
  H   H38       1.0  0.83644  0.43916  0.81481  1.0000
  H   H39       1.0  0.6535799999999999  0.49312000000000006  0.83253  1.0000
  H   H40       1.0  0.61831  0.47486  0.71416  1.0000
  O   O1        1.0  0.5073400000000001  0.25569  0.58143  1.0000
  O   O2        1.0  0.52451  0.69582  0.42405  1.0000
  O   O3        1.0  0.7363699999999999  0.50426  0.41481  1.0000
  O   O4        1.0  0.6912200000000001  0.27727  0.42218  1.0000
  O   O5        1.0  0.49998999999999993  0.49998999999999993  0.49998  1.0000
  O   O6        1.0  0.08957  0.82545  0.9305899999999999  1.0000
  O   O7        1.0  0.8187  0.05426  0.92986  1.0000
  O   O8        1.0  0.60631  0.07701  0.9155200000000001  1.0000
  O   O9        1.0  0.6467299999999999  0.80654  0.91756  1.0000
  O   O10       1.0  0.8372899999999999  0.59324  0.91524  1.0000
  O   O11       1.0  0.06531999999999998  0.63531  0.93158  1.0000
  O   O12       1.0  0.28036  0.52738  0.57891  1.0000
  O   O13       1.0  0.06846999999999996  0.82862  0.09185  1.0000
  O   O14       1.0  0.7991499999999999  0.0572  0.07935  1.0000
  O   O15       1.0  0.58522  0.08018  0.07677  1.0000
  O   O16       1.0  0.62717  0.80948  0.06705  1.0000
  O   O17       1.0  0.8162000000000003  0.59641  0.0765  1.0000
  O   O18       1.0  0.045770000000000026  0.63824  0.08107  1.0000
  O   O19       1.0  0.8338399999999998  0.83352  0.00111  1.0000
  O   O20       1.0  0.2605999999999999  0.73961  0.58458  1.0000
  O   O21       1.0  0.53237  0.69505  0.57383  1.0000
  O   O22       1.0  0.7448499999999999  0.50343  0.57638  1.0000
  O   O23       1.0  0.6990799999999999  0.2765  0.57195  1.0000
  O   O24       1.0  0.49885999999999997  0.25652  0.41986  1.0000
  O   O25       1.0  0.27248999999999995  0.52815  0.42914  1.0000
  O   O26       1.0  0.25211  0.74044  0.42301  1.0000
  N   N1        1.0  0.32850999999999997  0.39867  0.90461  1.0000
  H   H41       1.0  0.33849  0.31412  0.9329  1.0000
  C   C71       1.0  0.4595399999999997  0.40354  0.90097  1.0000
  H   H42       1.0  0.5308799999999999  0.34223  0.94481  1.0000
  H   H43       1.0  0.4361299999999999  0.51331  0.9049999999999999  1.0000
  H   H44       1.0  0.5174899999999999  0.35804  0.85028  1.0000
  N   N2        1.0  0.68489  0.43576999999999994  0.06898  1.0000
  H   H45       1.0  0.74135  0.35504  0.0335  1.0000
  C   C72       1.0  0.53221  0.49457  0.06516  1.0000
  H   H46       1.0  0.4908900000000001  0.56605  0.01906  1.0000
  H   H47       1.0  0.47629000000000005  0.55487  0.1135  1.0000
  H   H48       1.0  0.50695  0.40945  0.05951  1.0000
