data_image0
_chemical_formula_structural       C70Cr6F13H29O26
_chemical_formula_sum              "C70 Cr6 F13 H29 O26"
_cell_length_a       11.0468
_cell_length_b       11.13281
_cell_length_c       18.75976
_cell_angle_alpha    90.17172
_cell_angle_beta     90.27084
_cell_angle_gamma    59.61132

_symmetry_space_group_name_H-M    'P 1'
_symmetry_Int_Tables_number       1

loop_
  _symmetry_equiv_pos_as_xyz
  'x,y,z'

loop_
  _atom_site_type_symbol
  _atom_site_label
  _atom_site_symmetry_multiplicity
  _atom_site_fract_x
  _atom_site_fract_y
  _atom_site_fract_z
  _atom_site_occupancy
  C   C1        1.0  0.35741999999999996  0.77537  0.39785  1.0000
  C   C2        1.0  0.22403999999999993  0.40376  0.20455  1.0000
  C   C3        1.0  0.22865  0.41151  0.27762  1.0000
  C   C4        1.0  0.38549000000000005  0.35470999999999997  0.38774  1.0000
  C   C5        1.0  0.85956  0.74435  0.37559999999999993  1.0000
  C   C6        1.0  0.8467399999999998  0.64336  0.33762999999999993  1.0000
  C   C7        1.0  0.96488  0.53289  0.30514  1.0000
  C   C8        1.0  0.09659999999999996  0.52224  0.31155  1.0000
  C   C9        1.0  0.36342  0.3432  0.31128  1.0000
  C   C10       1.0  0.84427  0.34085  0.17984  1.0000
  C   C11       1.0  0.91807  0.24356999999999998  0.23251999999999998  1.0000
  C   C12       1.0  0.6105799999999999  0.20672  0.15043  1.0000
  C   C13       1.0  0.87232  0.26259  0.30175  1.0000
  C   C14       1.0  0.66661  0.47794  0.26747  1.0000
  C   C15       1.0  0.7128100000000002  0.45611  0.19637  1.0000
  C   C16       1.0  0.7134199999999999  0.41518  0.39532  1.0000
  C   C17       1.0  0.06755  0.1811  0.2537  1.0000
  C   C18       1.0  0.018930000000000002  0.1916  0.33049  1.0000
  C   C19       1.0  0.7537400000000001  0.38728999999999997  0.32138  1.0000
  C   C20       1.0  0.35178000000000004  0.8337  0.17622  1.0000
  C   C21       1.0  0.45596000000000003  0.8382399999999999  0.21675  1.0000
  C   C22       1.0  0.45464999999999994  0.83659  0.2918899999999999  1.0000
  C   C23       1.0  0.3463  0.33084  0.16374  1.0000
  C   C24       1.0  0.23209000000000005  0.85014  0.28579  1.0000
  C   C25       1.0  0.25061  0.81875  0.2139  1.0000
  C   C26       1.0  0.50289  0.93998  0.21208  1.0000
  C   C27       1.0  0.49467000000000005  0.9472799999999999  0.29224  1.0000
  C   C28       1.0  0.34613000000000005  0.7668099999999999  0.60473  1.0000
  C   C29       1.0  0.3402600000000001  0.8418899999999999  0.32764  1.0000
  C   C30       1.0  0.30244  0.30733  0.8093  1.0000
  C   C31       1.0  0.37063  0.18907  0.7658899999999998  1.0000
  C   C32       1.0  0.37533  0.19885  0.69304  1.0000
  C   C33       1.0  0.22842000000000007  0.44881  0.7032599999999999  1.0000
  C   C34       1.0  0.48675999999999997  0.27971  0.26894  1.0000
  C   C35       1.0  0.22355000000000005  0.43723  0.7771  1.0000
  C   C36       1.0  0.5183  0.07052  0.76935  1.0000
  C   C37       1.0  0.52021  0.07374  0.68897  1.0000
  C   C38       1.0  0.3158299999999999  0.33018  0.66151  1.0000
  C   C39       1.0  0.79987  0.34970999999999997  0.83913  1.0000
  C   C40       1.0  0.36873  0.35052  0.59503  1.0000
  C   C41       1.0  0.7907799999999999  0.46185000000000004  0.8001899999999998  1.0000
  C   C42       1.0  0.779  0.46624  0.72781  1.0000
  C   C43       1.0  0.7452  0.2703999999999999  0.72933  1.0000
  C   C44       1.0  0.7574299999999999  0.26534  0.80461  1.0000
  C   C45       1.0  0.4801  0.27375  0.19508999999999999  1.0000
  C   C46       1.0  0.88471  0.5231099999999999  0.79686  1.0000
  C   C47       1.0  0.86997  0.52731  0.71684  1.0000
  C   C48       1.0  0.77079  0.36372  0.69003  1.0000
  C   C49       1.0  0.29552  0.84799  0.8254199999999999  1.0000
  C   C50       1.0  0.18088000000000004  0.91773  0.7793099999999998  1.0000
  C   C51       1.0  0.19565  0.90061  0.70656  1.0000
  C   C52       1.0  0.7502699999999999  0.38362  0.61331  1.0000
  C   C53       1.0  0.44566000000000006  0.7612099999999999  0.72252  1.0000
  C   C54       1.0  0.4297700000000001  0.77317  0.79637  1.0000
  C   C55       1.0  0.0452600000000001  0.9196799999999999  0.77737  1.0000
  C   C56       1.0  0.09753999999999996  0.63932  0.33455  1.0000
  C   C57       1.0  0.061630000000000025  0.90027  0.69736  1.0000
  C   C58       1.0  0.32752000000000003  0.81773  0.6770399999999999  1.0000
  C   C59       1.0  0.9082700000000001  0.31682  0.11053999999999999  1.0000
  C   C60       1.0  0.32662  0.29338  0.09249  1.0000
  C   C61       1.0  0.30844  0.89684  0.10504  1.0000
  C   C62       1.0  0.87805  0.31295  0.9064999999999999  1.0000
  C   C63       1.0  0.2949199999999999  0.28613  0.8847600000000001  1.0000
  C   C64       1.0  0.8119  0.05115  0.04608  1.0000
  C   C65       1.0  0.27563000000000004  0.89322  0.8986399999999999  1.0000
  C   C66       1.0  0.82671  0.99774  0.11479  1.0000
  C   C67       1.0  0.98349  0.74718  0.3708  1.0000
  C   C68       1.0  0.72738  0.07471  0.16715  1.0000
  C   C69       1.0  0.60915  0.26642  0.08407  1.0000
  C   C70       1.0  0.70517  0.18691  0.03134  1.0000
  Cr  Cr1       1.0  0.60174  0.60684  0.50584  1.0000
  Cr  Cr2       1.0  0.2915  0.60156  0.49507000000000007  1.0000
  Cr  Cr3       1.0  0.60678  0.29163  0.49912999999999996  1.0000
  Cr  Cr4       1.0  0.06244  0.06306  0.00824  1.0000
  Cr  Cr5       1.0  0.06295000000000002  0.375  0.99892  1.0000
  Cr  Cr6       1.0  0.37455000000000005  0.06177  0.9924699999999999  1.0000
  F   F1        1.0  0.6142999999999998  0.23358999999999996  0.2993199999999999  1.0000
  F   F2        1.0  0.79588  0.66209  0.69091  1.0000
  F   F3        1.0  0.05115000000000005  0.80826  0.81241  1.0000
  F   F4        1.0  0.74287  0.01543  0.23208  1.0000
  F   F5        1.0  0.21365  0.64211  0.31855  1.0000
  F   F6        1.0  0.75119  0.84219  0.41457  1.0000
  F   F7        1.0  0.6327800000000002  0.54785  0.14496999999999996  1.0000
  F   F8        1.0  0.046940000000000016  0.27693  0.37254  1.0000
  F   F9        1.0  0.63834  0.87403  0.18618  1.0000
  F   F10       1.0  0.14946  0.55254  0.8174  1.0000
  F   F11       1.0  0.5285000000000001  0.9509899999999999  0.79602  1.0000
  F   F12       1.0  0.99064  0.8545800000000001  0.40039  1.0000
  F   F13       1.0  0.74015  0.17188  0.84262  1.0000
  H   H1        1.0  0.74557  0.65141  0.33314  1.0000
  H   H2        1.0  0.59103  0.09799  0.79526  1.0000
  H   H3        1.0  0.5197500000000003  0.9835199999999998  0.66363  1.0000
  H   H4        1.0  0.96829  0.45766  0.6875  1.0000
  H   H5        1.0  0.5217  0.72649  0.83052  1.0000
  H   H6        1.0  0.95839  0.02009  0.79428  1.0000
  H   H7        1.0  0.8857199999999998  0.98902  0.00494  1.0000
  H   H8        1.0  0.07662999999999999  0.7987  0.67912  1.0000
  H   H9        1.0  0.9821099999999998  0.99249  0.6670699999999999  1.0000
  H   H10       1.0  0.91301  0.8945499999999998  0.12693  1.0000
  H   H11       1.0  0.12140000000000004  0.4554099999999999  0.17938  1.0000
  H   H12       1.0  0.95199  0.45982  0.27391  1.0000
  H   H13       1.0  0.11244000000000003  0.24731999999999998  0.24102999999999997  1.0000
  H   H14       1.0  0.048540000000000014  0.09113999999999998  0.35642  1.0000
  H   H15       1.0  0.69462  0.2304  0.9787599999999999  1.0000
  H   H16       1.0  0.16664000000000007  0.8130799999999999  0.18697  1.0000
  H   H17       1.0  0.60246  0.09340999999999999  0.66879  1.0000
  H   H18       1.0  0.7214000000000002  0.19927  0.70222  1.0000
  H   H19       1.0  0.99263  0.44754999999999995  0.81428  1.0000
  H   H20       1.0  0.83668  0.62774  0.82213  1.0000
  H   H21       1.0  0.5498  0.70024  0.70119  1.0000
  H   H22       1.0  0.52536  0.37028  0.07069  1.0000
  H   H23       1.0  0.5658500000000001  0.56606  0.28087  1.0000
  H   H24       1.0  0.12817  0.0782  0.23035999999999998  1.0000
  H   H25       1.0  0.13447000000000003  0.87166  0.30941  1.0000
  H   H26       1.0  0.42831  0.03899  0.18522999999999998  1.0000
  H   H27       1.0  0.5974000000000002  0.9131599999999999  0.31707  1.0000
  H   H28       1.0  0.40893  0.04903  0.3124  1.0000
  H   H29       1.0  0.17609  0.55212  0.68035  1.0000
  O   O1        1.0  0.7486699999999998  0.4975200000000001  0.42797  1.0000
  O   O2        1.0  0.41747  0.17491  0.06783  1.0000
  O   O3        1.0  0.37516  0.94638  0.07088  1.0000
  O   O4        1.0  0.47647  0.72393  0.42944999999999994  1.0000
  O   O5        1.0  0.16050000000000006  0.9196699999999999  0.9266899999999999  1.0000
  O   O6        1.0  0.93314  0.19037999999999997  0.93605  1.0000
  O   O7        1.0  0.9090099999999999  0.40321  0.92503  1.0000
  O   O8        1.0  0.17958999999999997  0.36129  0.91848  1.0000
  O   O9        1.0  0.39135999999999993  0.17084  0.90751  1.0000
  O   O10       1.0  0.35095  0.9425999999999999  0.9222599999999999  1.0000
  O   O11       1.0  0.16665  0.16661  0.99988  1.0000
  O   O12       1.0  0.30017000000000005  0.47102  0.56712  1.0000
  O   O13       1.0  0.26473  0.74414  0.41674  1.0000
  O   O14       1.0  0.30944  0.47241  0.41822  1.0000
  O   O15       1.0  0.50163  0.26053  0.41431  1.0000
  O   O16       1.0  0.7279199999999999  0.30573  0.42894999999999994  1.0000
  O   O17       1.0  0.7386700000000002  0.49601999999999996  0.5886  1.0000
  O   O18       1.0  0.46718999999999994  0.72254  0.57835  1.0000
  O   O19       1.0  0.25472000000000006  0.74264  0.5773699999999999  1.0000
  O   O20       1.0  0.49163  0.25903  0.5749399999999999  1.0000
  O   O21       1.0  0.71864  0.30434  0.57785  1.0000
  O   O22       1.0  0.50001  0.50001  0.50002  1.0000
  O   O23       1.0  0.18662  0.92375  0.087  1.0000
  O   O24       1.0  0.95735  0.19416  0.08466  1.0000
  O   O25       1.0  0.9351200000000001  0.4072799999999999  0.08535  1.0000
  O   O26       1.0  0.20380000000000006  0.36505999999999994  0.06709  1.0000
