data_image0
_chemical_formula_structural       C112Cr12H56O53HOHOHOHOHOHOHOHC3H7C3H7C3H7C3H7
_chemical_formula_sum              "C124 Cr12 H92 O60"
_cell_length_a       19.16349
_cell_length_b       10.95928
_cell_length_c       18.68304
_cell_angle_alpha    89.76197
_cell_angle_beta     89.56925999999999
_cell_angle_gamma    89.75094999999999

_space_group_name_H-M_alt    "P 1"
_space_group_IT_number       1

loop_
  _space_group_symop_operation_xyz
  'x, y, z'

loop_
  _atom_site_type_symbol
  _atom_site_label
  _atom_site_symmetry_multiplicity
  _atom_site_fract_x
  _atom_site_fract_y
  _atom_site_fract_z
  _atom_site_occupancy
  C   C1        1.0  0.7097599999999998  0.99937  0.86129  1.0000
  C   C2        1.0  0.29005  0.99941  0.1385  1.0000
  C   C3        1.0  0.20976  0.4993699999999999  0.86129  1.0000
  C   C4        1.0  0.7900499999999998  0.4994100000000001  0.13848999999999997  1.0000
  C   C5        1.0  0.7127699999999999  0.50751  0.03115  1.0000
  C   C6        1.0  0.2864999999999999  0.5085  0.9687599999999998  1.0000
  C   C7        1.0  0.21277  0.00749  0.03115  1.0000
  C   C8        1.0  0.78651  0.008480000000000003  0.9687599999999998  1.0000
  C   C9        1.0  0.70135  0.4832000000000001  0.9593499999999998  1.0000
  C   C10       1.0  0.29797  0.48444000000000004  0.040669999999999984  1.0000
  C   C11       1.0  0.20133999999999994  0.9831899999999999  0.95936  1.0000
  C   C12       1.0  0.7979799999999998  0.98442  0.040669999999999984  1.0000
  C   C13       1.0  0.82369  0.43567000000000006  0.94369  1.0000
  C   C14       1.0  0.17584  0.43688  0.05643999999999999  1.0000
  C   C15       1.0  0.32369  0.9356799999999998  0.94369  1.0000
  C   C16       1.0  0.67584  0.93688  0.05643999999999999  1.0000
  C   C17       1.0  0.83292  0.44878  0.017279999999999997  1.0000
  C   C18       1.0  0.16665  0.44961  0.98274  1.0000
  C   C19       1.0  0.33292  0.9488000000000001  0.017279999999999997  1.0000
  C   C20       1.0  0.66665  0.94961  0.98274  1.0000
  C   C21       1.0  0.6418  0.46276  0.05191999999999999  1.0000
  C   C22       1.0  0.35785999999999996  0.46439  0.94832  1.0000
  C   C23       1.0  0.14179999999999995  0.96272  0.05192999999999998  1.0000
  C   C24       1.0  0.8578599999999998  0.96435  0.94832  1.0000
  C   C25       1.0  0.6294899999999999  0.43581  0.9732899999999999  1.0000
  C   C26       1.0  0.37021  0.43757000000000007  0.027099999999999996  1.0000
  C   C27       1.0  0.12949  0.9357800000000001  0.9733  1.0000
  C   C28       1.0  0.8702099999999998  0.93753  0.027099999999999996  1.0000
  C   C29       1.0  0.7549799999999998  0.4376300000000001  0.91558  1.0000
  C   C30       1.0  0.24454999999999996  0.43864  0.08452999999999997  1.0000
  C   C31       1.0  0.25498  0.9376299999999999  0.91558  1.0000
  C   C32       1.0  0.74455  0.93864  0.08451999999999997  1.0000
  C   C33       1.0  0.50191  0.14995  0.4243899999999999  1.0000
  C   C34       1.0  0.51222  0.17156  0.5715  1.0000
  C   C35       1.0  0.0018900000000000006  0.64995  0.4244  1.0000
  C   C36       1.0  0.012209999999999995  0.67156  0.57151  1.0000
  C   C37       1.0  0.54187  0.2425  0.45360999999999996  1.0000
  C   C38       1.0  0.54724  0.25142  0.5260099999999999  1.0000
  C   C39       1.0  0.04187  0.74249  0.45362  1.0000
  C   C40       1.0  0.04724  0.75141  0.5260099999999999  1.0000
  C   C41       1.0  0.4778  0.06986  0.5449999999999999  1.0000
  C   C42       1.0  0.47997  0.04915  0.47001999999999994  1.0000
  C   C43       1.0  0.9777799999999999  0.56987  0.54502  1.0000
  C   C44       1.0  0.97994  0.54916  0.47003  1.0000
  C   C45       1.0  0.5285799999999999  0.17786  0.8501299999999998  1.0000
  C   C46       1.0  0.47124  0.17788  0.14973  1.0000
  C   C47       1.0  0.02858  0.67786  0.8501299999999998  1.0000
  C   C48       1.0  0.97122  0.67788  0.14971999999999994  1.0000
  C   C49       1.0  0.54076  0.37879  0.44414  1.0000
  C   C50       1.0  0.54277  0.38743  0.52459  1.0000
  C   C51       1.0  0.04077  0.87878  0.44414  1.0000
  C   C52       1.0  0.04278  0.88743  0.52459  1.0000
  C   C53       1.0  0.7484399999999998  0.4157  0.4219599999999999  1.0000
  C   C54       1.0  0.25296  0.38602  0.58459  1.0000
  C   C55       1.0  0.24845  0.9157199999999999  0.42197  1.0000
  C   C56       1.0  0.7529699999999998  0.88601  0.58459  1.0000
  C   C57       1.0  0.7829999999999998  0.31894  0.4537099999999999  1.0000
  C   C58       1.0  0.20269  0.3223699999999999  0.54618  1.0000
  C   C59       1.0  0.28301  0.8189500000000001  0.4537099999999999  1.0000
  C   C60       1.0  0.7027  0.82234  0.54619  1.0000
  C   C61       1.0  0.7830399999999997  0.30802  0.52713  1.0000
  C   C62       1.0  0.21222999999999997  0.29819  0.47506  1.0000
  C   C63       1.0  0.28305  0.80803  0.52713  1.0000
  C   C64       1.0  0.71223  0.7981699999999999  0.47507  1.0000
  C   C65       1.0  0.71639  0.49307  0.54023  1.0000
  C   C66       1.0  0.32991  0.36646  0.48014  1.0000
  C   C67       1.0  0.21639999999999998  0.9930899999999999  0.54023  1.0000
  C   C68       1.0  0.8299099999999999  0.8664799999999999  0.48013  1.0000
  C   C69       1.0  0.71432  0.50222  0.46573  1.0000
  C   C70       1.0  0.32012  0.39563  0.55353  1.0000
  C   C71       1.0  0.21432999999999994  0.00224  0.46573  1.0000
  C   C72       1.0  0.8201199999999997  0.89563  0.55353  1.0000
  C   C73       1.0  0.7690199999999998  0.18613  0.44401999999999997  1.0000
  C   C74       1.0  0.12688  0.34968  0.53483  1.0000
  C   C75       1.0  0.26904  0.68615  0.44401999999999997  1.0000
  C   C76       1.0  0.6268899999999998  0.8496099999999999  0.5348499999999998  1.0000
  C   C77       1.0  0.7719499999999998  0.17435  0.5243699999999998  1.0000
  C   C78       1.0  0.1395  0.32787  0.45644999999999997  1.0000
  C   C79       1.0  0.27196  0.67436  0.5243699999999998  1.0000
  C   C80       1.0  0.6395  0.82783  0.45646  1.0000
  C   C81       1.0  0.74919  0.39265  0.57134  1.0000
  C   C82       1.0  0.27278  0.3271  0.43873  1.0000
  C   C83       1.0  0.24918999999999997  0.8926599999999999  0.57134  1.0000
  C   C84       1.0  0.77278  0.8271  0.43873  1.0000
  C   C85       1.0  0.73886  0.36713  0.8514199999999997  1.0000
  C   C86       1.0  0.26102  0.36732999999999993  0.14864  1.0000
  C   C87       1.0  0.23886  0.86713  0.8514199999999997  1.0000
  C   C88       1.0  0.7610199999999999  0.8673300000000002  0.14864  1.0000
  C   C89       1.0  0.7292699999999999  0.95053  0.64932  1.0000
  C   C90       1.0  0.27074  0.95346  0.35129  1.0000
  C   C91       1.0  0.22927  0.45053000000000004  0.64932  1.0000
  C   C92       1.0  0.7707399999999998  0.45345  0.35129  1.0000
  C   C93       1.0  0.5309199999999998  0.17737  0.64475  1.0000
  C   C94       1.0  0.4691099999999999  0.17327  0.35596  1.0000
  C   C95       1.0  0.03092  0.67737  0.64475  1.0000
  C   C96       1.0  0.96911  0.67327  0.35596  1.0000
  C   C97       1.0  0.73918  0.35986  0.64554  1.0000
  C   C98       1.0  0.27489999999999987  0.30969  0.3606899999999999  1.0000
  C   C99       1.0  0.23917999999999998  0.8598599999999998  0.64554  1.0000
  C   C100      1.0  0.7748999999999998  0.8096900000000001  0.3606899999999999  1.0000
  C   C101      1.0  0.49601  0.17135  0.9208899999999999  1.0000
  C   C102      1.0  0.50331  0.1714  0.07872  1.0000
  C   C103      1.0  0.99601  0.67135  0.92088  1.0000
  C   C104      1.0  0.0032999999999999995  0.6714  0.07872  1.0000
  C   C105      1.0  0.4970499999999999  0.07025  0.03933999999999999  1.0000
  C   C106      1.0  0.50207  0.0701  0.96069  1.0000
  C   C107      1.0  0.9970399999999999  0.57025  0.03933  1.0000
  C   C108      1.0  0.0020600000000000006  0.5701  0.96069  1.0000
  C   C109      1.0  0.7772599999999997  0.48002000000000006  0.062369999999999995  1.0000
  C   C110      1.0  0.22227  0.48050999999999994  0.9375699999999999  1.0000
  C   C111      1.0  0.27726  0.98002  0.062369999999999995  1.0000
  C   C112      1.0  0.7222799999999999  0.9805  0.9375699999999999  1.0000
  Cr  Cr1       1.0  0.7692599999999999  0.16375  0.75073  1.0000
  Cr  Cr2       1.0  0.23074  0.16375  0.24927  1.0000
  Cr  Cr3       1.0  0.26926  0.66375  0.75073  1.0000
  Cr  Cr4       1.0  0.73074  0.66375  0.24927  1.0000
  Cr  Cr5       1.0  0.61264  0.00991  0.74878  1.0000
  Cr  Cr6       1.0  0.38735999999999987  0.009909999999999999  0.25122  1.0000
  Cr  Cr7       1.0  0.11264  0.50991  0.74878  1.0000
  Cr  Cr8       1.0  0.88736  0.50991  0.25122  1.0000
  Cr  Cr9       1.0  0.61419  0.3224  0.74771  1.0000
  Cr  Cr10      1.0  0.38580999999999993  0.3224  0.25229  1.0000
  Cr  Cr11      1.0  0.11419  0.8223999999999999  0.74771  1.0000
  Cr  Cr12      1.0  0.8858099999999998  0.8223999999999999  0.25229  1.0000
  H   H1        1.0  0.48722999999999994  0.98375  0.06569  1.0000
  H   H2        1.0  0.51192  0.9834499999999999  0.93475  1.0000
  H   H3        1.0  0.9872099999999998  0.48375000000000007  0.06568  1.0000
  H   H4        1.0  0.011920000000000002  0.48345  0.93475  1.0000
  H   H5        1.0  0.99218  0.91905  0.42266  1.0000
  H   H6        1.0  0.08988  0.93089  0.5456999999999997  1.0000
  H   H7        1.0  0.4921699999999999  0.41906000000000004  0.42266  1.0000
  H   H8        1.0  0.58986  0.4309200000000001  0.5456999999999997  1.0000
  H   H9        1.0  0.58896  0.41233  0.41747  1.0000
  H   H10       1.0  0.49319  0.4223  0.5483499999999999  1.0000
  H   H11       1.0  0.08897  0.91229  0.41747  1.0000
  H   H12       1.0  0.9932099999999999  0.9223200000000001  0.5483499999999999  1.0000
  H   H13       1.0  0.68903  0.55944  0.57292  1.0000
  H   H14       1.0  0.37988  0.38279  0.4551  1.0000
  H   H15       1.0  0.18903999999999999  0.05946  0.57293  1.0000
  H   H16       1.0  0.8798699999999998  0.88282  0.4551  1.0000
  H   H17       1.0  0.6867199999999999  0.57744  0.44183  1.0000
  H   H18       1.0  0.36241  0.43613  0.58312  1.0000
  H   H19       1.0  0.18673999999999996  0.07745  0.44184  1.0000
  H   H20       1.0  0.86241  0.93615  0.58312  1.0000
  H   H21       1.0  0.81214  0.1373  0.4163  1.0000
  H   H22       1.0  0.11231  0.4459000000000001  0.54648  1.0000
  H   H23       1.0  0.31217  0.63733  0.41631  1.0000
  H   H24       1.0  0.61229  0.9458199999999999  0.54651  1.0000
  H   H25       1.0  0.71627  0.16817  0.42202  1.0000
  H   H26       1.0  0.09315999999999998  0.27869  0.5596  1.0000
  H   H27       1.0  0.21628999999999998  0.66818  0.42201  1.0000
  H   H28       1.0  0.59318  0.77859  0.55961  1.0000
  H   H29       1.0  0.7215199999999999  0.14575  0.54887  1.0000
  H   H30       1.0  0.11307  0.24676999999999996  0.4349  1.0000
  H   H31       1.0  0.22152999999999998  0.64575  0.54886  1.0000
  H   H32       1.0  0.6130699999999999  0.74672  0.43490999999999996  1.0000
  H   H33       1.0  0.8194999999999999  0.12771  0.54372  1.0000
  H   H34       1.0  0.137  0.41321  0.42415  1.0000
  H   H35       1.0  0.31950999999999996  0.62772  0.54373  1.0000
  H   H36       1.0  0.63699  0.9131700000000001  0.4241799999999999  1.0000
  H   H37       1.0  0.51999  0.2567  0.05451999999999999  1.0000
  H   H38       1.0  0.47923999999999994  0.25681  0.9447299999999998  1.0000
  H   H39       1.0  0.019989999999999994  0.7567  0.05451999999999999  1.0000
  H   H40       1.0  0.97923  0.7568100000000001  0.94472  1.0000
  H   H41       1.0  0.88326  0.43019  0.03957  1.0000
  H   H42       1.0  0.11647  0.43082  0.9604299999999999  1.0000
  H   H43       1.0  0.3832699999999999  0.93023  0.03955999999999999  1.0000
  H   H44       1.0  0.61647  0.9308299999999999  0.9604299999999999  1.0000
  H   H45       1.0  0.64266  0.38111  0.08767  1.0000
  H   H46       1.0  0.3577  0.38275  0.9129599999999999  1.0000
  H   H47       1.0  0.14267  0.88108  0.08767  1.0000
  H   H48       1.0  0.85769  0.88271  0.9129599999999999  1.0000
  H   H49       1.0  0.6248  0.33657  0.9622099999999999  1.0000
  H   H50       1.0  0.3756  0.33835  0.03865  1.0000
  H   H51       1.0  0.1248  0.83653  0.9622099999999999  1.0000
  H   H52       1.0  0.8755899999999999  0.83832  0.03865  1.0000
  H   H53       1.0  0.5886799999999999  0.49414  0.9483099999999999  1.0000
  H   H54       1.0  0.4105499999999999  0.49618  0.051869999999999986  1.0000
  H   H55       1.0  0.08868  0.99409  0.94832  1.0000
  H   H56       1.0  0.91055  0.9961399999999999  0.051869999999999986  1.0000
  O   O1        1.0  0.7842899999999998  0.29036  0.83054  1.0000
  O   O2        1.0  0.21570999999999999  0.29036  0.16945999999999994  1.0000
  O   O3        1.0  0.28429  0.79036  0.83054  1.0000
  O   O4        1.0  0.71571  0.79036  0.16945999999999994  1.0000
  O   O5        1.0  0.55469  0.08044000000000001  0.6734799999999997  1.0000
  O   O6        1.0  0.44531  0.08044  0.32652  1.0000
  O   O7        1.0  0.05469  0.58044  0.6734799999999997  1.0000
  O   O8        1.0  0.94531  0.58044  0.32652  1.0000
  O   O9        1.0  0.54398  0.28211  0.6667699999999998  1.0000
  O   O10       1.0  0.4560199999999999  0.28211  0.33323  1.0000
  O   O11       1.0  0.043980000000000005  0.78211  0.6667699999999998  1.0000
  O   O12       1.0  0.95602  0.78211  0.33323  1.0000
  O   O13       1.0  0.67907  0.37403  0.67443  1.0000
  O   O14       1.0  0.32093  0.37403  0.32557  1.0000
  O   O15       1.0  0.17906999999999995  0.8740299999999999  0.67443  1.0000
  O   O16       1.0  0.82093  0.8740299999999999  0.32557  1.0000
  O   O17       1.0  0.6653599999999998  0.16535  0.74907  1.0000
  O   O18       1.0  0.3346399999999999  0.16535  0.25093  1.0000
  O   O19       1.0  0.16536  0.66535  0.74907  1.0000
  O   O20       1.0  0.8346399999999999  0.66535  0.25093  1.0000
  O   O21       1.0  0.76261  0.04107  0.8252299999999998  1.0000
  O   O22       1.0  0.23739  0.04107  0.17477  1.0000
  O   O23       1.0  0.26261  0.54107  0.8252299999999998  1.0000
  O   O24       1.0  0.7373899999999999  0.54107  0.17477  1.0000
  O   O25       1.0  0.6673899999999998  0.92416  0.8299699999999999  1.0000
  O   O26       1.0  0.3326099999999999  0.92416  0.17003  1.0000
  O   O27       1.0  0.16738999999999998  0.4241599999999999  0.8299699999999999  1.0000
  O   O28       1.0  0.83261  0.4241599999999999  0.17003  1.0000
  O   O29       1.0  0.55398  0.08142  0.82178  1.0000
  O   O30       1.0  0.4460199999999999  0.08142  0.17821999999999996  1.0000
  O   O31       1.0  0.05398  0.58142  0.82178  1.0000
  O   O32       1.0  0.94602  0.58142  0.17821999999999996  1.0000
  O   O33       1.0  0.54321  0.28317  0.8267399999999998  1.0000
  O   O34       1.0  0.4567899999999999  0.28317  0.17326  1.0000
  O   O35       1.0  0.04321  0.78317  0.8267399999999998  1.0000
  O   O36       1.0  0.95679  0.78317  0.17326  1.0000
  O   O37       1.0  0.67835  0.375  0.8227199999999999  1.0000
  O   O38       1.0  0.32164999999999994  0.375  0.17728  1.0000
  O   O39       1.0  0.17835  0.8750000000000001  0.8227199999999999  1.0000
  O   O40       1.0  0.82165  0.8750000000000001  0.17728  1.0000
  O   O41       1.0  0.78506  0.2893  0.67058  1.0000
  O   O42       1.0  0.21494  0.2893  0.32942  1.0000
  O   O43       1.0  0.28506  0.7892999999999999  0.67058  1.0000
  O   O44       1.0  0.71494  0.7892999999999999  0.32942  1.0000
  O   O45       1.0  0.76333  0.040089999999999994  0.67694  1.0000
  O   O46       1.0  0.23666999999999996  0.04009  0.32305999999999996  1.0000
  O   O47       1.0  0.26333  0.54009  0.67694  1.0000
  O   O48       1.0  0.7366699999999999  0.54009  0.32305999999999996  1.0000
  O   O49       1.0  0.66816  0.9231099999999999  0.67  1.0000
  O   O50       1.0  0.3318399999999999  0.9231099999999999  0.33  1.0000
  O   O51       1.0  0.16815999999999995  0.42311  0.67  1.0000
  O   O52       1.0  0.8318399999999999  0.42311  0.33  1.0000
  O   O53       1.0  0.8818199999999999  0.41037000000000007  0.90246  1.0000
  H   H57       1.0  0.87294  0.44150999999999996  0.8535  1.0000
  O   O54       1.0  0.11777999999999997  0.4117  0.09780999999999997  1.0000
  H   H58       1.0  0.12663  0.44162  0.1469  1.0000
  O   O55       1.0  0.38182  0.91039  0.90246  1.0000
  H   H59       1.0  0.3729299999999999  0.9415300000000001  0.85349  1.0000
  O   O56       1.0  0.61778  0.91172  0.09780999999999997  1.0000
  H   H60       1.0  0.6266399999999999  0.94163  0.1469  1.0000
  O   O57       1.0  0.09978  0.058410000000000004  0.07718  1.0000
  H   H61       1.0  0.05372999999999999  0.0215  0.08821999999999999  1.0000
  O   O58       1.0  0.8991599999999998  0.06043  0.92269  1.0000
  H   H62       1.0  0.9455  0.02394  0.9118499999999999  1.0000
  O   O59       1.0  0.59978  0.55846  0.07717  1.0000
  H   H63       1.0  0.55374  0.52156  0.08821999999999999  1.0000
  O   O60       1.0  0.39916  0.56049  0.9227  1.0000
  H   H64       1.0  0.44550999999999996  0.52401  0.91187  1.0000
  C   C113      1.0  0.42503  0.0073700000000000015  0.5950799999999999  1.0000
  C   C114      1.0  0.4519099999999999  0.88823  0.62991  1.0000
  C   C115      1.0  0.43594  0.8823399999999999  0.71023  1.0000
  H   H65       1.0  0.46983999999999987  0.9457100000000002  0.74  1.0000
  H   H66       1.0  0.381  0.9080300000000001  0.72145  1.0000
  H   H67       1.0  0.4454699999999999  0.78837  0.73051  1.0000
  H   H68       1.0  0.42686  0.8085799999999999  0.6041699999999999  1.0000
  H   H69       1.0  0.50893  0.8785599999999999  0.62254  1.0000
  H   H70       1.0  0.40788  0.07282  0.6371499999999999  1.0000
  H   H71       1.0  0.37623  0.99006  0.56575  1.0000
  C   C116      1.0  0.44467  0.93303  0.44383  1.0000
  C   C117      1.0  0.48179999999999995  0.85851  0.3841399999999999  1.0000
  C   C118      1.0  0.48044  0.72079  0.39878  1.0000
  H   H72       1.0  0.49942  0.69874  0.45334  1.0000
  H   H73       1.0  0.42645  0.68638  0.39396  1.0000
  H   H74       1.0  0.5136799999999999  0.67269  0.35884999999999995  1.0000
  H   H75       1.0  0.45562  0.87002  0.33206  1.0000
  H   H76       1.0  0.53546  0.8907  0.3753799999999999  1.0000
  H   H77       1.0  0.4366  0.8689700000000001  0.48864  1.0000
  H   H78       1.0  0.39213  0.9613300000000001  0.42937999999999993  1.0000
  C   C119      1.0  0.92503  0.50736  0.59511  1.0000
  C   C120      1.0  0.95195  0.38827000000000006  0.62997  1.0000
  C   C121      1.0  0.93599  0.3824  0.71029  1.0000
  H   H79       1.0  0.9697299999999999  0.44604  0.74002  1.0000
  H   H80       1.0  0.8809899999999998  0.40774000000000005  0.72148  1.0000
  H   H81       1.0  0.9457199999999999  0.28853  0.73062  1.0000
  H   H82       1.0  0.9269399999999999  0.30856  0.60424  1.0000
  H   H83       1.0  0.008979999999999998  0.37866  0.6226  1.0000
  H   H84       1.0  0.9078699999999998  0.57281  0.63718  1.0000
  H   H85       1.0  0.87623  0.4899800000000001  0.5658  1.0000
  C   C122      1.0  0.9446199999999999  0.43306  0.44384999999999997  1.0000
  C   C123      1.0  0.9817599999999997  0.35851  0.38417  1.0000
  C   C124      1.0  0.98043  0.22079000000000001  0.3988499999999999  1.0000
  H   H86       1.0  0.99942  0.19878999999999997  0.45342  1.0000
  H   H87       1.0  0.9264499999999999  0.18635  0.39404  1.0000
  H   H88       1.0  0.013669999999999998  0.17268  0.35892  1.0000
  H   H89       1.0  0.95559  0.3699799999999999  0.33208999999999994  1.0000
  H   H90       1.0  0.03542  0.39071999999999996  0.37541999999999986  1.0000
  H   H91       1.0  0.9365  0.369  0.48867  1.0000
  H   H92       1.0  0.8920799999999999  0.46143  0.42937  1.0000
