data_image0
_chemical_formula_structural       C60Cr6H25O26F2Cl3F2
_chemical_formula_sum              "C60 Cr6 H25 O26 F4 Cl3"
_cell_length_a       11.03307
_cell_length_b       10.99936
_cell_length_c       18.77767
_cell_angle_alpha    90.38595
_cell_angle_beta     90.51139
_cell_angle_gamma    59.12633

_symmetry_space_group_name_H-M    'P 1'
_symmetry_Int_Tables_number       1

loop_
  _symmetry_equiv_pos_as_xyz
  'x,y,z'

loop_
  _atom_site_type_symbol
  _atom_site_label
  _atom_site_symmetry_multiplicity
  _atom_site_fract_x
  _atom_site_fract_y
  _atom_site_fract_z
  _atom_site_occupancy
  C   C1        1.0  0.3584299999999999  0.7744000000000001  0.39834  1.0000
  C   C2        1.0  0.61123  0.08441  0.17317  1.0000
  C   C3        1.0  0.36838  0.32533  0.16188  1.0000
  C   C4        1.0  0.48529999999999995  0.23367000000000002  0.27471  1.0000
  C   C5        1.0  0.48831999999999987  0.21999000000000002  0.2017  1.0000
  C   C6        1.0  0.09107999999999994  0.7158000000000001  0.30182  1.0000
  C   C7        1.0  0.9583699999999998  0.81973  0.32831  1.0000
  C   C8        1.0  0.59289  0.97237  0.15355  1.0000
  C   C9        1.0  0.7018799999999998  0.85005  0.12131000000000002  1.0000
  C   C10       1.0  0.26417000000000007  0.44791  0.19609  1.0000
  C   C11       1.0  0.26229  0.4594  0.2699  1.0000
  C   C12       1.0  0.38873  0.35664  0.38646  1.0000
  C   C13       1.0  0.8594899999999999  0.78305  0.34678  1.0000
  C   C14       1.0  0.89593  0.64232  0.34399  1.0000
  C   C15       1.0  0.0327  0.53709  0.32599  1.0000
  C   C16       1.0  0.12962999999999997  0.57267  0.30215  1.0000
  C   C17       1.0  0.37185  0.34759  0.30984  1.0000
  C   C18       1.0  0.9047199999999999  0.32181  0.3078  1.0000
  C   C19       1.0  0.94979  0.31025  0.23816000000000004  1.0000
  C   C20       1.0  0.8531599999999999  0.34616  0.1821  1.0000
  C   C21       1.0  0.7091699999999999  0.40552  0.19565  1.0000
  C   C22       1.0  0.6633399999999999  0.42283000000000004  0.26601  1.0000
  C   C23       1.0  0.71391  0.41504  0.39475  1.0000
  C   C24       1.0  0.76133  0.38386  0.32186  1.0000
  C   C25       1.0  0.47227  0.76029  0.28466  1.0000
  C   C26       1.0  0.45872999999999997  0.77966  0.21149  1.0000
  C   C27       1.0  0.32881  0.87916  0.18285  1.0000
  C   C28       1.0  0.21436  0.96178  0.22824  1.0000
  C   C29       1.0  0.22811999999999993  0.9416700000000001  0.30117  1.0000
  C   C30       1.0  0.35314999999999996  0.83213  0.32852  1.0000
  C   C31       1.0  0.48515  0.25618  0.71551  1.0000
  C   C32       1.0  0.45646  0.22461999999999996  0.78085  1.0000
  C   C33       1.0  0.33021999999999996  0.32515  0.81683  1.0000
  C   C34       1.0  0.34562000000000004  0.76617  0.60546  1.0000
  C   C35       1.0  0.23580999999999994  0.45381  0.78367  1.0000
  C   C36       1.0  0.26094  0.47716000000000003  0.7139  1.0000
  C   C37       1.0  0.3842399999999999  0.37494  0.67929  1.0000
  C   C38       1.0  0.90386  0.39667  0.70799  1.0000
  C   C39       1.0  0.94099  0.37654  0.77927  1.0000
  C   C40       1.0  0.92136  0.28186  0.82013  1.0000
  C   C41       1.0  0.8786099999999999  0.1947  0.78592  1.0000
  C   C42       1.0  0.84296  0.21466000000000002  0.71381  1.0000
  C   C43       1.0  0.84642  0.32197  0.67598  1.0000
  C   C44       1.0  0.20909999999999998  0.81877  0.71563  1.0000
  C   C45       1.0  0.40853  0.38133  0.60422  1.0000
  C   C46       1.0  0.2044  0.82455  0.789  1.0000
  C   C47       1.0  0.30901999999999996  0.83267  0.82734  1.0000
  C   C48       1.0  0.42689999999999995  0.81902  0.79196  1.0000
  C   C49       1.0  0.43454999999999994  0.80785  0.71847  1.0000
  C   C50       1.0  0.3248  0.8090700000000001  0.67973  1.0000
  C   C51       1.0  0.9069  0.31886  0.11049  1.0000
  C   C52       1.0  0.33087999999999995  0.29362  0.09207  1.0000
  C   C53       1.0  0.3045599999999999  0.90417  0.10684  1.0000
  C   C54       1.0  0.9473899999999998  0.28004  0.897  1.0000
  C   C55       1.0  0.2974399999999999  0.28782  0.8853500000000001  1.0000
  C   C56       1.0  0.7693999999999998  0.37318  0.60873  1.0000
  C   C57       1.0  0.27757999999999994  0.89122  0.89882  1.0000
  C   C58       1.0  0.8377000000000001  0.8276  0.12004  1.0000
  C   C59       1.0  0.8631199999999998  0.92792  0.15048  1.0000
  C   C60       1.0  0.75099  0.0554  0.1766  1.0000
  Cr  Cr1       1.0  0.6017699999999998  0.60686  0.50586  1.0000
  Cr  Cr2       1.0  0.29138  0.60166  0.49507000000000007  1.0000
  Cr  Cr3       1.0  0.6068799999999999  0.29151  0.49912  1.0000
  Cr  Cr4       1.0  0.06243999999999999  0.06309  0.00821  1.0000
  Cr  Cr5       1.0  0.06288  0.37517  0.9989199999999999  1.0000
  Cr  Cr6       1.0  0.3747  0.061720000000000004  0.9924699999999999  1.0000
  H   H1        1.0  0.5732  0.15045  0.30447  1.0000
  H   H2        1.0  0.7546499999999998  0.86334  0.36371  1.0000
  H   H3        1.0  0.81717  0.61634  0.35501  1.0000
  H   H4        1.0  0.06375000000000003  0.42753  0.32794  1.0000
  H   H5        1.0  0.9803899999999998  0.28721  0.35123  1.0000
  H   H6        1.0  0.6341199999999999  0.43318000000000006  0.15229  1.0000
  H   H7        1.0  0.55204  0.46841999999999995  0.27691  1.0000
  H   H8        1.0  0.57321  0.68197  0.30655  1.0000
  H   H9        1.0  0.11233  0.03806  0.20667  1.0000
  H   H10       1.0  0.6827699999999999  0.77194  0.09754  1.0000
  H   H11       1.0  0.14087  0.0059700000000000005  0.33589  1.0000
  H   H12       1.0  0.58185  0.17821  0.68973  1.0000
  H   H13       1.0  0.13994  0.53205  0.80995  1.0000
  H   H14       1.0  0.18241  0.57144  0.68641  1.0000
  H   H15       1.0  0.91191  0.47731  0.67925  1.0000
  H   H16       1.0  0.9787799999999995  0.44066000000000005  0.8034  1.0000
  H   H17       1.0  0.8040299999999999  0.15244  0.68867  1.0000
  H   H18       1.0  0.12412999999999999  0.81685  0.68736  1.0000
  H   H19       1.0  0.11543999999999999  0.82933  0.81536  1.0000
  H   H20       1.0  0.51052  0.8223  0.82084  1.0000
  H   H21       1.0  0.5271800000000001  0.79587  0.69229  1.0000
  H   H22       1.0  0.9236500000000001  0.73051  0.09803  1.0000
  H   H23       1.0  0.16413999999999998  0.7446  0.28193  1.0000
  H   H24       1.0  0.49132999999999977  0.98551  0.16185  1.0000
  H   H25       1.0  0.17426000000000003  0.52796  0.16605  1.0000
  O   O1        1.0  0.7487999999999999  0.49747  0.428  1.0000
  O   O2        1.0  0.30006999999999995  0.47104  0.5671  1.0000
  O   O3        1.0  0.49167  0.2589  0.57491  1.0000
  O   O4        1.0  0.7187799999999998  0.30418  0.57785  1.0000
  O   O5        1.0  0.5000099999999998  0.50001  0.50002  1.0000
  O   O6        1.0  0.18668999999999994  0.9236500000000001  0.08697  1.0000
  O   O7        1.0  0.9572499999999999  0.19425  0.08463  1.0000
  O   O8        1.0  0.9349699999999997  0.40749  0.08533  1.0000
  O   O9        1.0  0.20377999999999993  0.36519000000000007  0.06709  1.0000
  O   O10       1.0  0.4176  0.17489  0.06784  1.0000
  O   O11       1.0  0.37532000000000004  0.9462599999999999  0.07086  1.0000
  O   O12       1.0  0.47641999999999995  0.72406  0.42947  1.0000
  O   O13       1.0  0.1606  0.91963  0.9266600000000002  1.0000
  O   O14       1.0  0.93306  0.19052  0.93602  1.0000
  O   O15       1.0  0.9088799999999998  0.40346  0.9250200000000001  1.0000
  O   O16       1.0  0.17959999999999995  0.36145  0.91849  1.0000
  O   O17       1.0  0.3915100000000001  0.17086  0.9075299999999998  1.0000
  O   O18       1.0  0.35112999999999994  0.94253  0.92226  1.0000
  O   O19       1.0  0.16666999999999998  0.16667  0.9998699999999999  1.0000
  O   O20       1.0  0.2645799999999999  0.74434  0.41675  1.0000
  O   O21       1.0  0.3093799999999999  0.47246999999999995  0.4182  1.0000
  O   O22       1.0  0.5017099999999998  0.26043  0.4143  1.0000
  O   O23       1.0  0.7280899999999996  0.3056  0.42896  1.0000
  O   O24       1.0  0.7387600000000001  0.49593  0.58861  1.0000
  O   O25       1.0  0.4671099999999997  0.7226400000000001  0.57836  1.0000
  O   O26       1.0  0.2545299999999999  0.7428  0.57736  1.0000
  F   F1        1.0  0.08716999999999997  0.2666200000000001  0.22513  1.0000
  F   F2        1.0  0.5679899999999999  0.69518  0.16881  1.0000
  Cl  Cl1       1.0  0.57718  0.04673000000000001  0.80624  1.0000
  Cl  Cl2       1.0  0.8563299999999999  0.06764  0.83053  1.0000
  Cl  Cl3       1.0  0.91204  0.99571  0.34091  1.0000
  F   F3        1.0  0.9972399999999999  0.89909  0.15727  1.0000
  F   F4        1.0  0.7815499999999997  0.14261  0.21152  1.0000
