data_image0
_chemical_formula_structural       C56Cr6H23O27CH3OCH3F2OCH3
_chemical_formula_sum              "C59 Cr6 H32 O29 F2"
_cell_length_a       10.93079
_cell_length_b       11.08012
_cell_length_c       18.74721
_cell_angle_alpha    90.45961
_cell_angle_beta     89.44482999999998
_cell_angle_gamma    119.97808

_symmetry_space_group_name_H-M    'P 1'
_symmetry_Int_Tables_number       1

loop_
  _symmetry_equiv_pos_as_xyz
  'x,y,z'

loop_
  _atom_site_type_symbol
  _atom_site_label
  _atom_site_symmetry_multiplicity
  _atom_site_fract_x
  _atom_site_fract_y
  _atom_site_fract_z
  _atom_site_occupancy
  C   C1        1.0  0.86165  0.64157  0.6022  1.0000
  C   C2        1.0  0.3041  0.55612  0.79116  1.0000
  C   C3        1.0  0.29614  0.54566  0.71845  1.0000
  C   C4        1.0  0.31914000000000003  0.66001  0.67708  1.0000
  C   C5        1.0  0.8808700000000002  0.21359  0.8399800000000002  1.0000
  C   C6        1.0  0.08993  0.19391  0.82759  1.0000
  C   C7        1.0  0.18116  0.16838  0.78536  1.0000
  C   C8        1.0  0.15934000000000004  0.1565  0.7121000000000001  1.0000
  C   C9        1.0  0.05000000000000001  0.16701000000000002  0.6813100000000001  1.0000
  C   C10       1.0  0.9675700000000002  0.20887  0.72165  1.0000
  C   C11       1.0  0.98001  0.20628  0.79656  1.0000
  C   C12       1.0  0.27026  0.63112  0.6038  1.0000
  C   C13       1.0  0.78416  0.27714  0.73972  1.0000
  C   C14       1.0  0.8079200000000001  0.27688  0.81412  1.0000
  C   C15       1.0  0.66942  0.30012  0.72138  1.0000
  C   C16       1.0  0.59322  0.32389  0.77517  1.0000
  C   C17       1.0  0.63526  0.34369  0.84517  1.0000
  C   C18       1.0  0.7470000000000001  0.32743  0.86405  1.0000
  C   C19       1.0  0.87099  0.24734  0.6909200000000002  1.0000
  C   C20       1.0  0.67836  0.59894  0.7000700000000001  1.0000
  C   C21       1.0  0.65876  0.62212  0.77248  1.0000
  C   C22       1.0  0.7726  0.72409  0.8120500000000002  1.0000
  C   C23       1.0  0.8823499999999999  0.28216  0.6123300000000002  1.0000
  C   C24       1.0  0.89068  0.8229  0.77459  1.0000
  C   C25       1.0  0.9054200000000002  0.80522  0.7025000000000001  1.0000
  C   C26       1.0  0.8103600000000001  0.68135  0.66751  1.0000
  C   C27       1.0  0.26988  0.53995  0.27679  1.0000
  C   C28       1.0  0.27809  0.55191  0.204  1.0000
  C   C29       1.0  0.32668  0.68225  0.17243  1.0000
  C   C30       1.0  0.34530000000000005  0.79577  0.2141  1.0000
  C   C31       1.0  0.32998  0.78174  0.28788  1.0000
  C   C32       1.0  0.29868000000000006  0.6551  0.3195500000000001  1.0000
  C   C33       1.0  0.71233  0.1179  0.29283000000000003  1.0000
  C   C34       1.0  0.86474  0.63833  0.39802  1.0000
  C   C35       1.0  0.7068900000000001  0.10945000000000002  0.21994  1.0000
  C   C36       1.0  0.8260600000000001  0.13435000000000002  0.17963  1.0000
  C   C37       1.0  0.9512000000000003  0.16381  0.21413  1.0000
  C   C38       1.0  0.95845  0.17751  0.28802  1.0000
  C   C39       1.0  0.84101  0.16195  0.32711  1.0000
  C   C40       1.0  0.8925800000000002  0.78681  0.29664000000000007  1.0000
  C   C41       1.0  0.88631  0.79807  0.22400000000000003  1.0000
  C   C42       1.0  0.8037900000000001  0.67927  0.1821  1.0000
  C   C43       1.0  0.71967  0.54995  0.21431000000000003  1.0000
  C   C44       1.0  0.7282700000000002  0.53789  0.28758  1.0000
  C   C45       1.0  0.26538  0.63004  0.39479  1.0000
  C   C46       1.0  0.81979  0.65582  0.3283500000000001  1.0000
  C   C47       1.0  0.81575  0.11527  0.90044  1.0000
  C   C48       1.0  0.39675  0.70125  0.8967000000000002  1.0000
  C   C49       1.0  0.7710700000000001  0.73451  0.8908400000000001  1.0000
  C   C50       1.0  0.8042400000000001  0.10132  0.10423000000000003  1.0000
  C   C51       1.0  0.39217  0.70355  0.10251000000000003  1.0000
  C   C52       1.0  0.79482  0.69991  0.10670000000000002  1.0000
  C   C53       1.0  0.8609800000000001  0.22547  0.39709  1.0000
  C   C54       1.0  0.35923000000000005  0.78812  0.7101000000000002  1.0000
  C   C55       1.0  0.3766  0.80102  0.78373  1.0000
  C   C56       1.0  0.34786000000000006  0.68433  0.8243  1.0000
  Cr  Cr1       1.0  0.7916600000000001  0.39025  0.49993  1.0000
  Cr  Cr2       1.0  0.09852000000000008  0.7082900000000001  0.50054  1.0000
  Cr  Cr3       1.0  0.10977  0.40143  0.49948  1.0000
  Cr  Cr4       1.0  0.8747900000000001  0.9258900000000001  7e-05  1.0000
  Cr  Cr5       1.0  0.57412  0.94867  0.9993000000000002  1.0000
  Cr  Cr6       1.0  0.55142  0.62532  0.00092  1.0000
  H   H1        1.0  0.50591  0.33826  0.7610600000000001  1.0000
  H   H2        1.0  0.57968  0.36966  0.88492  1.0000
  H   H3        1.0  0.59362  0.51489  0.67099  1.0000
  H   H4        1.0  0.55906  0.55528  0.79869  1.0000
  H   H5        1.0  0.97471  0.91072  0.8017  1.0000
  H   H6        1.0  0.9973100000000001  0.8844  0.67549  1.0000
  H   H7        1.0  0.23895000000000005  0.43909000000000004  0.29931  1.0000
  H   H8        1.0  0.25826  0.46108  0.17294  1.0000
  H   H9        1.0  0.37791000000000013  0.8959400000000001  0.19021  1.0000
  H   H10       1.0  0.41241  0.90185  0.8084900000000003  1.0000
  H   H11       1.0  0.34397  0.86926  0.3200500000000001  1.0000
  H   H12       1.0  0.6070400000000001  0.08112  0.1953  1.0000
  H   H13       1.0  0.05752999999999999  0.20737  0.31409  1.0000
  H   H14       1.0  0.96172  0.8793200000000001  0.32720000000000005  1.0000
  H   H15       1.0  0.94695  0.9006  0.20067  1.0000
  H   H16       1.0  0.65148  0.45861  0.18281  1.0000
  H   H17       1.0  0.67057  0.43533000000000005  0.3113100000000001  1.0000
  H   H18       1.0  0.28502000000000005  0.46535  0.82109  1.0000
  H   H19       1.0  0.26515  0.44498  0.6952200000000002  1.0000
  H   H20       1.0  0.22374000000000002  0.13335  0.6779  1.0000
  H   H21       1.0  0.1066  0.20936  0.88443  1.0000
  H   H22       1.0  0.029020000000000032  0.13333000000000006  0.6266500000000003  1.0000
  H   H23       1.0  0.7773700000000001  0.34116  0.9197200000000001  1.0000
  O   O1        1.0  0.7665  0.25004  0.57979  1.0000
  O   O2        1.0  0.21869000000000005  0.7019  0.42596  1.0000
  O   O3        1.0  0.24949  0.51644  0.4194200000000001  1.0000
  O   O4        1.0  0.98288  0.28191  0.42489  1.0000
  O   O5        1.0  0.9999800000000001  0.49999000000000005  0.49998  1.0000
  O   O6        1.0  0.89511  0.80686  0.9204300000000001  1.0000
  O   O7        1.0  0.87226  0.04697  0.9250000000000003  1.0000
  O   O8        1.0  0.69143  0.08506  0.9185500000000001  1.0000
  O   O9        1.0  0.45149  0.82246  0.92525  1.0000
  O   O10       1.0  0.41333  0.60336  0.92044  1.0000
  O   O11       1.0  0.67611  0.62625  0.92675  1.0000
  O   O12       1.0  0.79857  0.51678  0.5747800000000001  1.0000
  O   O13       1.0  0.89535  0.80987  0.08095  1.0000
  O   O14       1.0  0.87249  0.049760000000000006  0.07380000000000002  1.0000
  O   O15       1.0  0.69168  0.08807  0.07907  1.0000
  O   O16       1.0  0.4517200000000001  0.8252500000000002  0.07405  1.0000
  O   O17       1.0  0.41358000000000006  0.60637  0.08096000000000002  1.0000
  O   O18       1.0  0.6763400000000002  0.62904  0.07555  1.0000
  O   O19       1.0  0.6667800000000002  0.83329  9e-05  1.0000
  O   O20       1.0  0.9840000000000001  0.73295  0.5810900000000001  1.0000
  O   O21       1.0  0.2186  0.70089  0.57476  1.0000
  O   O22       1.0  0.24939  0.51535  0.57994  1.0000
  O   O23       1.0  0.9827900000000002  0.2809  0.5737  1.0000
  O   O24       1.0  0.7666  0.25113  0.41926  1.0000
  O   O25       1.0  0.7986600000000001  0.51779  0.42598  1.0000
  O   O26       1.0  0.9841  0.73404  0.42057  1.0000
  O   O27       1.0  0.36754000000000003  0.8963300000000001  0.6714  1.0000
  C   C57       1.0  0.23870999999999995  0.8940599999999999  0.68153  1.0000
  H   H24       1.0  0.2423200000000001  0.95014  0.73126  1.0000
  H   H25       1.0  0.14545  0.78688  0.68521  1.0000
  H   H26       1.0  0.22231999999999988  0.9448199999999999  0.63484  1.0000
  O   O28       1.0  0.63774  0.3141300000000001  0.65224  1.0000
  C   C58       1.0  0.49468  0.22421000000000002  0.63529  1.0000
  H   H27       1.0  0.44376  0.2871  0.6243400000000001  1.0000
  H   H28       1.0  0.43554  0.14834  0.67772  1.0000
  H   H29       1.0  0.48844000000000004  0.16525  0.58606  1.0000
  F   F1        1.0  0.59366  0.09265  0.32906  1.0000
  F   F2        1.0  0.06614  0.18214  0.17669  1.0000
  O   O29       1.0  0.29013  0.15096  0.8116000000000001  1.0000
  C   C59       1.0  0.2719500000000001  0.1084  0.8834900000000001  1.0000
  H   H30       1.0  0.16381  0.02033  0.89427  1.0000
  H   H31       1.0  0.29882999999999993  0.19803  0.9196800000000002  1.0000
  H   H32       1.0  0.34674  0.07095  0.8950100000000001  1.0000
