data_image0
_chemical_formula_structural       C108Cr6H48O26
_chemical_formula_sum              "C108 Cr6 H48 O26"
_cell_length_a       12.65332
_cell_length_b       12.653320000000003
_cell_length_c       27.06297
_cell_angle_alpha    90.0
_cell_angle_beta     90.0
_cell_angle_gamma    120.00022

_space_group_name_H-M_alt    "P 1"
_space_group_IT_number       1

loop_
  _space_group_symop_operation_xyz
  'x, y, z'

loop_
  _atom_site_type_symbol
  _atom_site_label
  _atom_site_symmetry_multiplicity
  _atom_site_fract_x
  _atom_site_fract_y
  _atom_site_fract_z
  _atom_site_occupancy
  C   C1        1.0  0.55863  0.45593999999999996  0.82241  1.0000
  C   C2        1.0  0.45594  0.55863  0.17759  1.0000
  C   C3        1.0  0.0051099999999999965  0.31173  0.47441999999999995  1.0000
  C   C4        1.0  0.3066200000000001  0.99489  0.025579999999999995  1.0000
  C   C5        1.0  0.68827  0.69338  0.47441999999999995  1.0000
  C   C6        1.0  0.31172  0.00509  0.52558  1.0000
  C   C7        1.0  0.9948999999999999  0.30663  0.97442  1.0000
  C   C8        1.0  0.69337  0.68828  0.52558  1.0000
  C   C9        1.0  0.31173  0.0051  0.97442  1.0000
  C   C10       1.0  0.9949099999999999  0.30663  0.52558  1.0000
  C   C11       1.0  0.69337  0.68827  0.97442  1.0000
  C   C12       1.0  0.44137  0.8973100000000002  0.32241  1.0000
  C   C13       1.0  0.10269  0.54406  0.17759  1.0000
  C   C14       1.0  0.99296  0.49841  0.97422  1.0000
  C   C15       1.0  0.50545  0.00704  0.52578  1.0000
  C   C16       1.0  0.50159  0.49455  0.97422  1.0000
  C   C17       1.0  0.99296  0.49841  0.52578  1.0000
  C   C18       1.0  0.50545  0.00704  0.97422  1.0000
  C   C19       1.0  0.50159  0.49456  0.52578  1.0000
  C   C20       1.0  0.49841  0.99296  0.4742199999999999  1.0000
  C   C21       1.0  0.8973100000000002  0.44137  0.6775899999999999  1.0000
  C   C22       1.0  0.007040000000000009  0.50545  0.02578  1.0000
  C   C23       1.0  0.49455  0.50159  0.4742199999999999  1.0000
  C   C24       1.0  0.49841  0.99296  0.02578  1.0000
  C   C25       1.0  0.007040000000000009  0.50545  0.4742199999999999  1.0000
  C   C26       1.0  0.49455  0.50159  0.02578  1.0000
  C   C27       1.0  0.9906799999999998  0.6895  0.97439  1.0000
  C   C28       1.0  0.6988300000000001  0.00933  0.52561  1.0000
  C   C29       1.0  0.3105000000000001  0.30118  0.97439  1.0000
  C   C30       1.0  0.9906700000000002  0.6895  0.5256  1.0000
  C   C31       1.0  0.6988300000000001  0.00932  0.97439  1.0000
  C   C32       1.0  0.54406  0.10269  0.82241  1.0000
  C   C33       1.0  0.3105  0.30117  0.5256  1.0000
  C   C34       1.0  0.68951  0.99068  0.47439  1.0000
  C   C35       1.0  0.009319999999999988  0.69882  0.02561  1.0000
  C   C36       1.0  0.30118  0.31049  0.47439  1.0000
  C   C37       1.0  0.6895  0.99068  0.02561  1.0000
  C   C38       1.0  0.009319999999999988  0.69882  0.47439  1.0000
  C   C39       1.0  0.30118  0.3105  0.02561  1.0000
  C   C40       1.0  0.95975  0.57662  0.8973  1.0000
  C   C41       1.0  0.61687  0.04025  0.6026999999999999  1.0000
  C   C42       1.0  0.42338  0.38313  0.8973  1.0000
  C   C43       1.0  0.55863  0.45593999999999996  0.6775899999999999  1.0000
  C   C44       1.0  0.95975  0.57662  0.6026999999999999  1.0000
  C   C45       1.0  0.61687  0.04025  0.8973  1.0000
  C   C46       1.0  0.42338  0.38313  0.6026999999999999  1.0000
  C   C47       1.0  0.57662  0.95975  0.3973  1.0000
  C   C48       1.0  0.04025  0.61687  0.1027  1.0000
  C   C49       1.0  0.38313  0.42338  0.3973  1.0000
  C   C50       1.0  0.57662  0.95975  0.1027  1.0000
  C   C51       1.0  0.04025  0.61687  0.3973  1.0000
  C   C52       1.0  0.38313  0.42338  0.1027  1.0000
  C   C53       1.0  0.04947999999999999  0.52438  0.1278  1.0000
  C   C54       1.0  0.8973100000000002  0.44137  0.82241  1.0000
  C   C55       1.0  0.47489999999999993  0.9505199999999999  0.3722  1.0000
  C   C56       1.0  0.47562  0.5251  0.1278  1.0000
  C   C57       1.0  0.04947999999999999  0.52438  0.3722  1.0000
  C   C58       1.0  0.47489999999999993  0.9505199999999999  0.1278  1.0000
  C   C59       1.0  0.47562  0.5251  0.3722  1.0000
  C   C60       1.0  0.52438  0.04947  0.6278  1.0000
  C   C61       1.0  0.95052  0.4749  0.8722  1.0000
  C   C62       1.0  0.5251  0.47562  0.6278  1.0000
  C   C63       1.0  0.52438  0.04948  0.8722  1.0000
  C   C64       1.0  0.95052  0.4749  0.6278  1.0000
  C   C65       1.0  0.54406  0.10269  0.6775899999999999  1.0000
  C   C66       1.0  0.5251  0.47562  0.8722  1.0000
  C   C67       1.0  0.98254  0.58968  0.94835  1.0000
  C   C68       1.0  0.60714  0.01746  0.55165  1.0000
  C   C69       1.0  0.41032  0.39286  0.94835  1.0000
  C   C70       1.0  0.98254  0.58968  0.55165  1.0000
  C   C71       1.0  0.60714  0.01746  0.94835  1.0000
  C   C72       1.0  0.41032  0.39286  0.55165  1.0000
  C   C73       1.0  0.58968  0.98254  0.44835  1.0000
  C   C74       1.0  0.017460000000000003  0.60714  0.05165  1.0000
  C   C75       1.0  0.39286  0.41032  0.44835  1.0000
  C   C76       1.0  0.45594  0.55863  0.32241  1.0000
  C   C77       1.0  0.58968  0.98254  0.05165  1.0000
  C   C78       1.0  0.017460000000000003  0.60714  0.44835  1.0000
  C   C79       1.0  0.39286  0.41032  0.05165  1.0000
  C   C80       1.0  0.9712100000000001  0.39041  0.89787  1.0000
  C   C81       1.0  0.4192  0.02879  0.60213  1.0000
  C   C82       1.0  0.60959  0.5808  0.89787  1.0000
  C   C83       1.0  0.9712200000000001  0.39041  0.60213  1.0000
  C   C84       1.0  0.4192  0.02879  0.89787  1.0000
  C   C85       1.0  0.60959  0.5808  0.60213  1.0000
  C   C86       1.0  0.39041  0.9712  0.39786999999999995  1.0000
  C   C87       1.0  0.44137  0.8973100000000002  0.17759  1.0000
  C   C88       1.0  0.028790000000000003  0.4192  0.10212999999999998  1.0000
  C   C89       1.0  0.5808  0.60959  0.39786999999999995  1.0000
  C   C90       1.0  0.3904099999999999  0.9712099999999999  0.10212999999999998  1.0000
  C   C91       1.0  0.028800000000000003  0.4192  0.39786999999999995  1.0000
  C   C92       1.0  0.5808  0.60959  0.10212999999999998  1.0000
  C   C93       1.0  0.98808  0.39902  0.94865  1.0000
  C   C94       1.0  0.41094  0.011909999999999999  0.55135  1.0000
  C   C95       1.0  0.60098  0.58906  0.94865  1.0000
  C   C96       1.0  0.98809  0.39902999999999994  0.55135  1.0000
  C   C97       1.0  0.41094  0.01192  0.94865  1.0000
  C   C98       1.0  0.10269  0.54406  0.32241  1.0000
  C   C99       1.0  0.60097  0.58906  0.55135  1.0000
  C   C100      1.0  0.39902000000000004  0.98808  0.44865  1.0000
  C   C101      1.0  0.011920000000000004  0.41094  0.05135  1.0000
  C   C102      1.0  0.58905  0.60098  0.44865  1.0000
  C   C103      1.0  0.39902000000000004  0.98808  0.05135  1.0000
  C   C104      1.0  0.011930000000000003  0.41095  0.44865  1.0000
  C   C105      1.0  0.58906  0.60098  0.05135  1.0000
  C   C106      1.0  0.005099999999999997  0.31173  0.025579999999999995  1.0000
  C   C107      1.0  0.3066200000000001  0.99489  0.47441999999999995  1.0000
  C   C108      1.0  0.68827  0.69337  0.025579999999999995  1.0000
  Cr  Cr1       1.0  0.48763000000000006  0.24118  0.7499999999999999  1.0000
  Cr  Cr2       1.0  0.75355  0.51237  0.7499999999999999  1.0000
  Cr  Cr3       1.0  0.7588199999999998  0.24644999999999997  0.7499999999999999  1.0000
  Cr  Cr4       1.0  0.24118000000000003  0.48763  0.25  1.0000
  Cr  Cr5       1.0  0.51237  0.75355  0.25  1.0000
  Cr  Cr6       1.0  0.24645000000000003  0.7588200000000002  0.25  1.0000
  H   H1        1.0  0.01693  0.77743  0.04484  1.0000
  H   H2        1.0  0.77743  0.01693  0.95516  1.0000
  H   H3        1.0  0.9830600000000002  0.7604900000000001  0.54484  1.0000
  H   H4        1.0  0.23950000000000002  0.22256999999999996  0.95516  1.0000
  H   H5        1.0  0.035030000000000026  0.34686  0.12096  1.0000
  H   H6        1.0  0.31182  0.96496  0.37903999999999993  1.0000
  H   H7        1.0  0.65314  0.68818  0.12096  1.0000
  H   H8        1.0  0.03504000000000002  0.34686  0.37905  1.0000
  H   H9        1.0  0.31182  0.96497  0.12096  1.0000
  H   H10       1.0  0.65314  0.68818  0.37905  1.0000
  H   H11       1.0  0.34685  0.03503  0.62096  1.0000
  H   H12       1.0  0.7605000000000001  0.98308  0.45515  1.0000
  H   H13       1.0  0.96497  0.31183  0.87904  1.0000
  H   H14       1.0  0.6881700000000001  0.65315  0.62096  1.0000
  H   H15       1.0  0.34685999999999995  0.03503  0.87904  1.0000
  H   H16       1.0  0.9649800000000001  0.31183  0.62096  1.0000
  H   H17       1.0  0.6881700000000001  0.65314  0.87904  1.0000
  H   H18       1.0  0.009510000000000024  0.23904000000000003  0.04493  1.0000
  H   H19       1.0  0.22952000000000009  0.99048  0.45507  1.0000
  H   H20       1.0  0.76096  0.77048  0.04493  1.0000
  H   H21       1.0  0.009530000000000025  0.23904000000000003  0.45507  1.0000
  H   H22       1.0  0.22952000000000009  0.99049  0.04493  1.0000
  H   H23       1.0  0.22257000000000002  0.2395  0.04484  1.0000
  H   H24       1.0  0.76096  0.77048  0.45507  1.0000
  H   H25       1.0  0.23903000000000005  0.0095  0.54493  1.0000
  H   H26       1.0  0.9904900000000001  0.22953  0.95507  1.0000
  H   H27       1.0  0.77047  0.7609700000000001  0.54493  1.0000
  H   H28       1.0  0.23903000000000005  0.00951  0.95507  1.0000
  H   H29       1.0  0.9905  0.22953  0.54493  1.0000
  H   H30       1.0  0.77048  0.7609700000000001  0.95507  1.0000
  H   H31       1.0  0.05611  0.69827  0.12228  1.0000
  H   H32       1.0  0.64216  0.94389  0.37772  1.0000
  H   H33       1.0  0.30173  0.35784  0.12228  1.0000
  H   H34       1.0  0.016920000000000036  0.7774200000000001  0.45515  1.0000
  H   H35       1.0  0.05611  0.69826  0.37772  1.0000
  H   H36       1.0  0.64216  0.94389  0.12228  1.0000
  H   H37       1.0  0.30174  0.35784  0.37772  1.0000
  H   H38       1.0  0.6982700000000001  0.05612  0.62228  1.0000
  H   H39       1.0  0.94389  0.64216  0.8777199999999998  1.0000
  H   H40       1.0  0.35785  0.30173  0.62228  1.0000
  H   H41       1.0  0.6982700000000001  0.05611  0.8777199999999998  1.0000
  H   H42       1.0  0.94388  0.64215  0.62228  1.0000
  H   H43       1.0  0.35784  0.30173  0.8777199999999998  1.0000
  H   H44       1.0  0.7605000000000001  0.98307  0.04484  1.0000
  H   H45       1.0  0.22258  0.2395  0.45515  1.0000
  H   H46       1.0  0.77743  0.01694  0.54484  1.0000
  H   H47       1.0  0.9830700000000001  0.7604900000000001  0.95516  1.0000
  H   H48       1.0  0.23951  0.22256999999999996  0.54484  1.0000
  O   O1        1.0  0.46087  0.12093  0.80524  1.0000
  O   O2        1.0  0.12093  0.46087000000000006  0.19476  1.0000
  O   O3        1.0  0.5391299999999998  0.66006  0.30523999999999996  1.0000
  O   O4        1.0  0.3399400000000001  0.8790699999999999  0.19476  1.0000
  O   O5        1.0  0.49891  0.35047  0.8018699999999999  1.0000
  O   O6        1.0  0.85156  0.50109  0.69813  1.0000
  O   O7        1.0  0.64953  0.14844  0.8018699999999999  1.0000
  O   O8        1.0  0.49891  0.35047  0.69813  1.0000
  O   O9        1.0  0.85156  0.50109  0.8018699999999999  1.0000
  O   O10       1.0  0.64953  0.14844  0.69813  1.0000
  O   O11       1.0  0.35047  0.49891  0.30187  1.0000
  O   O12       1.0  0.66006  0.53913  0.69476  1.0000
  O   O13       1.0  0.50109  0.8515599999999999  0.19813  1.0000
  O   O14       1.0  0.14843999999999996  0.64953  0.30187  1.0000
  O   O15       1.0  0.35047  0.49891  0.19813  1.0000
  O   O16       1.0  0.50109  0.8515599999999999  0.30187  1.0000
  O   O17       1.0  0.14843999999999996  0.64953  0.19813  1.0000
  O   O18       1.0  0.66667  0.33333  0.7499999999999999  1.0000
  O   O19       1.0  0.33333  0.66667  0.25  1.0000
  O   O20       1.0  0.87907  0.33994  0.80524  1.0000
  O   O21       1.0  0.46087  0.12093  0.69476  1.0000
  O   O22       1.0  0.66006  0.53913  0.80524  1.0000
  O   O23       1.0  0.87907  0.33994  0.69476  1.0000
  O   O24       1.0  0.12093  0.46087000000000006  0.30523999999999996  1.0000
  O   O25       1.0  0.5391299999999998  0.66006  0.19476  1.0000
  O   O26       1.0  0.3399400000000001  0.8790699999999999  0.30523999999999996  1.0000
