data_image0
_chemical_formula_structural       C72Cr6H46O27
_chemical_formula_sum              "C72 Cr6 H46 O27"
_cell_length_a       10.99301
_cell_length_b       10.96973
_cell_length_c       18.80995
_cell_angle_alpha    90.33191
_cell_angle_beta     90.16866
_cell_angle_gamma    60.54747

_symmetry_space_group_name_H-M    'P 1'
_symmetry_Int_Tables_number       1

loop_
  _symmetry_equiv_pos_as_xyz
  'x,y,z'

loop_
  _atom_site_type_symbol
  _atom_site_label
  _atom_site_symmetry_multiplicity
  _atom_site_fract_x
  _atom_site_fract_y
  _atom_site_fract_z
  _atom_site_occupancy
  C   C1        1.0  0.29044  0.62179  0.61608  1.0000
  C   C2        1.0  0.58187  0.14807  0.71146  1.0000
  C   C3        1.0  0.58004  0.14801  0.78377  1.0000
  C   C4        1.0  0.6581300000000001  0.62556  0.59873  1.0000
  C   C5        1.0  0.86374  0.22332  0.83037  1.0000
  C   C6        1.0  0.9560699999999999  0.25475  0.7966  1.0000
  C   C7        1.0  0.9636499999999999  0.25113  0.72306  1.0000
  C   C8        1.0  0.88121  0.21363  0.68251  1.0000
  C   C9        1.0  0.6742399999999998  0.17630000000000004  0.67543  1.0000
  C   C10       1.0  0.20494999999999997  0.6587800000000001  0.84118  1.0000
  C   C11       1.0  0.23402  0.53282  0.80779  1.0000
  C   C12       1.0  0.65148  0.61072  0.8011  1.0000
  C   C13       1.0  0.24763000000000004  0.52099  0.73249  1.0000
  C   C14       1.0  0.26043000000000005  0.73844  0.73229  1.0000
  C   C15       1.0  0.22897999999999996  0.7554000000000001  0.80439  1.0000
  C   C16       1.0  0.62955  0.22909  0.60306  1.0000
  C   C17       1.0  0.24692999999999996  0.41939000000000004  0.84849  1.0000
  C   C18       1.0  0.25088  0.30455  0.81615  1.0000
  C   C19       1.0  0.25018000000000007  0.29701  0.74292  1.0000
  C   C20       1.0  0.24904000000000004  0.40204  0.70117  1.0000
  C   C21       1.0  0.26012  0.62762  0.69376  1.0000
  C   C22       1.0  0.6603200000000001  0.67482  0.17025  1.0000
  C   C23       1.0  0.73155  0.69279  0.80658  1.0000
  C   C24       1.0  0.72396  0.53949  0.19931  1.0000
  C   C25       1.0  0.75502  0.52475  0.27226  1.0000
  C   C26       1.0  0.6088900000000002  0.77616  0.28919  1.0000
  C   C27       1.0  0.61179  0.79172  0.21592  1.0000
  C   C28       1.0  0.2801799999999999  0.62626  0.39238  1.0000
  C   C29       1.0  0.77838  0.41907  0.15532  1.0000
  C   C30       1.0  0.8909899999999998  0.29453  0.17797  1.0000
  C   C31       1.0  0.9379  0.28315  0.24735  1.0000
  C   C32       1.0  0.8706099999999999  0.39562  0.29441  1.0000
  C   C33       1.0  0.6745399999999999  0.6427200000000001  0.31823  1.0000
  C   C34       1.0  0.68773  0.65715  0.67221  1.0000
  C   C35       1.0  0.64418  0.1758  0.17114  1.0000
  C   C36       1.0  0.50596  0.24731  0.19669  1.0000
  C   C37       1.0  0.48507000000000006  0.25999  0.27059  1.0000
  C   C38       1.0  0.73567  0.16651  0.28818  1.0000
  C   C39       1.0  0.7570800000000001  0.12838  0.21811  1.0000
  C   C40       1.0  0.6454099999999998  0.62068  0.39215  1.0000
  C   C41       1.0  0.38935999999999993  0.29154  0.15094  1.0000
  C   C42       1.0  0.2643099999999998  0.30781000000000003  0.17683  1.0000
  C   C43       1.0  0.24883999999999998  0.29899000000000003  0.24933  1.0000
  C   C44       1.0  0.35309  0.2851  0.29604  1.0000
  C   C45       1.0  0.8458799999999997  0.60364  0.68529  1.0000
  C   C46       1.0  0.6004999999999998  0.23747  0.31477  1.0000
  C   C47       1.0  0.16740999999999998  0.66317  0.17746  1.0000
  C   C48       1.0  0.25042  0.72099  0.2008  1.0000
  C   C49       1.0  0.26108999999999993  0.73719  0.27399  1.0000
  C   C50       1.0  0.14415999999999995  0.6012200000000001  0.2967  1.0000
  C   C51       1.0  0.10831000000000005  0.61166  0.22606  1.0000
  C   C52       1.0  0.58265  0.28584  0.38762  1.0000
  C   C53       1.0  0.30078  0.78516  0.15295  1.0000
  C   C54       1.0  0.3135999999999999  0.8990600000000001  0.17523999999999998  1.0000
  C   C55       1.0  0.3020299999999999  0.93244  0.24701  1.0000
  C   C56       1.0  0.6383899999999998  0.57925  0.72315  1.0000
  C   C57       1.0  0.28888999999999987  0.84536  0.29645  1.0000
  C   C58       1.0  0.22875000000000006  0.65449  0.32035  1.0000
  C   C59       1.0  0.7003799999999999  0.10418  0.89691  1.0000
  C   C60       1.0  0.7561  0.71074  0.88314  1.0000
  C   C61       1.0  0.12265000000000002  0.70446  0.90741  1.0000
  C   C62       1.0  0.67424  0.11023  0.10221  1.0000
  C   C63       1.0  0.69643  0.6908  0.09762  1.0000
  C   C64       1.0  0.64406  0.83492  0.76905  1.0000
  C   C65       1.0  0.09831  0.70676  0.11021  1.0000
  C   C66       1.0  0.61241  0.81432  0.69099  1.0000
  C   C67       1.0  0.68148  0.15851  0.82437  1.0000
  C   C68       1.0  0.87247  0.6146  0.76544  1.0000
  C   C69       1.0  0.20189000000000001  0.95522  0.68783  1.0000
  C   C70       1.0  0.23851999999999998  0.01813  0.62395  1.0000
  C   C71       1.0  0.77577  0.18953  0.79054  1.0000
  C   C72       1.0  0.7779799999999998  0.19180000000000003  0.71484  1.0000
  Cr  Cr1       1.0  0.39293999999999996  0.39795  0.50223  1.0000
  Cr  Cr2       1.0  0.39840000000000003  0.7085  0.50126  1.0000
  Cr  Cr3       1.0  0.7086399999999999  0.39353  0.49645999999999996  1.0000
  Cr  Cr4       1.0  0.93788  0.93832  0.00762  1.0000
  Cr  Cr5       1.0  0.62556  0.9372199999999999  0.99451  1.0000
  Cr  Cr6       1.0  0.93808  0.62501  0.00119  1.0000
  H   H1        1.0  0.70746  0.8879599999999999  0.76956  1.0000
  H   H2        1.0  0.90343  0.19983  0.62649  1.0000
  H   H3        1.0  0.5437999999999997  0.89985  0.79751  1.0000
  H   H4        1.0  0.25688  0.41722  0.90576  1.0000
  H   H5        1.0  0.22095000000000004  0.8467  0.83126  1.0000
  H   H6        1.0  0.25984  0.21848999999999996  0.84791  1.0000
  H   H7        1.0  0.25884  0.20448  0.71852  1.0000
  H   H8        1.0  0.24917000000000006  0.38323  0.64535  1.0000
  H   H9        1.0  0.5574000000000001  0.86782  0.32311  1.0000
  H   H10       1.0  0.7433999999999997  0.4247600000000001  0.10090999999999999  1.0000
  H   H11       1.0  0.5735799999999998  0.8960300000000001  0.19485  1.0000
  H   H12       1.0  0.70125  0.466  0.71414  1.0000
  H   H13       1.0  0.94169  0.20661  0.14171  1.0000
  H   H14       1.0  0.02623  0.18623  0.26506  1.0000
  H   H15       1.0  0.49966  0.8590399999999999  0.6846  1.0000
  H   H16       1.0  0.92012  0.38148  0.34556  1.0000
  H   H17       1.0  0.82598  0.13510000000000003  0.3221  1.0000
  H   H18       1.0  0.39655  0.30503  0.09445  1.0000
  H   H19       1.0  0.86375  0.06044  0.20095  1.0000
  H   H20       1.0  0.17839  0.33079  0.14108  1.0000
  H   H21       1.0  0.15116  0.31582  0.2705  1.0000
  H   H22       1.0  0.3248499999999999  0.29067  0.35091  1.0000
  H   H23       1.0  0.9384  0.50882  0.78756  1.0000
  H   H24       1.0  0.10375000000000004  0.55338  0.33302  1.0000
  H   H25       1.0  0.31258999999999987  0.7596600000000001  0.09677  1.0000
  H   H26       1.0  0.03309000000000001  0.58025  0.20954  1.0000
  H   H27       1.0  0.64604  0.87144  0.65439  1.0000
  H   H28       1.0  0.3352299999999998  0.9596200000000001  0.13718  1.0000
  H   H29       1.0  0.31434  0.019570000000000004  0.26496  1.0000
  H   H30       1.0  0.29162  0.87419  0.35075  1.0000
  H   H31       1.0  0.93212  0.67164  0.77183  1.0000
  H   H32       1.0  0.8801  0.66731  0.65404  1.0000
  H   H33       1.0  0.70549  0.5113  0.83123  1.0000
  H   H34       1.0  0.9110600000000001  0.49487999999999993  0.6667  1.0000
  H   H35       1.0  0.5453800000000001  0.67325  0.82464  1.0000
  H   H36       1.0  0.5304199999999998  0.6041800000000002  0.7116  1.0000
  H   H37       1.0  0.19027999999999998  0.01889  0.73585  1.0000
  H   H38       1.0  0.10153999999999998  0.95742  0.67549  1.0000
  H   H39       1.0  0.27244  0.94759  0.57726  1.0000
  H   H40       1.0  0.14681000000000002  0.11713999999999998  0.60698  1.0000
  H   H41       1.0  0.32365  0.04062  0.63676  1.0000
  H   H42       1.0  0.50558  0.13036  0.6836  1.0000
  H   H43       1.0  0.8566299999999999  0.23421  0.88755  1.0000
  H   H44       1.0  0.5062600000000002  0.12267  0.80716  1.0000
  H   H45       1.0  0.021  0.2824  0.82805  1.0000
  H   H46       1.0  0.036489999999999995  0.2738  0.69673  1.0000
  O   O1        1.0  0.50734  0.25569  0.58143  1.0000
  O   O2        1.0  0.8372900000000001  0.59324  0.91524  1.0000
  O   O3        1.0  0.0653199999999999  0.6353100000000002  0.93158  1.0000
  O   O4        1.0  0.28036  0.52738  0.57891  1.0000
  O   O5        1.0  0.06847000000000002  0.82862  0.09185  1.0000
  O   O6        1.0  0.79915  0.0572  0.07935  1.0000
  O   O7        1.0  0.58522  0.08018  0.07677  1.0000
  O   O8        1.0  0.6271700000000001  0.80948  0.06705  1.0000
  O   O9        1.0  0.8161999999999998  0.5964100000000001  0.0765  1.0000
  O   O10       1.0  0.045770000000000005  0.63824  0.08107  1.0000
  O   O11       1.0  0.8338400000000002  0.83352  0.00111  1.0000
  O   O12       1.0  0.52451  0.69582  0.42405  1.0000
  O   O13       1.0  0.2606  0.73961  0.58458  1.0000
  O   O14       1.0  0.53237  0.69505  0.57383  1.0000
  O   O15       1.0  0.74485  0.5034300000000002  0.57638  1.0000
  O   O16       1.0  0.69908  0.2765  0.57195  1.0000
  O   O17       1.0  0.49885999999999997  0.25652  0.41986  1.0000
  O   O18       1.0  0.27248999999999995  0.52815  0.42914  1.0000
  O   O19       1.0  0.25211  0.74044  0.42301  1.0000
  O   O20       1.0  0.3108099999999999  0.81869  0.70078  1.0000
  O   O21       1.0  0.7363700000000001  0.50426  0.41481  1.0000
  O   O22       1.0  0.69122  0.27727  0.42218  1.0000
  O   O23       1.0  0.49999  0.49999  0.4999799999999999  1.0000
  O   O24       1.0  0.08956999999999989  0.82545  0.93059  1.0000
  O   O25       1.0  0.8187  0.05426000000000001  0.92986  1.0000
  O   O26       1.0  0.60631  0.07701  0.9155199999999999  1.0000
  O   O27       1.0  0.6467300000000001  0.80654  0.9175600000000002  1.0000
