data_image0
_chemical_formula_structural       C42Cr6H15O26NHCH3C3H7NHCH3
_chemical_formula_sum              "C47 Cr6 H30 O26 N2"
_cell_length_a       10.79355
_cell_length_b       10.63059
_cell_length_c       16.94169
_cell_angle_alpha    80.63381
_cell_angle_beta     99.22295000000001
_cell_angle_gamma    118.3911

_space_group_name_H-M_alt    "P 1"
_space_group_IT_number       1

loop_
  _space_group_symop_operation_xyz
  'x, y, z'

loop_
  _atom_site_type_symbol
  _atom_site_label
  _atom_site_symmetry_multiplicity
  _atom_site_fract_x
  _atom_site_fract_y
  _atom_site_fract_z
  _atom_site_occupancy
  C   C1        1.0  0.38360000000000005  0.28338  0.6317200000000001  1.0000
  C   C2        1.0  0.5129300000000001  0.70918  0.73571  1.0000
  C   C3        1.0  0.4903100000000001  0.72502  0.8117700000000002  1.0000
  C   C4        1.0  0.0982299999999999  0.48795999999999995  0.772  1.0000
  C   C5        1.0  0.12316000000000002  0.46948999999999996  0.6899400000000002  1.0000
  C   C6        1.0  0.39941000000000004  0.61613  0.6862500000000002  1.0000
  C   C7        1.0  0.85037  0.67009  0.7022800000000001  1.0000
  C   C8        1.0  0.89752  0.70439  0.7690100000000001  1.0000
  C   C9        1.0  0.36401000000000006  0.23374  0.7144  1.0000
  C   C10       1.0  0.33234  0.1872  0.78171  1.0000
  C   C11       1.0  0.33811  0.6635099999999999  0.27757000000000004  1.0000
  C   C12       1.0  0.4133500000000001  0.61938  0.6015900000000002  1.0000
  C   C13       1.0  0.32513  0.67191  0.20660000000000006  1.0000
  C   C14       1.0  0.80459  0.64577  0.15045  1.0000
  C   C15       1.0  0.84438  0.56259  0.21162000000000006  1.0000
  C   C16       1.0  0.8227  0.55323  0.28886  1.0000
  C   C17       1.0  0.7033600000000001  0.70062  0.24951  1.0000
  C   C18       1.0  0.7349200000000001  0.71777  0.16997  1.0000
  C   C19       1.0  0.8317200000000001  0.41331  0.22072  1.0000
  C   C20       1.0  0.82334  0.41001  0.31142  1.0000
  C   C21       1.0  0.74452  0.61424  0.30886  1.0000
  C   C22       1.0  0.26621999999999996  0.06408999999999998  0.17883000000000002  1.0000
  C   C23       1.0  0.78141  0.62152  0.62599  1.0000
  C   C24       1.0  0.17148000000000002  0.09816999999999997  0.20544000000000007  1.0000
  C   C25       1.0  0.18729  0.12824  0.28415  1.0000
  C   C26       1.0  0.36772  0.05258000000000001  0.31631  1.0000
  C   C27       1.0  0.35709  0.028930000000000004  0.23602  1.0000
  C   C28       1.0  0.019989999999999994  0.99356  0.2091  1.0000
  C   C29       1.0  0.0356  0.02318  0.29414  1.0000
  C   C30       1.0  0.29995  0.12588  0.33683  1.0000
  C   C31       1.0  0.94778  0.7251600000000001  0.85136  1.0000
  C   C32       1.0  0.3156700000000001  0.70524  0.8987000000000003  1.0000
  C   C33       1.0  0.28575  0.11836  0.8586  1.0000
  C   C34       1.0  0.34659  0.21657999999999997  0.4035400000000001  1.0000
  C   C35       1.0  0.8766600000000001  0.68533  0.07884  1.0000
  C   C36       1.0  0.31328000000000006  0.69969  0.12332000000000001  1.0000
  C   C37       1.0  0.24759  0.04004  0.09499  1.0000
  C   C38       1.0  0.36651000000000006  0.6543099999999998  0.3608000000000001  1.0000
  C   C39       1.0  0.7060899999999999  0.58559  0.38916  1.0000
  C   C40       1.0  0.3534  0.64893  0.83825  1.0000
  C   C41       1.0  0.2518900000000001  0.53468  0.79606  1.0000
  C   C42       1.0  0.27481  0.51835  0.72127  1.0000
  Cr  Cr1       1.0  0.60844  0.3890799999999999  0.5196800000000001  1.0000
  Cr  Cr2       1.0  0.28864  0.40008999999999995  0.4907600000000001  1.0000
  Cr  Cr3       1.0  0.60294  0.7108  0.48951  1.0000
  Cr  Cr4       1.0  0.05252999999999998  0.94756  0.96421  1.0000
  Cr  Cr5       1.0  0.05996999999999995  0.6267999999999999  0.9929200000000001  1.0000
  Cr  Cr6       1.0  0.37332  0.93844  0.99537  1.0000
  H   H1        1.0  0.6151  0.7781399999999998  0.7132200000000002  1.0000
  H   H2        1.0  0.73276  0.33687  0.18782000000000001  1.0000
  H   H3        1.0  0.42852  0.014260000000000004  0.35982  1.0000
  H   H4        1.0  0.41826000000000013  0.9829300000000001  0.21905000000000005  1.0000
  H   H5        1.0  0.003179999999999932  0.88384  0.20475  1.0000
  H   H6        1.0  0.94892  0.02874000000000001  0.16786  1.0000
  H   H7        1.0  0.97131  0.07404  0.30256  1.0000
  H   H8        1.0  0.022489999999999996  0.92893  0.33834  1.0000
  H   H9        1.0  0.5756500000000001  0.8081299999999999  0.8452900000000002  1.0000
  H   H10       1.0  0.0696400000000001  0.57572  0.77048  1.0000
  H   H11       1.0  0.02981999999999999  0.38482  0.80574  1.0000
  H   H12       1.0  0.06975000000000006  0.35553  0.6764500000000002  1.0000
  H   H13       1.0  0.10775000000000001  0.54609  0.64126  1.0000
  H   H14       1.0  0.64701  0.75353  0.26447  1.0000
  H   H15       1.0  0.70927  0.78906  0.12514  1.0000
  O   O1        1.0  0.75402  0.49759  0.60993  1.0000
  O   O2        1.0  0.29508  0.53362  0.39789  1.0000
  O   O3        1.0  0.48528  0.74662  0.38844  1.0000
  O   O4        1.0  0.72055  0.69622  0.4200100000000001  1.0000
  O   O5        1.0  0.50001  0.49998999999999993  0.49998000000000004  1.0000
  O   O6        1.0  0.16332000000000008  0.09289999999999993  0.8744500000000002  1.0000
  O   O7        1.0  0.93465  0.8220800000000001  0.88284  1.0000
  O   O8        1.0  0.91552  0.60414  0.89367  1.0000
  O   O9        1.0  0.1917600000000001  0.63811  0.9232300000000002  1.0000
  O   O10       1.0  0.4061800000000001  0.82693  0.92066  1.0000
  O   O11       1.0  0.3586200000000001  0.06286999999999995  0.9019500000000003  1.0000
  O   O12       1.0  0.48142000000000007  0.27139  0.60063  1.0000
  O   O13       1.0  0.16391  0.08546  0.050210000000000005  1.0000
  O   O14       1.0  0.9352  0.81517  0.04577  1.0000
  O   O15       1.0  0.9161200000000002  0.59669  0.06943  1.0000
  O   O16       1.0  0.19230999999999995  0.6312  0.08617  1.0000
  O   O17       1.0  0.40677  0.81948  0.09642  1.0000
  O   O18       1.0  0.35917000000000004  0.05596  0.06488  1.0000
  O   O19       1.0  0.16194000000000008  0.8376000000000001  0.9841600000000001  1.0000
  O   O20       1.0  0.26381  0.25455  0.58959  1.0000
  O   O21       1.0  0.30082  0.5311999999999999  0.5608900000000002  1.0000
  O   O22       1.0  0.49148  0.74402  0.5642700000000003  1.0000
  O   O23       1.0  0.7262900000000002  0.6938  0.58301  1.0000
  O   O24       1.0  0.7478300000000001  0.5001899999999999  0.4340900000000001  1.0000
  O   O25       1.0  0.47568000000000005  0.27379999999999993  0.43763000000000013  1.0000
  O   O26       1.0  0.25762  0.25716  0.41375000000000006  1.0000
  N   N1        1.0  0.68883  0.29848  0.33988  1.0000
  H   H16       1.0  0.6057999999999999  0.26041999999999993  0.2963300000000001  1.0000
  C   C43       1.0  0.68745  0.19880999999999996  0.41024000000000005  1.0000
  H   H17       1.0  0.5869999999999999  0.14291999999999994  0.4366600000000001  1.0000
  H   H18       1.0  0.75842  0.25765  0.46068  1.0000
  H   H19       1.0  0.70541  0.11214  0.39445  1.0000
  C   C44       1.0  0.9588600000000002  0.42734000000000005  0.36816  1.0000
  C   C45       1.0  0.98504  0.29483999999999994  0.3751700000000001  1.0000
  C   C46       1.0  0.9975400000000001  0.22832000000000002  0.4622400000000001  1.0000
  H   H20       1.0  0.03895999999999999  0.15051  0.46462  1.0000
  H   H21       1.0  0.06466  0.31274  0.50269  1.0000
  H   H22       1.0  0.89565  0.16247  0.48782  1.0000
  H   H23       1.0  0.90074  0.21166000000000001  0.339  1.0000
  H   H24       1.0  0.08208999999999998  0.32658  0.3465  1.0000
  H   H25       1.0  0.052090000000000025  0.5233  0.34448  1.0000
  H   H26       1.0  0.9541900000000002  0.4531  0.42815000000000003  1.0000
  N   N2        1.0  0.95839  0.41126000000000007  0.20402  1.0000
  H   H27       1.0  0.04694  0.50894  0.19896  1.0000
  C   C47       1.0  0.93902  0.30943  0.15037000000000006  1.0000
  H   H28       1.0  0.04076  0.30753  0.14957  1.0000
  H   H29       1.0  0.90376  0.34048  0.08850000000000002  1.0000
  H   H30       1.0  0.8590900000000001  0.20005999999999996  0.17149  1.0000
