data_image0
_chemical_formula_structural       Br4C92Cr12H44O52
_chemical_formula_sum              "Br4 C92 Cr12 H44 O52"
_cell_length_a       18.94948
_cell_length_b       10.91559
_cell_length_c       18.84558
_cell_angle_alpha    90.09799
_cell_angle_beta     90.26821
_cell_angle_gamma    89.72767

_space_group_name_H-M_alt    "P 1"
_space_group_IT_number       1

loop_
  _space_group_symop_operation_xyz
  'x, y, z'

loop_
  _atom_site_type_symbol
  _atom_site_label
  _atom_site_symmetry_multiplicity
  _atom_site_fract_x
  _atom_site_fract_y
  _atom_site_fract_z
  _atom_site_occupancy
  Br  Br1       1.0  0.4982  0.8914100000000001  0.41466  1.0000
  Br  Br2       1.0  0.47725999999999996  0.9097400000000001  0.58757  1.0000
  Br  Br3       1.0  0.99829  0.39143000000000006  0.4146300000000001  1.0000
  Br  Br4       1.0  0.97738  0.40967000000000003  0.5875400000000001  1.0000
  C   C1        1.0  0.72663  0.9566500000000002  0.8541600000000001  1.0000
  C   C2        1.0  0.24218  0.42186  0.92695  1.0000
  C   C3        1.0  0.24914999999999998  0.90168  0.07886  1.0000
  C   C4        1.0  0.74218  0.9218600000000001  0.92695  1.0000
  C   C5        1.0  0.79021  0.30951  0.04736  1.0000
  C   C6        1.0  0.18717  0.37088  0.9662300000000001  1.0000
  C   C7        1.0  0.29023  0.80956  0.04735  1.0000
  C   C8        1.0  0.68716  0.87091  0.9662300000000001  1.0000
  C   C9        1.0  0.78025  0.27974000000000004  0.9766300000000001  1.0000
  C   C10       1.0  0.1909  0.36750000000000005  0.03879  1.0000
  C   C11       1.0  0.28027  0.77979  0.9766200000000002  1.0000
  C   C12       1.0  0.27247  0.95437  0.14653  1.0000
  C   C13       1.0  0.69089  0.86753  0.03879  1.0000
  C   C14       1.0  0.72832  0.33956  0.9362800000000001  1.0000
  C   C15       1.0  0.25261  0.4039400000000001  0.07396  1.0000
  C   C16       1.0  0.22831999999999997  0.83957  0.9362800000000001  1.0000
  C   C17       1.0  0.75261  0.9039500000000003  0.07397  1.0000
  C   C18       1.0  0.52894  0.27341  0.52785  1.0000
  C   C19       1.0  0.52671  0.26897  0.45558  1.0000
  C   C20       1.0  0.0289  0.77342  0.5278600000000001  1.0000
  C   C21       1.0  0.02668  0.76899  0.45558  1.0000
  C   C22       1.0  0.50739  0.16085  0.42173  1.0000
  C   C23       1.0  0.22663  0.45665000000000006  0.8541600000000001  1.0000
  C   C24       1.0  0.51458  0.16853  0.5683  1.0000
  C   C25       1.0  0.007389999999999999  0.66087  0.42172  1.0000
  C   C26       1.0  0.014579999999999997  0.6685300000000001  0.5683  1.0000
  C   C27       1.0  0.50195  0.05021  0.46054  1.0000
  C   C28       1.0  0.50119  0.05545  0.53459  1.0000
  C   C29       1.0  0.00199  0.55021  0.46052000000000004  1.0000
  C   C30       1.0  0.00124  0.55543  0.53458  1.0000
  C   C31       1.0  0.79402  0.31914  0.52983  1.0000
  C   C32       1.0  0.19836  0.3371100000000001  0.46673  1.0000
  C   C33       1.0  0.29386  0.81882  0.52977  1.0000
  C   C34       1.0  0.77246  0.45437  0.14653  1.0000
  C   C35       1.0  0.69829  0.8372200000000001  0.46671  1.0000
  C   C36       1.0  0.79616  0.33047  0.45726  1.0000
  C   C37       1.0  0.19621  0.34523000000000004  0.5392700000000001  1.0000
  C   C38       1.0  0.296  0.83021  0.45720000000000005  1.0000
  C   C39       1.0  0.69614  0.84532  0.53925  1.0000
  C   C40       1.0  0.55599  0.18162  0.8586300000000001  1.0000
  C   C41       1.0  0.47204  0.17727  0.15068  1.0000
  C   C42       1.0  0.05599  0.68162  0.8586300000000001  1.0000
  C   C43       1.0  0.97204  0.67727  0.15069  1.0000
  C   C44       1.0  0.75236  0.4154300000000001  0.42318  1.0000
  C   C45       1.0  0.69317  0.45479  0.04038  1.0000
  C   C46       1.0  0.24536999999999998  0.41739  0.57566  1.0000
  C   C47       1.0  0.25233  0.9154000000000002  0.42317  1.0000
  C   C48       1.0  0.74536  0.91738  0.57565  1.0000
  C   C49       1.0  0.70169  0.4812600000000001  0.46222  1.0000
  C   C50       1.0  0.3004  0.47381  0.53848  1.0000
  C   C51       1.0  0.20176  0.9814300000000002  0.46225  1.0000
  C   C52       1.0  0.80044  0.9737100000000001  0.5385000000000001  1.0000
  C   C53       1.0  0.69808  0.46702000000000005  0.5355100000000002  1.0000
  C   C54       1.0  0.30423  0.46156  0.46504  1.0000
  C   C55       1.0  0.19817  0.9671700000000002  0.53553  1.0000
  C   C56       1.0  0.30389  0.46078  0.9614500000000001  1.0000
  C   C57       1.0  0.80427  0.96146  0.4650500000000001  1.0000
  C   C58       1.0  0.74568  0.3881200000000001  0.5698  1.0000
  C   C59       1.0  0.25244  0.3942800000000001  0.42878  1.0000
  C   C60       1.0  0.24566000000000002  0.8880300000000002  0.56978  1.0000
  C   C61       1.0  0.75243  0.89429  0.42878  1.0000
  C   C62       1.0  0.72418  0.31331  0.8601100000000002  1.0000
  C   C63       1.0  0.26198  0.36291  0.1467  1.0000
  C   C64       1.0  0.22417999999999996  0.8133100000000001  0.8601100000000002  1.0000
  C   C65       1.0  0.76197  0.8629100000000001  0.1467  1.0000
  C   C66       1.0  0.72788  0.95508  0.64739  1.0000
  C   C67       1.0  0.19315  0.9547700000000001  0.04038  1.0000
  C   C68       1.0  0.27176  0.9547  0.35234  1.0000
  C   C69       1.0  0.22787999999999997  0.45509  0.64738  1.0000
  C   C70       1.0  0.77177  0.45471000000000006  0.35235  1.0000
  C   C71       1.0  0.53175  0.17627000000000004  0.64301  1.0000
  C   C72       1.0  0.4727700000000001  0.17467  0.35363000000000006  1.0000
  C   C73       1.0  0.03175  0.67627  0.64301  1.0000
  C   C74       1.0  0.97277  0.6746800000000001  0.35363000000000006  1.0000
  C   C75       1.0  0.73824  0.3578200000000001  0.64443  1.0000
  C   C76       1.0  0.26124  0.35957  0.35491  1.0000
  C   C77       1.0  0.23823  0.8578  0.6444200000000001  1.0000
  C   C78       1.0  0.80389  0.9607800000000001  0.9614500000000001  1.0000
  C   C79       1.0  0.76124  0.8595700000000002  0.35491  1.0000
  C   C80       1.0  0.53014  0.17554000000000003  0.9312900000000001  1.0000
  C   C81       1.0  0.51346  0.1681  0.08589  1.0000
  C   C82       1.0  0.03015  0.67554  0.9312900000000001  1.0000
  C   C83       1.0  0.01346  0.6681  0.08589  1.0000
  C   C84       1.0  0.50999  0.0689  0.04391  1.0000
  C   C85       1.0  0.5338  0.07232  0.9697500000000001  1.0000
  C   C86       1.0  0.01  0.5689  0.04391  1.0000
  C   C87       1.0  0.03381  0.57232  0.9697600000000001  1.0000
  C   C88       1.0  0.68242  0.4230900000000001  0.96938  1.0000
  C   C89       1.0  0.74915  0.40167  0.07886  1.0000
  C   C90       1.0  0.30937  0.45093  0.035010000000000006  1.0000
  C   C91       1.0  0.1824  0.9230700000000002  0.96938  1.0000
  C   C92       1.0  0.80937  0.95093  0.035010000000000006  1.0000
  Cr  Cr1       1.0  0.76927  0.16373  0.75071  1.0000
  Cr  Cr2       1.0  0.38584  0.32250000000000006  0.25229  1.0000
  Cr  Cr3       1.0  0.11415999999999998  0.8225  0.74771  1.0000
  Cr  Cr4       1.0  0.8858399999999998  0.8225  0.25229  1.0000
  Cr  Cr5       1.0  0.23072999999999996  0.16373  0.24929  1.0000
  Cr  Cr6       1.0  0.26927  0.6637300000000002  0.75071  1.0000
  Cr  Cr7       1.0  0.73073  0.6637300000000002  0.24929  1.0000
  Cr  Cr8       1.0  0.61262  0.009790000000000002  0.7487800000000001  1.0000
  Cr  Cr9       1.0  0.38738  0.009790000000000002  0.25122000000000005  1.0000
  Cr  Cr10      1.0  0.11262000000000001  0.50979  0.7487800000000001  1.0000
  Cr  Cr11      1.0  0.88738  0.50979  0.25122000000000005  1.0000
  Cr  Cr12      1.0  0.61416  0.32250000000000006  0.74771  1.0000
  H   H1        1.0  0.48547  0.98516  0.06246  1.0000
  H   H2        1.0  0.33888  0.53002  0.5657400000000001  1.0000
  H   H3        1.0  0.16745  0.04787000000000002  0.43682000000000004  1.0000
  H   H4        1.0  0.83894  0.029870000000000008  0.56576  1.0000
  H   H5        1.0  0.65885  0.5179  0.56522  1.0000
  H   H6        1.0  0.34754  0.50349  0.43689  1.0000
  H   H7        1.0  0.15906  0.01824  0.56528  1.0000
  H   H8        1.0  0.8476299999999999  0.003300000000000001  0.43692  1.0000
  H   H9        1.0  0.54026  0.2503  0.06829  1.0000
  H   H10       1.0  0.50967  0.25973  0.9543  1.0000
  H   H11       1.0  0.04026  0.7503100000000001  0.06829  1.0000
  H   H12       1.0  0.55009  0.98699  0.9452200000000001  1.0000
  H   H13       1.0  0.00967  0.75973  0.9543  1.0000
  H   H14       1.0  0.64065  0.46814000000000006  0.93977  1.0000
  H   H15       1.0  0.35821  0.47677  0.06096  1.0000
  H   H16       1.0  0.14062  0.9681  0.9397900000000001  1.0000
  H   H17       1.0  0.8582199999999999  0.97675  0.06096  1.0000
  H   H18       1.0  0.6604  0.52557  0.06374  1.0000
  H   H19       1.0  0.34702  0.5001  0.9318200000000001  1.0000
  H   H20       1.0  0.16037  0.025520000000000004  0.06375  1.0000
  H   H21       1.0  0.84703  9.000000000000029e-05  0.9318200000000001  1.0000
  H   H22       1.0  0.83305  0.26555  0.076  1.0000
  H   H23       1.0  0.98549  0.48516  0.06246  1.0000
  H   H24       1.0  0.13923  0.3380000000000001  0.9413700000000002  1.0000
  H   H25       1.0  0.33309  0.76563  0.07599  1.0000
  H   H26       1.0  0.63923  0.83804  0.9413800000000001  1.0000
  H   H27       1.0  0.81542  0.21356  0.95257  1.0000
  H   H28       1.0  0.1463  0.32959  0.06689000000000002  1.0000
  H   H29       1.0  0.31546  0.7136500000000001  0.9525500000000001  1.0000
  H   H30       1.0  0.64629  0.8296300000000001  0.0669  1.0000
  H   H31       1.0  0.54275  0.36049  0.55171  1.0000
  H   H32       1.0  0.53453  0.35342  0.42649  1.0000
  H   H33       1.0  0.04267  0.86051  0.55172  1.0000
  H   H34       1.0  0.05011  0.48699  0.94523  1.0000
  H   H35       1.0  0.03447  0.8534600000000001  0.42650000000000005  1.0000
  H   H36       1.0  0.82993  0.25423  0.55431  1.0000
  H   H37       1.0  0.15841  0.28199  0.44086000000000003  1.0000
  H   H38       1.0  0.32966  0.7537300000000001  0.55423  1.0000
  H   H39       1.0  0.6583  0.78218  0.44083  1.0000
  H   H40       1.0  0.83521  0.27764  0.42841000000000007  1.0000
  H   H41       1.0  0.15325  0.29997  0.56628  1.0000
  H   H42       1.0  0.33494  0.77722  0.42831  1.0000
  H   H43       1.0  0.65313  0.8001500000000002  0.56624  1.0000
  H   H44       1.0  0.66728  0.54754  0.43677  1.0000
  O   O1        1.0  0.78432  0.2904300000000001  0.8305100000000001  1.0000
  O   O2        1.0  0.45608  0.28218  0.33321  1.0000
  O   O3        1.0  0.04392  0.78218  0.6667900000000001  1.0000
  O   O4        1.0  0.95608  0.78218  0.33321  1.0000
  O   O5        1.0  0.67904  0.37416  0.67443  1.0000
  O   O6        1.0  0.32096  0.37416  0.32557  1.0000
  O   O7        1.0  0.17904  0.87416  0.67443  1.0000
  O   O8        1.0  0.82096  0.87416  0.32557  1.0000
  O   O9        1.0  0.66535  0.16534000000000001  0.74907  1.0000
  O   O10       1.0  0.33465  0.16534000000000001  0.25093  1.0000
  O   O11       1.0  0.16535  0.6653400000000002  0.74907  1.0000
  O   O12       1.0  0.21567999999999998  0.2904300000000001  0.16949  1.0000
  O   O13       1.0  0.83465  0.6653400000000002  0.25093  1.0000
  O   O14       1.0  0.76264  0.04096  0.8252  1.0000
  O   O15       1.0  0.23735999999999996  0.04096  0.1748  1.0000
  O   O16       1.0  0.26264  0.5409600000000001  0.8252  1.0000
  O   O17       1.0  0.73736  0.5409600000000001  0.1748  1.0000
  O   O18       1.0  0.6674  0.92397  0.82995  1.0000
  O   O19       1.0  0.3326  0.92397  0.17005  1.0000
  O   O20       1.0  0.1674  0.42397000000000007  0.82995  1.0000
  O   O21       1.0  0.8326  0.42397000000000007  0.17005  1.0000
  O   O22       1.0  0.55396  0.08134  0.82178  1.0000
  O   O23       1.0  0.28432  0.7904300000000001  0.8305100000000001  1.0000
  O   O24       1.0  0.44604  0.08134  0.17822  1.0000
  O   O25       1.0  0.05396  0.5813400000000001  0.82178  1.0000
  O   O26       1.0  0.94604  0.5813400000000001  0.17822  1.0000
  O   O27       1.0  0.54318  0.28324000000000005  0.8267400000000001  1.0000
  O   O28       1.0  0.45682  0.28324000000000005  0.17326  1.0000
  O   O29       1.0  0.04318  0.7832400000000002  0.8267400000000001  1.0000
  O   O30       1.0  0.95682  0.7832400000000002  0.17326  1.0000
  O   O31       1.0  0.67836  0.37514  0.8227100000000002  1.0000
  O   O32       1.0  0.32164  0.37514  0.17729  1.0000
  O   O33       1.0  0.17836  0.87514  0.8227100000000002  1.0000
  O   O34       1.0  0.71568  0.7904300000000001  0.16949  1.0000
  O   O35       1.0  0.82164  0.87514  0.17729  1.0000
  O   O36       1.0  0.78505  0.28938  0.67056  1.0000
  O   O37       1.0  0.21494999999999997  0.28938  0.32944000000000007  1.0000
  O   O38       1.0  0.28505  0.78938  0.67056  1.0000
  O   O39       1.0  0.71495  0.78938  0.32944000000000007  1.0000
  O   O40       1.0  0.76332  0.03999  0.67693  1.0000
  O   O41       1.0  0.23668  0.03999  0.32307  1.0000
  O   O42       1.0  0.26332  0.5399900000000001  0.67693  1.0000
  O   O43       1.0  0.73668  0.5399900000000001  0.32307  1.0000
  O   O44       1.0  0.66813  0.92292  0.67  1.0000
  O   O45       1.0  0.55464  0.08037000000000001  0.6735  1.0000
  O   O46       1.0  0.33187  0.92292  0.33  1.0000
  O   O47       1.0  0.16813  0.42292  0.67  1.0000
  O   O48       1.0  0.83187  0.42292  0.33  1.0000
  O   O49       1.0  0.44536  0.08037000000000001  0.3265  1.0000
  O   O50       1.0  0.05464  0.58037  0.6735  1.0000
  O   O51       1.0  0.94536  0.58037  0.3265  1.0000
  O   O52       1.0  0.54392  0.28218  0.6667900000000001  1.0000
