data_image0
_chemical_formula_structural       O4C2O4C2O2V2C4H4C36H12O4C2O4C2O2V2NO2NO2NO2NO2NO2NO3CH2CH2CH3OCH2CH2CH3
_chemical_formula_sum              "O34 C54 V4 H30 N6"
_cell_length_a       19.35514
_cell_length_b       7.280913
_cell_length_c       17.754491
_cell_angle_alpha    89.163314
_cell_angle_beta     107.336798
_cell_angle_gamma    89.272728

_symmetry_space_group_name_H-M    'P 1'
_symmetry_Int_Tables_number       1

loop_
  _symmetry_equiv_pos_as_xyz
  'x,y,z'

loop_
  _atom_site_type_symbol
  _atom_site_label
  _atom_site_symmetry_multiplicity
  _atom_site_fract_x
  _atom_site_fract_y
  _atom_site_fract_z
  _atom_site_occupancy
  O   O1        1.0  0.41482  0.49432  0.41679  1.0000
  O   O2        1.0  0.58518  0.99432  0.58321  1.0000
  O   O3        1.0  0.56027  0.8195  0.43014  1.0000
  O   O4        1.0  0.43973  0.3195  0.56986  1.0000
  C   C1        1.0  0.5811420000000002  0.655509  0.415048  1.0000
  C   C2        1.0  0.418986  0.155286  0.584897  1.0000
  O   O5        1.0  0.41384  0.82374  0.40744  1.0000
  O   O6        1.0  0.58616  0.32374  0.59256  1.0000
  O   O7        1.0  0.43770999999999993  0.99859  0.56035  1.0000
  O   O8        1.0  0.56229  0.4985900000000001  0.43965  1.0000
  C   C3        1.0  0.38865000000000005  0.6562889999999999  0.3838030000000001  1.0000
  C   C4        1.0  0.612015  0.15243  0.61488  1.0000
  O   O9        1.0  0.508  0.66229  0.5502  1.0000
  O   O10       1.0  0.492  0.16229000000000002  0.4498  1.0000
  V   V1        1.0  0.49852  0.93538  0.49069000000000007  1.0000
  V   V2        1.0  0.50148  0.43538  0.50931  1.0000
  C   C5        1.0  0.7610750000000001  0.193215  0.818113  1.0000
  C   C6        1.0  0.22702899999999998  0.73571  0.189554  1.0000
  C   C7        1.0  0.825498  0.128038  0.814668  1.0000
  C   C8        1.0  0.17537200000000006  0.611094  0.184608  1.0000
  H   H1        1.0  0.7566069999999999  0.232341  0.875287  1.0000
  H   H2        1.0  0.22043299999999996  0.831192  0.140107  1.0000
  H   H3        1.0  0.8344809999999999  0.095176  0.759005  1.0000
  H   H4        1.0  0.177538  0.515794  0.232678  1.0000
  C   C9        1.0  0.695687  0.227248  0.748131  1.0000
  C   C10       1.0  0.289342  0.770717  0.2611530000000001  1.0000
  C   C11       1.0  0.680002  0.12533699999999998  0.6814030000000002  1.0000
  C   C12       1.0  0.325965  0.634751  0.311104  1.0000
  C   C13       1.0  0.294354  0.15811099999999995  0.5975790000000002  1.0000
  C   C14       1.0  0.692641  0.758262  0.385406  1.0000
  C   C15       1.0  0.369415  0.145986  0.633549  1.0000
  C   C16       1.0  0.631097  0.647928  0.366607  1.0000
  C   C17       1.0  0.396805  0.123129  0.715717  1.0000
  C   C18       1.0  0.617622  0.531478  0.301672  1.0000
  C   C19       1.0  0.3495190000000001  0.115378  0.762329  1.0000
  C   C20       1.0  0.664301  0.528389  0.254345  1.0000
  C   C21       1.0  0.27394  0.13035  0.726239  1.0000
  C   C22       1.0  0.726744  0.637659  0.274059  1.0000
  C   C23       1.0  0.24641600000000008  0.14979  0.6433930000000002  1.0000
  C   C24       1.0  0.74121  0.751274  0.340477  1.0000
  C   C25       1.0  0.376472  0.09243900000000001  0.8443820000000002  1.0000
  C   C26       1.0  0.649354  0.41899900000000007  0.18733700000000006  1.0000
  C   C27       1.0  0.32936200000000004  0.089738  0.890623  1.0000
  C   C28       1.0  0.695052  0.4197900000000001  0.139478  1.0000
  C   C29       1.0  0.25408  0.11225300000000006  0.856053  1.0000
  C   C30       1.0  0.757661  0.527263  0.15843  1.0000
  C   C31       1.0  0.225958  0.126764  0.773012  1.0000
  C   C32       1.0  0.774468  0.6341450000000002  0.227114  1.0000
  C   C33       1.0  0.15022500000000005  0.138926  0.7365800000000002  1.0000
  C   C34       1.0  0.8381599999999999  0.739464  0.24845900000000004  1.0000
  C   C35       1.0  0.123939  0.153213  0.653571  1.0000
  C   C36       1.0  0.8524689999999999  0.847989  0.316354  1.0000
  C   C37       1.0  0.17144  0.160302  0.607774  1.0000
  C   C38       1.0  0.804091  0.85567  0.361015  1.0000
  C   C39       1.0  0.206733  0.12310300000000006  0.902998  1.0000
  C   C40       1.0  0.802637  0.533176  0.108939  1.0000
  C   C41       1.0  0.13095899999999994  0.12153899999999998  0.866797  1.0000
  C   C42       1.0  0.869778  0.622918  0.134015  1.0000
  C   C43       1.0  0.10267099999999994  0.132048  0.783706  1.0000
  C   C44       1.0  0.8867539999999999  0.730248  0.202681  1.0000
  H   H5        1.0  0.273454  0.1740500000000001  0.533938  1.0000
  H   H6        1.0  0.703326  0.846943  0.436008  1.0000
  H   H7        1.0  0.45485799999999993  0.11227500000000001  0.74317  1.0000
  H   H8        1.0  0.569851  0.447052  0.286962  1.0000
  H   H9        1.0  0.43418499999999993  0.077718  0.8729830000000001  1.0000
  H   H10       1.0  0.601713  0.334346  0.171308  1.0000
  H   H11       1.0  0.352288  0.071084  0.953818  1.0000
  H   H12       1.0  0.681316  0.335059  0.087649  1.0000
  H   H13       1.0  0.06648  0.15910999999999997  0.623228  1.0000
  H   H14       1.0  0.9010430000000001  0.928127  0.335605  1.0000
  H   H15       1.0  0.149366  0.173297  0.544189  1.0000
  H   H16       1.0  0.8163230000000001  0.9422720000000001  0.41229100000000013  1.0000
  O   O11       1.0  0.93781  0.77368  0.060480000000000006  1.0000
  O   O12       1.0  0.062189999999999954  0.2736799999999999  0.93952  1.0000
  O   O13       1.0  0.08619  0.43974  0.09258000000000001  1.0000
  O   O14       1.0  0.91381  0.9397400000000002  0.90742  1.0000
  C   C45       1.0  0.111668  0.606459  0.11458  1.0000
  C   C46       1.0  0.8882419999999999  0.110566  0.885671  1.0000
  O   O15       1.0  0.9397599999999999  0.44421  0.06989  1.0000
  O   O16       1.0  0.06024000000000001  0.94421  0.93011  1.0000
  O   O17       1.0  0.91479  0.26964  0.91676  1.0000
  O   O18       1.0  0.08521  0.7696400000000001  0.08324  1.0000
  C   C47       1.0  0.919741  0.612796  0.085181  1.0000
  C   C48       1.0  0.081381  0.112519  0.91613  1.0000
  O   O19       1.0  0.9920500000000001  0.6015300000000002  0.94988  1.0000
  O   O20       1.0  0.007949999999999999  0.10153  0.050120000000000005  1.0000
  V   V3        1.0  0.00148  0.32834  0.0093  1.0000
  V   V4        1.0  0.99852  0.82834  0.9907  1.0000
  N   N1        1.0  0.025713999999999994  0.14013  0.747709  1.0000
  O   O21       1.0  0.9948020000000001  0.289716  0.71143  1.0000
  O   O22       1.0  0.9859549999999999  0.0032489999999999928  0.7561690000000002  1.0000
  N   N2        1.0  0.953186  0.829523  0.22549000000000005  1.0000
  O   O23       1.0  0.951696  0.008262999999999998  0.22313000000000005  1.0000
  O   O24       1.0  0.014961999999999998  0.741976  0.240542  1.0000
  N   N3        1.0  0.644494  0.36275  0.757184  1.0000
  O   O25       1.0  0.640503  0.522745  0.7225080000000002  1.0000
  O   O26       1.0  0.612146  0.338718  0.811043  1.0000
  N   N4        1.0  0.30795  0.958879  0.272805  1.0000
  O   O27       1.0  0.254677  0.07755700000000001  0.251796  1.0000
  O   O28       1.0  0.372501  0.010644999999999998  0.27455  1.0000
  N   N5        1.0  0.722453  0.963447  0.677976  1.0000
  O   O29       1.0  0.733311  0.83658  0.732878  1.0000
  O   O30       1.0  0.73804  0.927168  0.613278  1.0000
  N   N6        1.0  0.30645599999999995  0.44959700000000014  0.291818  1.0000
  O   O31       1.0  0.319364  0.378216  0.230525  1.0000
  O   O32       1.0  0.28859200000000007  0.346008  0.3431770000000001  1.0000
  O   O33       1.0  0.23482800000000006  0.129741  0.9845240000000001  1.0000
  C   C49       1.0  0.235226  0.314587  0.009321  1.0000
  H   H17       1.0  0.233036  0.3114020000000001  0.071141  1.0000
  H   H18       1.0  0.18716400000000005  0.396854  0.974378  1.0000
  C   C50       1.0  0.304362  0.41273500000000013  0.007092000000000002  1.0000
  H   H19       1.0  0.352669  0.331014  0.041371  1.0000
  H   H20       1.0  0.305276  0.4271970000000001  0.945084  1.0000
  C   C51       1.0  0.308281  0.60476  0.041208  1.0000
  H   H21       1.0  0.258771  0.6868270000000001  0.010748  1.0000
  H   H22       1.0  0.355999  0.676344  0.03320300000000002  1.0000
  H   H23       1.0  0.314418  0.59539  0.10521  1.0000
  O   O34       1.0  0.779877  0.4540710000000001  0.035121  1.0000
  C   C52       1.0  0.75561  0.593854  0.975969  1.0000
  H   H24       1.0  0.759451  0.538248  0.919485  1.0000
  H   H25       1.0  0.790096  0.717852  0.987084  1.0000
  C   C53       1.0  0.676579  0.65063  0.96526  1.0000
  H   H26       1.0  0.641717  0.5283030000000002  0.9504830000000001  1.0000
  H   H27       1.0  0.671383  0.708271  0.020907000000000005  1.0000
  C   C54       1.0  0.650228  0.796746  0.900024  1.0000
  H   H28       1.0  0.6829860000000001  0.9226090000000001  0.9152670000000003  1.0000
  H   H29       1.0  0.592727  0.833231  0.892931  1.0000
  H   H30       1.0  0.6544270000000001  0.744569  0.8431580000000002  1.0000
