data_image0
_chemical_formula_structural       C140Cr12H72O52
_chemical_formula_sum              "C140 Cr12 H72 O52"
_cell_length_a       18.85405
_cell_length_b       11.10391
_cell_length_c       18.68829
_cell_angle_alpha    90.15206
_cell_angle_beta     91.50344
_cell_angle_gamma    90.29172

_space_group_name_H-M_alt    "P 1"
_space_group_IT_number       1

loop_
  _space_group_symop_operation_xyz
  'x, y, z'

loop_
  _atom_site_type_symbol
  _atom_site_label
  _atom_site_symmetry_multiplicity
  _atom_site_fract_x
  _atom_site_fract_y
  _atom_site_fract_z
  _atom_site_occupancy
  C   C1        1.0  0.73072  0.3754  0.14615  1.0000
  C   C2        1.0  0.24915  0.9081199999999999  0.07279  1.0000
  C   C3        1.0  0.64758  0.58937  0.40778  1.0000
  C   C4        1.0  0.84725  0.2105  0.5931  1.0000
  C   C5        1.0  0.08011  0.07974000000000002  0.43457  1.0000
  C   C6        1.0  0.34723  0.71051  0.5931  1.0000
  C   C7        1.0  0.58013  0.57978  0.43455  1.0000
  C   C8        1.0  0.86215  0.22033999999999998  0.52135  1.0000
  C   C9        1.0  0.07138  0.0408  0.50447  1.0000
  C   C10       1.0  0.36214  0.72036  0.52136  1.0000
  C   C11       1.0  0.5713799999999999  0.54084  0.50445  1.0000
  C   C12       1.0  0.8225199999999999  0.15844  0.46936  1.0000
  C   C13       1.0  0.2574  0.39794  0.9310599999999999  1.0000
  C   C14       1.0  0.13053  0.01106  0.54707  1.0000
  C   C15       1.0  0.32251  0.65844  0.46936  1.0000
  C   C16       1.0  0.63054  0.51109  0.54706  1.0000
  C   C17       1.0  0.7345799999999998  0.99554  0.4397499999999999  1.0000
  C   C18       1.0  0.26443  0.9980799999999999  0.55794  1.0000
  C   C19       1.0  0.23457999999999996  0.49553  0.4397499999999999  1.0000
  C   C20       1.0  0.76443  0.49809  0.55794  1.0000
  C   C21       1.0  0.73443  0.39126999999999995  0.34831  1.0000
  C   C22       1.0  0.26686  0.38231  0.6484  1.0000
  C   C23       1.0  0.23443  0.89127  0.34831  1.0000
  C   C24       1.0  0.74914  0.40812  0.07279  1.0000
  C   C25       1.0  0.76686  0.8823099999999999  0.6484  1.0000
  C   C26       1.0  0.5342899999999999  0.15591  0.35471  1.0000
  C   C27       1.0  0.46973999999999994  0.15871  0.64868  1.0000
  C   C28       1.0  0.034289999999999994  0.65591  0.35471  1.0000
  C   C29       1.0  0.96974  0.65871  0.64868  1.0000
  C   C30       1.0  0.7288  0.022919999999999996  0.36388  1.0000
  C   C31       1.0  0.27018  0.01949  0.63556  1.0000
  C   C32       1.0  0.22879999999999998  0.52292  0.36388  1.0000
  C   C33       1.0  0.77018  0.5195  0.63556  1.0000
  C   C34       1.0  0.54307  0.24297  0.9696799999999999  1.0000
  C   C35       1.0  0.69688  0.85368  0.9667  1.0000
  C   C36       1.0  0.48738  0.27385  0.02644  1.0000
  C   C37       1.0  0.043079999999999986  0.7429399999999999  0.9696699999999999  1.0000
  C   C38       1.0  0.9874  0.7738599999999999  0.02643  1.0000
  C   C39       1.0  0.56677  0.13228  0.01411  1.0000
  C   C40       1.0  0.43196  0.19295  0.9866899999999998  1.0000
  C   C41       1.0  0.06676  0.63224  0.01411  1.0000
  C   C42       1.0  0.9319699999999999  0.69299  0.9866899999999998  1.0000
  C   C43       1.0  0.5105  0.16285  0.06955  1.0000
  C   C44       1.0  0.48818  0.16225  0.93138  1.0000
  C   C45       1.0  0.0105  0.66285  0.06955  1.0000
  C   C46       1.0  0.3014799999999999  0.8457199999999999  0.03327  1.0000
  C   C47       1.0  0.9881799999999998  0.66225  0.93138  1.0000
  C   C48       1.0  0.19687999999999997  0.35368  0.9667  1.0000
  C   C49       1.0  0.80148  0.34572  0.03327  1.0000
  C   C50       1.0  0.69887  0.84879  0.04258  1.0000
  C   C51       1.0  0.29624  0.84593  0.9573499999999999  1.0000
  C   C52       1.0  0.19887  0.34879  0.04258  1.0000
  C   C53       1.0  0.2707  0.3734  0.85518  1.0000
  C   C54       1.0  0.7962399999999998  0.34593  0.9573499999999999  1.0000
  C   C55       1.0  0.81512  0.94203  0.04551  1.0000
  C   C56       1.0  0.19696  0.98371  0.9632  1.0000
  C   C57       1.0  0.31511999999999996  0.44201999999999997  0.04551  1.0000
  C   C58       1.0  0.6969599999999998  0.4837099999999999  0.96319  1.0000
  C   C59       1.0  0.8165299999999999  0.93722  0.9721900000000001  1.0000
  C   C60       1.0  0.19882  0.97806  0.03625  1.0000
  C   C61       1.0  0.3165299999999999  0.43721  0.9722  1.0000
  C   C62       1.0  0.69882  0.47806  0.03625  1.0000
  C   C63       1.0  0.6353  0.81104  0.9298799999999999  1.0000
  C   C64       1.0  0.23071999999999998  0.8753999999999998  0.14615  1.0000
  C   C65       1.0  0.35809  0.7814499999999999  0.06609  1.0000
  C   C66       1.0  0.13529999999999998  0.31105  0.9298799999999999  1.0000
  C   C67       1.0  0.8580899999999999  0.28146  0.06609  1.0000
  C   C68       1.0  0.08307999999999997  0.24866  0.9661199999999999  1.0000
  C   C69       1.0  0.9009899999999998  0.20718999999999999  0.025919999999999995  1.0000
  C   C70       1.0  0.58308  0.7486499999999999  0.9661199999999999  1.0000
  C   C71       1.0  0.40099  0.70718  0.025919999999999995  1.0000
  C   C72       1.0  0.5896  0.73227  0.03967  1.0000
  C   C73       1.0  0.39156  0.7  0.95217  1.0000
  C   C74       1.0  0.08959999999999997  0.23227  0.03967  1.0000
  C   C75       1.0  0.7707  0.8734099999999999  0.85518  1.0000
  C   C76       1.0  0.89156  0.2  0.95217  1.0000
  C   C77       1.0  0.64624  0.7831  0.07788  1.0000
  C   C78       1.0  0.3397199999999999  0.76847  0.91792  1.0000
  C   C79       1.0  0.14624  0.2831  0.07788  1.0000
  C   C80       1.0  0.8397199999999999  0.26847  0.91792  1.0000
  C   C81       1.0  0.53196  0.15527  0.14476  1.0000
  C   C82       1.0  0.46714  0.1554  0.85586  1.0000
  C   C83       1.0  0.031959999999999995  0.65527  0.14476  1.0000
  C   C84       1.0  0.9671399999999999  0.6554  0.85586  1.0000
  C   C85       1.0  0.75441  0.9078099999999999  0.08102  1.0000
  C   C86       1.0  0.45571999999999996  0.08253  0.031  1.0000
  C   C87       1.0  0.24698999999999996  0.92282  0.9229399999999999  1.0000
  C   C88       1.0  0.25441  0.40781  0.08102  1.0000
  C   C89       1.0  0.74699  0.42282  0.92293  1.0000
  C   C90       1.0  0.50569  0.17178  0.58021  1.0000
  C   C91       1.0  0.51209  0.15832  0.4301499999999999  1.0000
  C   C92       1.0  0.00568  0.67179  0.58021  1.0000
  C   C93       1.0  0.01209  0.65832  0.43014  1.0000
  C   C94       1.0  0.53192  0.06798  0.54809  1.0000
  C   C95       1.0  0.52066  0.05377  0.47388  1.0000
  C   C96       1.0  0.03192  0.56798  0.54809  1.0000
  C   C97       1.0  0.51135  0.05192  0.97487  1.0000
  C   C98       1.0  0.02066  0.55377  0.47388  1.0000
  C   C99       1.0  0.49861  0.26856  0.46356  1.0000
  C   C100      1.0  0.49103  0.27342  0.53763  1.0000
  C   C101      1.0  0.9985999999999998  0.76855  0.46356  1.0000
  C   C102      1.0  0.9910099999999998  0.7734199999999999  0.53762  1.0000
  C   C103      1.0  0.55647  0.97007  0.58971  1.0000
  C   C104      1.0  0.51357  0.93479  0.44800999999999996  1.0000
  C   C105      1.0  0.056479999999999995  0.47009  0.58971  1.0000
  C   C106      1.0  0.013579999999999997  0.43478999999999995  0.44800999999999996  1.0000
  C   C107      1.0  0.05031  0.35421  0.56286  1.0000
  C   C108      1.0  0.95571  0.58256  0.031  1.0000
  C   C109      1.0  0.02686  0.33779  0.49275  1.0000
  C   C110      1.0  0.5502999999999999  0.8542  0.56285  1.0000
  C   C111      1.0  0.52684  0.83779  0.49274  1.0000
  C   C112      1.0  0.73968  0.93611  0.58368  1.0000
  C   C113      1.0  0.25777  0.96912  0.40969999999999995  1.0000
  C   C114      1.0  0.23967999999999998  0.43611  0.58368  1.0000
  C   C115      1.0  0.75777  0.46912  0.40968999999999994  1.0000
  C   C116      1.0  0.76657  0.04762999999999999  0.56282  1.0000
  C   C117      1.0  0.20448  0.03419  0.44509000000000004  1.0000
  C   C118      1.0  0.26656  0.54762  0.56282  1.0000
  C   C119      1.0  0.011329999999999998  0.5519  0.97488  1.0000
  C   C120      1.0  0.70449  0.53421  0.44508  1.0000
  C   C121      1.0  0.77316  0.06985  0.4892599999999999  1.0000
  C   C122      1.0  0.19969  0.01584  0.51869  1.0000
  C   C123      1.0  0.27315  0.56985  0.4892599999999999  1.0000
  C   C124      1.0  0.69969  0.51587  0.51868  1.0000
  C   C125      1.0  0.6995499999999999  0.8926199999999999  0.46387999999999996  1.0000
  C   C126      1.0  0.32709  0.98173  0.51936  1.0000
  C   C127      1.0  0.19955999999999993  0.3926  0.46387999999999996  1.0000
  C   C128      1.0  0.82709  0.48172  0.51936  1.0000
  C   C129      1.0  0.74282  0.9654099999999999  0.15035  1.0000
  C   C130      1.0  0.7573999999999997  0.89795  0.9310599999999999  1.0000
  C   C131      1.0  0.25740999999999997  0.9683699999999998  0.85068  1.0000
  C   C132      1.0  0.24282  0.46541  0.15035  1.0000
  C   C133      1.0  0.75741  0.46836999999999995  0.85068  1.0000
  C   C134      1.0  0.70592  0.8595999999999999  0.53429  1.0000
  C   C135      1.0  0.32253  0.95542  0.44578  1.0000
  C   C136      1.0  0.20593  0.35959  0.53429  1.0000
  C   C137      1.0  0.82253  0.45539999999999997  0.44578  1.0000
  C   C138      1.0  0.7967  0.12826  0.6137899999999998  1.0000
  C   C139      1.0  0.14757  0.08935  0.40779  1.0000
  C   C140      1.0  0.29668  0.62826  0.6137899999999998  1.0000
  Cr  Cr1       1.0  0.77282  0.16982  0.25264  1.0000
  Cr  Cr2       1.0  0.38327999999999995  0.01113  0.74934  1.0000
  Cr  Cr3       1.0  0.11672  0.51113  0.25066  1.0000
  Cr  Cr4       1.0  0.88328  0.51113  0.74934  1.0000
  Cr  Cr5       1.0  0.22718  0.16982  0.74736  1.0000
  Cr  Cr6       1.0  0.27282  0.66982  0.25264  1.0000
  Cr  Cr7       1.0  0.72718  0.66982  0.74736  1.0000
  Cr  Cr8       1.0  0.61504  0.32361  0.24915  1.0000
  Cr  Cr9       1.0  0.38496  0.32361  0.75085  1.0000
  Cr  Cr10      1.0  0.11503999999999999  0.82361  0.24915  1.0000
  Cr  Cr11      1.0  0.8849599999999999  0.82361  0.75085  1.0000
  Cr  Cr12      1.0  0.61672  0.01113  0.25066  1.0000
  H   H1        1.0  0.62254  0.10667999999999998  0.02698  1.0000
  H   H2        1.0  0.15317  0.11964  0.35311  1.0000
  H   H3        1.0  0.28641  0.61986  0.67034  1.0000
  H   H4        1.0  0.65319  0.61966  0.3531  1.0000
  H   H5        1.0  0.68702  0.77128  0.54943  1.0000
  H   H6        1.0  0.3672899999999999  0.91922  0.41822  1.0000
  H   H7        1.0  0.18704  0.27126  0.54942  1.0000
  H   H8        1.0  0.86729  0.4192  0.41822  1.0000
  H   H9        1.0  0.87637  0.26381  0.63258  1.0000
  H   H10       1.0  0.03456  0.10161  0.40065999999999996  1.0000
  H   H11       1.0  0.37636  0.7638099999999999  0.63258  1.0000
  H   H12       1.0  0.37587  0.21471  0.9733100000000001  1.0000
  H   H13       1.0  0.5345799999999999  0.60164  0.40064  1.0000
  H   H14       1.0  0.90189  0.28189  0.50547  1.0000
  H   H15       1.0  0.018739999999999996  0.03587  0.52589  1.0000
  H   H16       1.0  0.40187  0.78191  0.50547  1.0000
  H   H17       1.0  0.5187499999999999  0.53591  0.52587  1.0000
  H   H18       1.0  0.8355499999999999  0.17706  0.41504  1.0000
  H   H19       1.0  0.11963  0.97579  0.59933  1.0000
  H   H20       1.0  0.33553999999999995  0.67707  0.41504  1.0000
  H   H21       1.0  0.61962  0.4758299999999999  0.59932  1.0000
  H   H22       1.0  0.41989999999999994  0.01837  0.05775999999999999  1.0000
  H   H23       1.0  0.12252999999999999  0.60661  0.02698  1.0000
  H   H24       1.0  0.52005  0.96185  0.9515499999999999  1.0000
  H   H25       1.0  0.91987  0.51843  0.057769999999999995  1.0000
  H   H26       1.0  0.020009999999999997  0.46181999999999995  0.9515600000000001  1.0000
  H   H27       1.0  0.8609399999999999  0.9781999999999998  0.07444  1.0000
  H   H28       1.0  0.15693999999999997  0.04046  0.93842  1.0000
  H   H29       1.0  0.36095  0.47818999999999995  0.07444  1.0000
  H   H30       1.0  0.65693  0.54045  0.93842  1.0000
  H   H31       1.0  0.8662199999999999  0.96018  0.9480999999999999  1.0000
  H   H32       1.0  0.15767  0.02475  0.06412  1.0000
  H   H33       1.0  0.36623  0.46015999999999996  0.9480999999999999  1.0000
  H   H34       1.0  0.8758799999999999  0.71478  0.9732999999999999  1.0000
  H   H35       1.0  0.65767  0.52475  0.06412  1.0000
  H   H36       1.0  0.05203  0.17798  0.06772  1.0000
  H   H37       1.0  0.9238399999999999  0.13994  0.92127  1.0000
  H   H38       1.0  0.55203  0.67798  0.06773  1.0000
  H   H39       1.0  0.42384  0.63993  0.92127  1.0000
  H   H40       1.0  0.6504  0.76469  0.13463  1.0000
  H   H41       1.0  0.33237  0.75654  0.86076  1.0000
  H   H42       1.0  0.1504  0.26469  0.13463  1.0000
  H   H43       1.0  0.83237  0.25654  0.86076  1.0000
  H   H44       1.0  0.57322  0.9819899999999999  0.64519  1.0000
  H   H45       1.0  0.49074  0.34933  0.43207999999999996  1.0000
  H   H46       1.0  0.49072999999999994  0.91357  0.39593  1.0000
  H   H47       1.0  0.07322999999999999  0.48202000000000006  0.6452  1.0000
  H   H48       1.0  0.9907399999999998  0.4135599999999999  0.39594  1.0000
  H   H49       1.0  0.06121999999999999  0.27747  0.59694  1.0000
  H   H50       1.0  0.012590000000000002  0.25046  0.4742700000000001  1.0000
  H   H51       1.0  0.56119  0.77746  0.59693  1.0000
  H   H52       1.0  0.5125699999999999  0.75045  0.47426  1.0000
  H   H53       1.0  0.67131  0.83224  0.42758  1.0000
  H   H54       1.0  0.37808  0.9772499999999998  0.54715  1.0000
  H   H55       1.0  0.17133  0.33221  0.42757  1.0000
  H   H56       1.0  0.4702  0.35455  0.56117  1.0000
  H   H57       1.0  0.87808  0.47723  0.54715  1.0000
  H   H58       1.0  0.5788199999999998  0.30743  0.94295  1.0000
  H   H59       1.0  0.4771699999999999  0.36435  0.04919  1.0000
  H   H60       1.0  0.07885  0.80738  0.94294  1.0000
  H   H61       1.0  0.9772099999999999  0.86437  0.04918  1.0000
  H   H62       1.0  0.6259699999999999  0.82572  0.8733800000000002  1.0000
  H   H63       1.0  0.37158999999999986  0.7889599999999999  0.12232999999999998  1.0000
  H   H64       1.0  0.12597  0.32573  0.8733800000000002  1.0000
  H   H65       1.0  0.8715899999999999  0.28897  0.12232999999999998  1.0000
  H   H66       1.0  0.03835999999999999  0.21113  0.9365099999999998  1.0000
  H   H67       1.0  0.99072  0.8493199999999999  0.43207000000000007  1.0000
  H   H68       1.0  0.9398599999999999  0.15139  0.05265  1.0000
  H   H69       1.0  0.53836  0.71112  0.93652  1.0000
  H   H70       1.0  0.43986  0.65138  0.05264  1.0000
  H   H71       1.0  0.9701699999999999  0.85454  0.56116  1.0000
  H   H72       1.0  0.78642  0.11986  0.67034  1.0000
  O   O1        1.0  0.7881899999999998  0.043  0.17252  1.0000
  O   O2        1.0  0.45417  0.05161  0.66984  1.0000
  O   O3        1.0  0.04583  0.55161  0.33016  1.0000
  O   O4        1.0  0.95417  0.55161  0.66984  1.0000
  O   O5        1.0  0.6819199999999997  0.9597199999999999  0.32707  1.0000
  O   O6        1.0  0.31808  0.9597199999999999  0.67293  1.0000
  O   O7        1.0  0.18192  0.45972  0.32707  1.0000
  O   O8        1.0  0.81808  0.45972  0.67293  1.0000
  O   O9        1.0  0.66819  0.16819  0.25082  1.0000
  O   O10       1.0  0.33181  0.16819  0.74918  1.0000
  O   O11       1.0  0.16819  0.66819  0.25082  1.0000
  O   O12       1.0  0.21181  0.043  0.82748  1.0000
  O   O13       1.0  0.83181  0.66819  0.74918  1.0000
  O   O14       1.0  0.7662399999999998  0.2923  0.17686  1.0000
  O   O15       1.0  0.23376  0.2923  0.82314  1.0000
  O   O16       1.0  0.2662399999999999  0.7922999999999999  0.17686  1.0000
  O   O17       1.0  0.73376  0.7922999999999999  0.82314  1.0000
  O   O18       1.0  0.67031  0.40916  0.16872  1.0000
  O   O19       1.0  0.32969  0.40916  0.83128  1.0000
  O   O20       1.0  0.17031  0.9091599999999999  0.16872  1.0000
  O   O21       1.0  0.8296899999999998  0.9091599999999999  0.83128  1.0000
  O   O22       1.0  0.55616  0.2519  0.17338  1.0000
  O   O23       1.0  0.28819  0.543  0.17252  1.0000
  O   O24       1.0  0.44384  0.2519  0.82662  1.0000
  O   O25       1.0  0.05616  0.7518999999999999  0.17338  1.0000
  O   O26       1.0  0.9438399999999997  0.7518999999999999  0.82662  1.0000
  O   O27       1.0  0.54541  0.050140000000000004  0.16824  1.0000
  O   O28       1.0  0.45459  0.050140000000000004  0.83176  1.0000
  O   O29       1.0  0.045409999999999985  0.55014  0.16824  1.0000
  O   O30       1.0  0.9545900000000003  0.55014  0.83176  1.0000
  O   O31       1.0  0.68153  0.9583499999999999  0.17697  1.0000
  O   O32       1.0  0.3184699999999999  0.9583499999999999  0.82303  1.0000
  O   O33       1.0  0.18153  0.45835  0.17697  1.0000
  O   O34       1.0  0.71181  0.543  0.82748  1.0000
  O   O35       1.0  0.81847  0.45835  0.82303  1.0000
  O   O36       1.0  0.78861  0.04448  0.33445  1.0000
  O   O37       1.0  0.21139  0.044480000000000006  0.66555  1.0000
  O   O38       1.0  0.28861  0.54448  0.33445  1.0000
  O   O39       1.0  0.7113899999999997  0.54448  0.66555  1.0000
  O   O40       1.0  0.76663  0.29367  0.32697  1.0000
  O   O41       1.0  0.23336999999999997  0.29367  0.67303  1.0000
  O   O42       1.0  0.26663  0.7936699999999999  0.32697  1.0000
  O   O43       1.0  0.7333699999999999  0.7936699999999999  0.67303  1.0000
  O   O44       1.0  0.67073  0.41063999999999995  0.33064  1.0000
  O   O45       1.0  0.55655  0.25326  0.32348  1.0000
  O   O46       1.0  0.32927  0.41063999999999995  0.66936  1.0000
  O   O47       1.0  0.17073  0.9106399999999999  0.33064  1.0000
  O   O48       1.0  0.8292699999999998  0.9106399999999999  0.66936  1.0000
  O   O49       1.0  0.44344999999999996  0.25326  0.67652  1.0000
  O   O50       1.0  0.056549999999999996  0.75326  0.32348  1.0000
  O   O51       1.0  0.9434499999999999  0.75326  0.67652  1.0000
  O   O52       1.0  0.54583  0.05161  0.33016  1.0000
