data_image0
_chemical_formula_structural       O2CO2CO2CO2CO2CO2CCr3OCH2CH4C3H2C3H4C8H6C8H6C8H6C8H6C8H4O2CO2CO2CO2CO2CO2CCr3OClNO2
_chemical_formula_sum              "O28 C60 Cr6 H40 Cl1 N1"
_cell_length_a       10.99934
_cell_length_b       10.98846
_cell_length_c       18.82462
_cell_angle_alpha    90.50758
_cell_angle_beta     89.88254
_cell_angle_gamma    60.23102000000001

_symmetry_space_group_name_H-M    'P 1'
_symmetry_Int_Tables_number       1

loop_
  _symmetry_equiv_pos_as_xyz
  'x,y,z'

loop_
  _atom_site_type_symbol
  _atom_site_label
  _atom_site_symmetry_multiplicity
  _atom_site_fract_x
  _atom_site_fract_y
  _atom_site_fract_z
  _atom_site_occupancy
  O   O1        1.0  0.50738  0.2557  0.5814400000000001  1.0000
  O   O2        1.0  0.28032  0.52735  0.57893  1.0000
  C   C1        1.0  0.23950999999999997  0.64582  0.6103  1.0000
  O   O3        1.0  0.26051  0.73959  0.58459  1.0000
  O   O4        1.0  0.5323  0.69508  0.57382  1.0000
  C   C2        1.0  0.65328  0.62207  0.60097  1.0000
  O   O5        1.0  0.74484  0.5035  0.57637  1.0000
  O   O6        1.0  0.69912  0.27656000000000003  0.57196  1.0000
  C   C3        1.0  0.63036  0.22487000000000001  0.60109  1.0000
  O   O7        1.0  0.49894  0.25650000000000006  0.41986  1.0000
  O   O8        1.0  0.2725  0.52808  0.42915  1.0000
  C   C4        1.0  0.21793  0.6515000000000001  0.40295  1.0000
  O   O9        1.0  0.25205999999999995  0.7403800000000001  0.4230100000000001  1.0000
  O   O10       1.0  0.52448  0.69581  0.42404  1.0000
  C   C5        1.0  0.6455799999999998  0.62429  0.39363  1.0000
  O   O11       1.0  0.7363899999999998  0.50429  0.41479000000000005  1.0000
  O   O12       1.0  0.6913000000000001  0.27729  0.42217  1.0000
  C   C6        1.0  0.61718  0.22838000000000003  0.39519000000000004  1.0000
  Cr  Cr1       1.0  0.39295999999999986  0.39792  0.50224  1.0000
  Cr  Cr2       1.0  0.39834  0.70848  0.50125  1.0000
  Cr  Cr3       1.0  0.70867  0.39357  0.49646000000000007  1.0000
  O   O13       1.0  0.49998999999999993  0.49999000000000005  0.49998000000000004  1.0000
  C   C7        1.0  0.58893  0.8157  0.78  1.0000
  H   H1        1.0  0.6259099999999999  0.8912800000000001  0.789  1.0000
  H   H2        1.0  0.48517000000000005  0.857  0.8066600000000003  1.0000
  C   C8        1.0  0.5736299999999999  0.8016300000000001  0.69953  1.0000
  H   H3        1.0  0.46193  0.83765  0.6875800000000002  1.0000
  H   H4        1.0  0.6039399999999998  0.8697900000000001  0.6699300000000001  1.0000
  H   H5        1.0  0.87482  0.6980900000000001  0.7798100000000002  1.0000
  H   H6        1.0  0.8535100000000002  0.6703  0.66165  1.0000
  C   C9        1.0  0.8384499999999999  0.62089  0.77178  1.0000
  C   C10       1.0  0.64552  0.56763  0.80095  1.0000
  C   C11       1.0  0.6978800000000001  0.67253  0.81234  1.0000
  H   H7        1.0  0.72223  0.46356  0.8223000000000003  1.0000
  H   H8        1.0  0.5447600000000001  0.6039  0.8299  1.0000
  C   C12       1.0  0.66827  0.64692  0.6765  1.0000
  C   C13       1.0  0.82202  0.60413  0.6923700000000002  1.0000
  C   C14       1.0  0.62448  0.55514  0.72089  1.0000
  H   H9        1.0  0.5126  0.58836  0.71105  1.0000
  H   H10       1.0  0.6856999999999999  0.44373000000000007  0.7042700000000001  1.0000
  H   H11       1.0  0.9196699999999999  0.51796  0.79248  1.0000
  H   H12       1.0  0.8940599999999999  0.49305000000000004  0.67661  1.0000
  C   C15       1.0  0.6904299999999999  0.13909  0.82084  1.0000
  C   C16       1.0  0.7945699999999999  0.14268  0.7802700000000001  1.0000
  C   C17       1.0  0.7869299999999999  0.15271  0.70805  1.0000
  C   C18       1.0  0.57601  0.14182  0.70908  1.0000
  C   C19       1.0  0.57804  0.1423  0.78254  1.0000
  C   C20       1.0  0.92834  0.14524  0.7835700000000001  1.0000
  C   C21       1.0  0.9193399999999999  0.15818000000000002  0.70199  1.0000
  C   C22       1.0  0.67392  0.16062  0.67021  1.0000
  H   H13       1.0  0.4895399999999999  0.13855  0.68346  1.0000
  H   H14       1.0  0.4930400000000001  0.13675  0.80853  1.0000
  H   H15       1.0  0.015929999999999996  0.044930000000000005  0.80238  1.0000
  H   H16       1.0  0.91705  0.24007  0.8110900000000002  1.0000
  H   H17       1.0  0.9034200000000001  0.26  0.68253  1.0000
  H   H18       1.0  0.0028500000000000005  0.06466  0.6737  1.0000
  C   C23       1.0  0.17750999999999995  0.6699400000000001  0.8343500000000001  1.0000
  C   C24       1.0  0.15236000000000002  0.57793  0.79353  1.0000
  C   C25       1.0  0.16085000000000005  0.57578  0.71985  1.0000
  C   C26       1.0  0.21065999999999982  0.7657300000000002  0.72534  1.0000
  C   C27       1.0  0.20767000000000005  0.76373  0.7991  1.0000
  C   C28       1.0  0.22721000000000005  0.42192  0.79679  1.0000
  C   C29       1.0  0.23382  0.4200900000000001  0.71642  1.0000
  C   C30       1.0  0.19309000000000004  0.66735  0.68439  1.0000
  H   H19       1.0  0.23641999999999994  0.8389700000000001  0.70095  1.0000
  H   H20       1.0  0.22472  0.83902  0.82854  1.0000
  H   H21       1.0  0.16037  0.38112  0.81823  1.0000
  H   H22       1.0  0.33078  0.37999  0.8226800000000002  1.0000
  H   H23       1.0  0.3410999999999999  0.37696  0.6949800000000003  1.0000
  H   H24       1.0  0.16897  0.38047  0.69088  1.0000
  C   C31       1.0  0.6614299999999999  0.6758100000000002  0.17106  1.0000
  C   C32       1.0  0.7336699999999999  0.54425  0.20321  1.0000
  C   C33       1.0  0.73621  0.53332  0.27629  1.0000
  C   C34       1.0  0.5971400000000001  0.7840699999999999  0.28934  1.0000
  C   C35       1.0  0.5909099999999998  0.79545  0.2151  1.0000
  C   C36       1.0  0.8867199999999998  0.43798000000000004  0.19758  1.0000
  C   C37       1.0  0.88962  0.43089000000000005  0.27711  1.0000
  C   C38       1.0  0.6669999999999998  0.65152  0.32031  1.0000
  H   H25       1.0  0.5455599999999999  0.87731  0.32223  1.0000
  H   H26       1.0  0.5386999999999998  0.8979400000000001  0.19194  1.0000
  H   H27       1.0  0.9509  0.48125000000000007  0.17697  1.0000
  H   H28       1.0  0.9072  0.33949  0.17076  1.0000
  H   H29       1.0  0.91804  0.32651  0.2974  1.0000
  H   H30       1.0  0.9492299999999998  0.4764300000000001  0.30208  1.0000
  C   C39       1.0  0.64991  0.15478  0.17650000000000002  1.0000
  C   C40       1.0  0.56155  0.12485  0.21635  1.0000
  C   C41       1.0  0.5613  0.131  0.28945000000000004  1.0000
  C   C42       1.0  0.75304  0.17768000000000003  0.28525  1.0000
  C   C43       1.0  0.74712  0.17962000000000003  0.21148  1.0000
  C   C44       1.0  0.40611  0.19554  0.212  1.0000
  C   C45       1.0  0.40481  0.20222  0.29197  1.0000
  C   C46       1.0  0.6524299999999998  0.1651  0.32501000000000013  1.0000
  H   H31       1.0  0.8273599999999999  0.19856  0.31139  1.0000
  H   H32       1.0  0.81761  0.20028  0.18106000000000003  1.0000
  H   H33       1.0  0.3672  0.12692  0.19047  1.0000
  H   H34       1.0  0.36156000000000005  0.29947  0.18639000000000003  1.0000
  H   H35       1.0  0.3592199999999999  0.31047  0.31232  1.0000
  H   H36       1.0  0.36566999999999994  0.13735  0.3173  1.0000
  C   C47       1.0  0.10583000000000002  0.69795  0.19063  1.0000
  C   C48       1.0  0.07615999999999998  0.8167700000000001  0.23105000000000003  1.0000
  C   C49       1.0  0.09157  0.81079  0.3031300000000001  1.0000
  C   C50       1.0  0.13331  0.5743  0.30063000000000006  1.0000
  C   C51       1.0  0.12415999999999999  0.57886  0.2264  1.0000
  C   C52       1.0  0.11087999999999999  0.9312700000000002  0.22163  1.0000
  C   C53       1.0  0.1321  0.92386  0.30161  1.0000
  C   C54       1.0  0.13670000000000004  0.68339  0.33831  1.0000
  H   H37       1.0  0.15175000000000002  0.48065  0.32769  1.0000
  H   H38       1.0  0.13934  0.4876  0.19719  1.0000
  H   H39       1.0  0.021019999999999997  0.030430000000000002  0.20506  1.0000
  H   H40       1.0  0.05746  0.021070000000000002  0.33078  1.0000
  O   O14       1.0  0.08939999999999991  0.8256900000000001  0.93057  1.0000
  O   O15       1.0  0.81846  0.05444  0.92985  1.0000
  C   C55       1.0  0.7031699999999999  0.09876  0.8952800000000001  1.0000
  O   O16       1.0  0.60606  0.07715  0.9155100000000002  1.0000
  O   O17       1.0  0.6465500000000001  0.80668  0.9175700000000001  1.0000
  C   C56       1.0  0.7227899999999998  0.68727  0.88849  1.0000
  O   O18       1.0  0.83717  0.59341  0.9152500000000001  1.0000
  O   O19       1.0  0.0651999999999999  0.6355300000000002  0.93157  1.0000
  C   C57       1.0  0.11830999999999996  0.7060600000000001  0.90581  1.0000
  O   O20       1.0  0.06825999999999996  0.8288900000000001  0.09184  1.0000
  O   O21       1.0  0.7988699999999999  0.05741000000000001  0.07934  1.0000
  C   C58       1.0  0.67428  0.10757000000000001  0.10372  1.0000
  O   O22       1.0  0.58493  0.08035  0.07678  1.0000
  O   O23       1.0  0.6269599999999997  0.8096500000000001  0.06706000000000001  1.0000
  C   C59       1.0  0.69783  0.69186  0.09862  1.0000
  O   O24       1.0  0.8160400000000001  0.59661  0.07651  1.0000
  O   O25       1.0  0.045610000000000026  0.6385  0.08106  1.0000
  C   C60       1.0  0.08456999999999987  0.7145800000000002  0.11498  1.0000
  Cr  Cr4       1.0  0.9376499999999999  0.93854  0.00761  1.0000
  Cr  Cr5       1.0  0.62533  0.9373700000000001  0.9945200000000001  1.0000
  Cr  Cr6       1.0  0.9379399999999999  0.62523  0.00119  1.0000
  O   O26       1.0  0.83364  0.83371  0.0011  1.0000
  Cl  Cl1       1.0  0.2626299999999998  0.8858500000000001  0.16719  1.0000
  N   N1        1.0  0.27726999999999996  0.8737900000000001  0.31982000000000005  1.0000
  O   O27       1.0  0.3720200000000001  0.74691  0.30155  1.0000
  O   O28       1.0  0.3073699999999999  0.9460700000000001  0.36427  1.0000
