data_image0
_chemical_formula_structural       O4C2O4C2O2V2C20H2C2H4C26H4O4C2O4C2O2V2C2H5C2H5NH2NH2C2H5C2H5C2H5C2H5C2H5C2H5NH2NH2C2H5C2H5C2H5C2H5NH2NH2
_chemical_formula_sum              "O20 C80 V4 H82 N6"
_cell_length_a       20.8075
_cell_length_b       7.139670000000001
_cell_length_c       16.56728
_cell_angle_alpha    89.99994
_cell_angle_beta     93.34883999999998
_cell_angle_gamma    89.99998999999998

_symmetry_space_group_name_H-M    'P 1'
_symmetry_Int_Tables_number       1

loop_
  _symmetry_equiv_pos_as_xyz
  'x,y,z'

loop_
  _atom_site_type_symbol
  _atom_site_label
  _atom_site_symmetry_multiplicity
  _atom_site_fract_x
  _atom_site_fract_y
  _atom_site_fract_z
  _atom_site_occupancy
  O   O1        1.0  0.56484  0.50529  0.57983  1.0000
  O   O2        1.0  0.43515999999999994  0.00529  0.42017  1.0000
  O   O3        1.0  0.55672  0.17993  0.4093500000000001  1.0000
  O   O4        1.0  0.44328  0.6799300000000001  0.5906500000000002  1.0000
  C   C1        1.0  0.57072  0.3443500000000001  0.38236  1.0000
  C   C2        1.0  0.42927999999999994  0.8443500000000003  0.61764  1.0000
  O   O5        1.0  0.57228  0.17581000000000005  0.57853  1.0000
  O   O6        1.0  0.42772000000000004  0.67581  0.42147  1.0000
  O   O7        1.0  0.45083  0.00192  0.59054  1.0000
  O   O8        1.0  0.54917  0.50192  0.40946  1.0000
  C   C3        1.0  0.58984  0.3442300000000001  0.6048  1.0000
  C   C4        1.0  0.41016  0.84423  0.3952  1.0000
  O   O9        1.0  0.46013000000000004  0.3380300000000001  0.50375  1.0000
  O   O10       1.0  0.53987  0.83803  0.4962500000000001  1.0000
  V   V1        1.0  0.5074  0.06456000000000003  0.49931  1.0000
  V   V2        1.0  0.49260000000000004  0.5645600000000002  0.50069  1.0000
  C   C5        1.0  0.13715  0.9068500000000002  0.17547000000000004  1.0000
  C   C6        1.0  0.8628499999999999  0.4068500000000001  0.8245300000000002  1.0000
  C   C7        1.0  0.35484000000000004  0.8531800000000003  0.33372  1.0000
  C   C8        1.0  0.64516  0.35318  0.66628  1.0000
  C   C9        1.0  0.31566  0.8297300000000002  0.19165000000000001  1.0000
  C   C10       1.0  0.68434  0.3297200000000001  0.8083500000000001  1.0000
  C   C11       1.0  0.36737  0.8496400000000002  0.25069000000000013  1.0000
  C   C12       1.0  0.63263  0.34963  0.7493100000000003  1.0000
  C   C13       1.0  0.29025  0.8596600000000001  0.35802  1.0000
  C   C14       1.0  0.70975  0.35966  0.64198  1.0000
  C   C15       1.0  0.23763  0.8529400000000003  0.29752  1.0000
  C   C16       1.0  0.76237  0.35295  0.70248  1.0000
  C   C17       1.0  0.25145  0.8545900000000001  0.21458  1.0000
  C   C18       1.0  0.74855  0.3545900000000001  0.78542  1.0000
  C   C19       1.0  0.20049  0.8799800000000001  0.15534  1.0000
  C   C20       1.0  0.79951  0.37997  0.8446600000000002  1.0000
  C   C21       1.0  0.12137  0.8861600000000002  0.25693  1.0000
  C   C22       1.0  0.8786300000000001  0.3861700000000001  0.74307  1.0000
  C   C23       1.0  0.17123  0.8383300000000002  0.31593  1.0000
  C   C24       1.0  0.82877  0.33834  0.68407  1.0000
  H   H1        1.0  0.20881  0.8820600000000002  0.09186  1.0000
  H   H2        1.0  0.79119  0.38205  0.90814  1.0000
  C   C25       1.0  0.38841999999999993  0.9043700000000001  0.8317  1.0000
  C   C26       1.0  0.61158  0.4043700000000001  0.1683  1.0000
  H   H3        1.0  0.47432  0.8459800000000002  0.7715900000000002  1.0000
  H   H4        1.0  0.52568  0.34598000000000007  0.22841000000000006  1.0000
  H   H5        1.0  0.41618  0.9231600000000002  0.8882400000000003  1.0000
  H   H6        1.0  0.58382  0.42316  0.11175000000000003  1.0000
  C   C27       1.0  0.39081  0.8518300000000002  0.6890200000000002  1.0000
  C   C28       1.0  0.60919  0.35183  0.3109800000000001  1.0000
  C   C29       1.0  0.07933  0.8853400000000002  0.73454  1.0000
  C   C30       1.0  0.9206700000000001  0.3853300000000001  0.26546  1.0000
  C   C31       1.0  0.11589999999999999  0.84449  0.66804  1.0000
  C   C32       1.0  0.8841000000000001  0.3444900000000001  0.33196  1.0000
  C   C33       1.0  0.18237  0.83311  0.67644  1.0000
  C   C34       1.0  0.81763  0.33311  0.32356  1.0000
  C   C35       1.0  0.21735  0.8845  0.7480400000000003  1.0000
  C   C36       1.0  0.78265  0.38450000000000006  0.25196  1.0000
  C   C37       1.0  0.18263  0.9358100000000001  0.8174400000000003  1.0000
  C   C38       1.0  0.8173699999999999  0.43581  0.18256  1.0000
  C   C39       1.0  0.28643  0.8857100000000002  0.7510500000000002  1.0000
  C   C40       1.0  0.71357  0.3857100000000001  0.24895000000000003  1.0000
  C   C41       1.0  0.32089  0.9280200000000002  0.82469  1.0000
  C   C42       1.0  0.6791  0.4280200000000001  0.17531  1.0000
  C   C43       1.0  0.28879  0.00966  0.88777  1.0000
  C   C44       1.0  0.71121  0.50965  0.11223000000000002  1.0000
  C   C45       1.0  0.22043  0.01351  0.88581  1.0000
  C   C46       1.0  0.7795600000000001  0.5135  0.11418  1.0000
  C   C47       1.0  0.32327  0.8562100000000002  0.68206  1.0000
  C   C48       1.0  0.67673  0.35621000000000014  0.31794  1.0000
  C   C49       1.0  0.42251  0.86155  0.7648200000000003  1.0000
  C   C50       1.0  0.57749  0.3615600000000001  0.23518  1.0000
  C   C51       1.0  0.1123  0.91583  0.81199  1.0000
  C   C52       1.0  0.8877  0.4158300000000001  0.18801  1.0000
  H   H7        1.0  0.30159  0.84464  0.62186  1.0000
  H   H8        1.0  0.69841  0.34464  0.37814  1.0000
  H   H9        1.0  0.20536  0.78703  0.62345  1.0000
  H   H10       1.0  0.79464  0.28703000000000006  0.37655  1.0000
  O   O11       1.0  0.95079  0.25667  0.09052000000000003  1.0000
  O   O12       1.0  0.049210000000000004  0.7566700000000002  0.90948  1.0000
  O   O13       1.0  0.92772  0.59037  0.9214700000000002  1.0000
  O   O14       1.0  0.07228  0.09037  0.07853  1.0000
  C   C53       1.0  0.91307  0.42148000000000013  0.89187  1.0000
  C   C54       1.0  0.08693  0.9214800000000002  0.10813000000000003  1.0000
  O   O15       1.0  0.9432700000000002  0.5861800000000001  0.09064  1.0000
  O   O16       1.0  0.056729999999999996  0.08618000000000003  0.90936  1.0000
  O   O17       1.0  0.06485  0.75997  0.07984  1.0000
  O   O18       1.0  0.93515  0.25997  0.9201600000000001  1.0000
  C   C55       1.0  0.92744  0.41846  0.11604000000000003  1.0000
  C   C56       1.0  0.07256  0.9184600000000003  0.88396  1.0000
  O   O19       1.0  0.03985  0.4280500000000001  0.9962399999999999  1.0000
  O   O20       1.0  0.96015  0.9280500000000003  0.0037600000000000008  1.0000
  V   V3        1.0  0.9926099999999999  0.7015400000000003  0.0007  1.0000
  V   V4        1.0  0.007390000000000002  0.20154000000000002  0.9993  1.0000
  C   C57       1.0  0.006680000000000015  0.9101400000000002  0.7126400000000003  1.0000
  C   C58       1.0  0.95681  0.9230400000000002  0.77651  1.0000
  H   H11       1.0  0.95631  0.79667  0.8138400000000002  1.0000
  H   H12       1.0  0.96446  0.044760000000000015  0.81587  1.0000
  H   H13       1.0  0.9081499999999999  0.9377600000000003  0.74584  1.0000
  H   H14       1.0  0.0012700000000000018  0.03569000000000001  0.6736  1.0000
  H   H15       1.0  0.99024  0.7926400000000002  0.6734100000000001  1.0000
  C   C59       1.0  0.9933199999999999  0.41014000000000006  0.28736  1.0000
  C   C60       1.0  0.04319  0.42303  0.22349  1.0000
  H   H16       1.0  0.04369  0.2966700000000001  0.18616  1.0000
  H   H17       1.0  0.03554  0.5447600000000001  0.18413000000000004  1.0000
  H   H18       1.0  0.09185000000000001  0.4377500000000001  0.2541600000000001  1.0000
  H   H19       1.0  0.99873  0.5356800000000003  0.3264  1.0000
  H   H20       1.0  0.00976  0.29263  0.32659  1.0000
  N   N1        1.0  0.0849  0.8154600000000002  0.58928  1.0000
  H   H21       1.0  0.101  0.91925  0.5508200000000002  1.0000
  H   H22       1.0  0.09901  0.6851500000000001  0.56755  1.0000
  N   N2        1.0  0.9151  0.31546000000000013  0.41071  1.0000
  H   H23       1.0  0.899  0.4192500000000001  0.44918000000000013  1.0000
  H   H24       1.0  0.90099  0.18515  0.43245  1.0000
  C   C61       1.0  0.19233  0.13120000000000004  0.9514700000000003  1.0000
  C   C62       1.0  0.17525  0.32753000000000004  0.92013  1.0000
  H   H25       1.0  0.21878  0.39661000000000013  0.89814  1.0000
  H   H26       1.0  0.13792  0.32270000000000004  0.8695500000000003  1.0000
  H   H27       1.0  0.15795000000000003  0.4140800000000001  0.96999  1.0000
  H   H28       1.0  0.15369  0.058200000000000016  0.97986  1.0000
  H   H29       1.0  0.22628999999999996  0.15044000000000005  0.0049  1.0000
  C   C63       1.0  0.8076699999999999  0.6312000000000002  0.04853  1.0000
  C   C64       1.0  0.8247500000000001  0.8275300000000002  0.07987  1.0000
  H   H30       1.0  0.78122  0.8966100000000002  0.10186  1.0000
  H   H31       1.0  0.86208  0.8227000000000002  0.13044000000000006  1.0000
  H   H32       1.0  0.84205  0.9140800000000002  0.030010000000000005  1.0000
  H   H33       1.0  0.84631  0.55819  0.02014  1.0000
  H   H34       1.0  0.77371  0.65044  0.9951  1.0000
  C   C65       1.0  0.05071  0.90874  0.27713  1.0000
  C   C66       1.0  0.03621  0.9347700000000002  0.36603  1.0000
  H   H35       1.0  0.03911  0.8003200000000003  0.39942  1.0000
  H   H36       1.0  0.069  0.04024000000000001  0.3956  1.0000
  H   H37       1.0  0.98589  0.9841400000000002  0.3695100000000001  1.0000
  H   H38       1.0  0.03108  0.032730000000000016  0.24504000000000004  1.0000
  H   H39       1.0  0.02115  0.79334  0.25183  1.0000
  C   C67       1.0  0.94929  0.4087500000000001  0.72287  1.0000
  C   C68       1.0  0.96379  0.4347700000000001  0.63397  1.0000
  H   H40       1.0  0.9608899999999999  0.30032  0.6005800000000002  1.0000
  H   H41       1.0  0.931  0.54025  0.6044  1.0000
  H   H42       1.0  0.014119999999999999  0.4841400000000001  0.63049  1.0000
  H   H43       1.0  0.96892  0.5327400000000001  0.75496  1.0000
  H   H44       1.0  0.9788499999999999  0.29335  0.74817  1.0000
  C   C69       1.0  0.3282  0.7637900000000002  0.10612  1.0000
  C   C70       1.0  0.30478  0.56276  0.09179  1.0000
  H   H45       1.0  0.32998  0.46665  0.13587  1.0000
  H   H46       1.0  0.25209  0.5511900000000002  0.09779  1.0000
  H   H47       1.0  0.31534  0.51796  0.02974  1.0000
  H   H48       1.0  0.30452  0.857  0.060640000000000006  1.0000
  H   H49       1.0  0.3795  0.7658900000000002  0.09259  1.0000
  C   C71       1.0  0.6718  0.26377000000000006  0.89388  1.0000
  C   C72       1.0  0.69522  0.06273  0.9082000000000002  1.0000
  H   H50       1.0  0.67002  0.9666300000000002  0.8641200000000002  1.0000
  H   H51       1.0  0.74791  0.051170000000000014  0.9022000000000002  1.0000
  H   H52       1.0  0.68466  0.01791  0.9702500000000001  1.0000
  H   H53       1.0  0.69548  0.3569700000000001  0.9393600000000002  1.0000
  H   H54       1.0  0.6205  0.26586  0.90741  1.0000
  N   N3        1.0  0.15337  0.7322200000000002  0.38454  1.0000
  H   H55       1.0  0.18359  0.61611  0.39341  1.0000
  H   H56       1.0  0.15367  0.8169400000000002  0.43567  1.0000
  N   N4        1.0  0.84663  0.23223000000000005  0.61546  1.0000
  H   H57       1.0  0.81641  0.11613  0.60658  1.0000
  H   H58       1.0  0.8463299999999999  0.3169500000000001  0.56433  1.0000
  C   C73       1.0  0.43543  0.8873800000000002  0.22537  1.0000
  C   C74       1.0  0.47461000000000003  0.7081900000000001  0.22038  1.0000
  H   H59       1.0  0.5228  0.7420000000000001  0.19883000000000006  1.0000
  H   H60       1.0  0.48108  0.64265  0.28087  1.0000
  H   H61       1.0  0.4506  0.6061800000000003  0.17810000000000006  1.0000
  H   H62       1.0  0.43468  0.9638600000000003  0.16699  1.0000
  H   H63       1.0  0.46114  0.9848300000000002  0.26834  1.0000
  C   C75       1.0  0.56457  0.38738  0.77463  1.0000
  C   C76       1.0  0.52539  0.20819  0.7796200000000002  1.0000
  H   H64       1.0  0.4772  0.24200000000000005  0.8011600000000002  1.0000
  H   H65       1.0  0.51892  0.14264000000000004  0.71913  1.0000
  H   H66       1.0  0.5494  0.10618000000000002  0.8219  1.0000
  H   H67       1.0  0.56532  0.4638500000000001  0.83301  1.0000
  H   H68       1.0  0.53886  0.48483000000000004  0.73166  1.0000
  C   C77       1.0  0.27961  0.8997200000000002  0.44712  1.0000
  C   C78       1.0  0.24987000000000004  0.09314000000000003  0.4590300000000001  1.0000
  H   H69       1.0  0.28316  0.20356000000000005  0.43931  1.0000
  H   H70       1.0  0.20307  0.10933000000000002  0.4242900000000001  1.0000
  H   H71       1.0  0.24194  0.11459000000000003  0.5241000000000002  1.0000
  H   H72       1.0  0.25232  0.7870000000000003  0.47507  1.0000
  H   H73       1.0  0.32493  0.9000000000000002  0.48529000000000005  1.0000
  C   C79       1.0  0.72039  0.3997300000000001  0.55288  1.0000
  C   C80       1.0  0.75013  0.59316  0.5409700000000002  1.0000
  H   H74       1.0  0.71684  0.70357  0.56069  1.0000
  H   H75       1.0  0.79693  0.6093500000000001  0.57571  1.0000
  H   H76       1.0  0.75806  0.6146000000000003  0.4759000000000001  1.0000
  H   H77       1.0  0.74768  0.28702000000000005  0.5249300000000002  1.0000
  H   H78       1.0  0.67507  0.40001  0.51471  1.0000
  N   N5        1.0  0.32541  0.11731  0.94814  1.0000
  H   H79       1.0  0.35072  0.22187000000000007  0.9192  1.0000
  H   H80       1.0  0.35837  0.03242  0.9807000000000001  1.0000
  N   N6        1.0  0.67459  0.61729  0.05186  1.0000
  H   H81       1.0  0.64928  0.72185  0.0808  1.0000
  H   H82       1.0  0.64163  0.5324  0.0193  1.0000
