data_image0
_chemical_formula_structural       C104Cl4Cr12H48O56
_chemical_formula_sum              "C104 Cl4 Cr12 H48 O56"
_cell_length_a       18.99196
_cell_length_b       10.866410000000002
_cell_length_c       18.84487
_cell_angle_alpha    90.2488
_cell_angle_beta     90.09878
_cell_angle_gamma    89.72655

_symmetry_space_group_name_H-M    'P 1'
_symmetry_Int_Tables_number       1

loop_
  _symmetry_equiv_pos_as_xyz
  'x,y,z'

loop_
  _atom_site_type_symbol
  _atom_site_label
  _atom_site_symmetry_multiplicity
  _atom_site_fract_x
  _atom_site_fract_y
  _atom_site_fract_z
  _atom_site_occupancy
  C   C1        1.0  0.73013  0.37633  0.64578  1.0000
  C   C2        1.0  0.29194  0.84797  0.4592  1.0000
  C   C3        1.0  0.93712  0.55634  0.48078000000000004  1.0000
  C   C4        1.0  0.62645  0.83319  0.07388  1.0000
  C   C5        1.0  0.37227  0.8701499999999999  0.9225000000000001  1.0000
  C   C6        1.0  0.12645  0.3332  0.07388  1.0000
  C   C7        1.0  0.87227  0.3701  0.92251  1.0000
  C   C8        1.0  0.19283  0.37725  0.53757  1.0000
  C   C9        1.0  0.79194  0.34798  0.4592  1.0000
  C   C10       1.0  0.69755  0.86692  0.46418000000000004  1.0000
  C   C11       1.0  0.29001  0.83223  0.53231  1.0000
  C   C12       1.0  0.19755  0.36691  0.46418000000000004  1.0000
  C   C13       1.0  0.79001  0.33224  0.53231  1.0000
  C   C14       1.0  0.76009  0.90002  0.43029000000000006  1.0000
  C   C15       1.0  0.24944  0.9125899999999999  0.57469  1.0000
  C   C16       1.0  0.26009  0.40002  0.43029000000000006  1.0000
  C   C17       1.0  0.27175  0.37345  0.3558500000000001  1.0000
  C   C18       1.0  0.74944  0.41258999999999996  0.57469  1.0000
  C   C19       1.0  0.81837  0.93861  0.47047  1.0000
  C   C20       1.0  0.21434  0.012149999999999998  0.54424  1.0000
  C   C21       1.0  0.31837  0.43861999999999995  0.47047  1.0000
  C   C22       1.0  0.71433  0.51214  0.54423  1.0000
  C   C23       1.0  0.81465  0.9439699999999999  0.54299  1.0000
  C   C24       1.0  0.21539000000000003  0.02652  0.4717700000000001  1.0000
  C   C25       1.0  0.31465  0.44398  0.54299  1.0000
  C   C26       1.0  0.71538  0.5265  0.4717700000000001  1.0000
  C   C27       1.0  0.75107  0.91924  0.57688  1.0000
  C   C28       1.0  0.23012  0.87633  0.64578  1.0000
  C   C29       1.0  0.25326  0.94371  0.42867  1.0000
  C   C30       1.0  0.25107  0.41924  0.57688  1.0000
  C   C31       1.0  0.75326  0.4437  0.42867  1.0000
  C   C32       1.0  0.49827999999999995  0.05127  0.9616500000000002  1.0000
  C   C33       1.0  0.47670000000000007  0.04984  0.030670000000000003  1.0000
  C   C34       1.0  0.99826  0.55127  0.9616400000000003  1.0000
  C   C35       1.0  0.97667  0.54984  0.03066  1.0000
  C   C36       1.0  0.45779999999999993  0.15933  0.0648  1.0000
  C   C37       1.0  0.5006  0.16180999999999998  0.9237  1.0000
  C   C38       1.0  0.9578  0.65933  0.0648  1.0000
  C   C39       1.0  0.77175  0.87345  0.3558500000000001  1.0000
  C   C40       1.0  0.0006000000000000001  0.66181  0.9237  1.0000
  C   C41       1.0  0.45855  0.27094  0.027290000000000002  1.0000
  C   C42       1.0  0.48088  0.2722899999999999  0.9566800000000001  1.0000
  C   C43       1.0  0.95856  0.7709399999999998  0.027290000000000002  1.0000
  C   C44       1.0  0.98089  0.77229  0.95669  1.0000
  C   C45       1.0  0.53112  0.15524  0.6465500000000001  1.0000
  C   C46       1.0  0.43517  0.15113999999999997  0.3609  1.0000
  C   C47       1.0  0.03112000000000001  0.6552399999999999  0.6465500000000001  1.0000
  C   C48       1.0  0.93517  0.65114  0.3609  1.0000
  C   C49       1.0  0.80601  0.98957  0.96989  1.0000
  C   C50       1.0  0.52608  0.35693  0.44877  1.0000
  C   C51       1.0  0.18216  0.91742  0.04394000000000001  1.0000
  C   C52       1.0  0.30601  0.48958999999999997  0.96989  1.0000
  C   C53       1.0  0.68216  0.4174399999999999  0.04394000000000001  1.0000
  C   C54       1.0  0.80302  0.98898  0.04245  1.0000
  C   C55       1.0  0.17815000000000003  0.9109999999999998  0.9710300000000001  1.0000
  C   C56       1.0  0.30301  0.489  0.04246  1.0000
  C   C57       1.0  0.67815  0.41101999999999994  0.9710300000000001  1.0000
  C   C58       1.0  0.7497  0.92627  0.07821  1.0000
  C   C59       1.0  0.23925  0.8988199999999998  0.9292700000000002  1.0000
  C   C60       1.0  0.24969999999999998  0.42627999999999994  0.07821  1.0000
  C   C61       1.0  0.54856  0.35936  0.52606  1.0000
  C   C62       1.0  0.73925  0.39881999999999995  0.9292700000000002  1.0000
  C   C63       1.0  0.69092  0.8815099999999998  0.03985  1.0000
  C   C64       1.0  0.30548  0.8848399999999998  0.96215  1.0000
  C   C65       1.0  0.19092  0.38151999999999997  0.03986  1.0000
  C   C66       1.0  0.80548  0.38481  0.96215  1.0000
  C   C67       1.0  0.69205  0.8876999999999999  0.9658500000000001  1.0000
  C   C68       1.0  0.30894  0.8896099999999999  0.03585  1.0000
  C   C69       1.0  0.19205  0.38771  0.9658500000000001  1.0000
  C   C70       1.0  0.80893  0.38958  0.03586  1.0000
  C   C71       1.0  0.74927  0.94073  0.9301800000000001  1.0000
  C   C72       1.0  0.02608  0.8569399999999998  0.44877  1.0000
  C   C73       1.0  0.24848000000000003  0.9147799999999998  0.07645  1.0000
  C   C74       1.0  0.24927  0.44074  0.9301900000000001  1.0000
  C   C75       1.0  0.74848  0.41478  0.07645  1.0000
  C   C76       1.0  0.74151  0.9677899999999999  0.6478200000000002  1.0000
  C   C77       1.0  0.2595  0.973  0.3541  1.0000
  C   C78       1.0  0.24151000000000003  0.4678  0.6478200000000002  1.0000
  C   C79       1.0  0.7595  0.473  0.3541  1.0000
  C   C80       1.0  0.72809  0.37514999999999993  0.8542100000000002  1.0000
  C   C81       1.0  0.26905  0.38136999999999993  0.14863  1.0000
  C   C82       1.0  0.22809000000000001  0.8751499999999998  0.8542100000000002  1.0000
  C   C83       1.0  0.04856  0.85937  0.52606  1.0000
  C   C84       1.0  0.76905  0.8813599999999998  0.14863  1.0000
  C   C85       1.0  0.53232  0.15694  0.8536500000000001  1.0000
  C   C86       1.0  0.43726  0.15291999999999997  0.13899000000000003  1.0000
  C   C87       1.0  0.03232  0.65694  0.8536500000000001  1.0000
  C   C88       1.0  0.9372599999999999  0.65292  0.13899000000000003  1.0000
  C   C89       1.0  0.74102  0.9739099999999998  0.8557100000000002  1.0000
  C   C90       1.0  0.25815  0.9674899999999999  0.14674  1.0000
  C   C91       1.0  0.24102  0.47391  0.8557100000000002  1.0000
  C   C92       1.0  0.75815  0.46749  0.14675  1.0000
  C   C93       1.0  0.4485  0.15909  0.43733  1.0000
  C   C94       1.0  0.69283  0.8772599999999999  0.53757  1.0000
  C   C95       1.0  0.48941  0.16446  0.5813400000000001  1.0000
  C   C96       1.0  0.9485  0.6590899999999998  0.43733  1.0000
  C   C97       1.0  0.98941  0.66446  0.5813400000000001  1.0000
  C   C98       1.0  0.4696600000000001  0.26901  0.46980000000000005  1.0000
  C   C99       1.0  0.49005000000000004  0.27153999999999995  0.5404000000000001  1.0000
  C   C100      1.0  0.96966  0.7690099999999999  0.46980000000000005  1.0000
  C   C101      1.0  0.9900499999999999  0.77154  0.5404000000000001  1.0000
  C   C102      1.0  0.45695  0.059079999999999994  0.55242  1.0000
  C   C103      1.0  0.43711  0.05634  0.48078000000000004  1.0000
  C   C104      1.0  0.95696  0.55908  0.55242  1.0000
  Cl  Cl1       1.0  0.88426  0.051829999999999994  0.93416  1.0000
  Cl  Cl2       1.0  0.10268  0.9288099999999999  0.09197000000000002  1.0000
  Cl  Cl3       1.0  0.38426  0.55186  0.93417  1.0000
  Cl  Cl4       1.0  0.60268  0.42885  0.09197000000000002  1.0000
  Cr  Cr1       1.0  0.77195  0.16948  0.7501  1.0000
  Cr  Cr2       1.0  0.38341  0.01062  0.24939000000000003  1.0000
  Cr  Cr3       1.0  0.11659  0.51062  0.75061  1.0000
  Cr  Cr4       1.0  0.88341  0.51062  0.24939000000000003  1.0000
  Cr  Cr5       1.0  0.22805000000000003  0.16948  0.24990000000000004  1.0000
  Cr  Cr6       1.0  0.27195  0.66948  0.7501  1.0000
  Cr  Cr7       1.0  0.72805  0.66948  0.24990000000000004  1.0000
  Cr  Cr8       1.0  0.61493  0.32334  0.74917  1.0000
  Cr  Cr9       1.0  0.38507  0.32334  0.25083  1.0000
  Cr  Cr10      1.0  0.11493  0.82334  0.74917  1.0000
  Cr  Cr11      1.0  0.88507  0.82334  0.25083  1.0000
  Cr  Cr12      1.0  0.61659  0.01062  0.75061  1.0000
  H   H1        1.0  0.4528  0.97529  0.58302  1.0000
  H   H2        1.0  0.36005  0.88391  0.061130000000000004  1.0000
  H   H3        1.0  0.14663  0.3558  0.9362100000000001  1.0000
  H   H4        1.0  0.8600399999999999  0.3838599999999999  0.06114000000000001  1.0000
  H   H5        1.0  0.00421  0.9463  0.43029000000000006  1.0000
  H   H6        1.0  0.10143  0.8177799999999997  0.535  1.0000
  H   H7        1.0  0.50422  0.44629  0.43029000000000006  1.0000
  H   H8        1.0  0.60143  0.31777  0.535  1.0000
  H   H9        1.0  0.56609  0.31451  0.4131000000000001  1.0000
  H   H10       1.0  0.53983  0.45016  0.55205  1.0000
  H   H11       1.0  0.06609  0.8145199999999998  0.4131000000000001  1.0000
  H   H12       1.0  0.41765  0.9713799999999999  0.45825000000000005  1.0000
  H   H13       1.0  0.03983000000000001  0.95017  0.55205  1.0000
  H   H14       1.0  0.64292  0.8583599999999999  0.56292  1.0000
  H   H15       1.0  0.32288  0.7856  0.42669  1.0000
  H   H16       1.0  0.14292  0.35834  0.56292  1.0000
  H   H17       1.0  0.82289  0.28562  0.42670000000000013  1.0000
  H   H18       1.0  0.65272  0.83401  0.43411000000000005  1.0000
  H   H19       1.0  0.31696  0.7535899999999999  0.55501  1.0000
  H   H20       1.0  0.15272  0.33399  0.43412  1.0000
  H   H21       1.0  0.81697  0.25361  0.55501  1.0000
  H   H22       1.0  0.8681099999999999  0.96235  0.44625  1.0000
  H   H23       1.0  0.95281  0.47529  0.58302  1.0000
  H   H24       1.0  0.18287  0.07492  0.57602  1.0000
  H   H25       1.0  0.36811  0.46236  0.44625  1.0000
  H   H26       1.0  0.68285  0.5749  0.57601  1.0000
  H   H27       1.0  0.8604899999999999  0.97564  0.5720200000000001  1.0000
  H   H28       1.0  0.18684  0.1038  0.44963  1.0000
  H   H29       1.0  0.36049  0.47564999999999996  0.5720200000000001  1.0000
  H   H30       1.0  0.68682  0.60377  0.44963  1.0000
  H   H31       1.0  0.51551  0.9644399999999999  0.9390500000000003  1.0000
  H   H32       1.0  0.47675000000000006  0.96195  0.057510000000000006  1.0000
  H   H33       1.0  0.01548  0.46444  0.93903  1.0000
  H   H34       1.0  0.9176599999999999  0.47137  0.45825000000000005  1.0000
  H   H35       1.0  0.97672  0.46195  0.0575  1.0000
  H   H36       1.0  0.44365999999999994  0.35653  0.05287  1.0000
  H   H37       1.0  0.48458999999999997  0.35859  0.9286400000000001  1.0000
  H   H38       1.0  0.9436799999999999  0.85654  0.05287  1.0000
  H   H39       1.0  0.9846200000000002  0.8585899999999999  0.9286500000000001  1.0000
  H   H40       1.0  0.59226  0.7712599999999998  0.04458  1.0000
  H   H41       1.0  0.41631  0.8228  0.94718  1.0000
  H   H42       1.0  0.09225  0.27128  0.04458  1.0000
  H   H43       1.0  0.9163  0.32273999999999997  0.94719  1.0000
  H   H44       1.0  0.84723  0.02869  0.07073  1.0000
  H   H45       1.0  0.12617  0.9127399999999999  0.9472100000000001  1.0000
  H   H46       1.0  0.34722  0.52871  0.07074  1.0000
  H   H47       1.0  0.62618  0.4127799999999999  0.9472100000000001  1.0000
  H   H48       1.0  0.64663  0.85579  0.9362100000000001  1.0000
  O   O1        1.0  0.78751  0.04261  0.67041  1.0000
  O   O2        1.0  0.45424999999999993  0.05106999999999999  0.16944  1.0000
  O   O3        1.0  0.04575  0.55107  0.83056  1.0000
  O   O4        1.0  0.95425  0.55107  0.16944  1.0000
  O   O5        1.0  0.68121  0.9591499999999998  0.82532  1.0000
  O   O6        1.0  0.31879  0.9591499999999998  0.17468  1.0000
  O   O7        1.0  0.18121  0.45915  0.82532  1.0000
  O   O8        1.0  0.81879  0.45915  0.17468  1.0000
  O   O9        1.0  0.66782  0.16781  0.74996  1.0000
  O   O10       1.0  0.33218  0.16781  0.25004  1.0000
  O   O11       1.0  0.16782  0.66781  0.74996  1.0000
  O   O12       1.0  0.21249  0.04261  0.32959  1.0000
  O   O13       1.0  0.83218  0.66781  0.25004  1.0000
  O   O14       1.0  0.76567  0.29208999999999996  0.67509  1.0000
  O   O15       1.0  0.23433  0.29208999999999996  0.32491000000000003  1.0000
  O   O16       1.0  0.26567  0.79209  0.67509  1.0000
  O   O17       1.0  0.73433  0.79209  0.32491000000000003  1.0000
  O   O18       1.0  0.67022  0.4090199999999999  0.66856  1.0000
  O   O19       1.0  0.32978  0.4090199999999999  0.3314400000000001  1.0000
  O   O20       1.0  0.17022  0.90902  0.66856  1.0000
  O   O21       1.0  0.82978  0.90902  0.3314400000000001  1.0000
  O   O22       1.0  0.55658  0.25159  0.67498  1.0000
  O   O23       1.0  0.28751  0.54261  0.67041  1.0000
  O   O24       1.0  0.44342  0.25159  0.32502  1.0000
  O   O25       1.0  0.056580000000000005  0.7515899999999999  0.67498  1.0000
  O   O26       1.0  0.9434199999999999  0.7515899999999999  0.32502  1.0000
  O   O27       1.0  0.54589  0.04966999999999999  0.67003  1.0000
  O   O28       1.0  0.45411000000000007  0.04966999999999999  0.3299700000000001  1.0000
  O   O29       1.0  0.04589  0.54967  0.67003  1.0000
  O   O30       1.0  0.95411  0.54967  0.3299700000000001  1.0000
  O   O31       1.0  0.68134  0.95786  0.6765000000000001  1.0000
  O   O32       1.0  0.31866  0.95786  0.3235000000000001  1.0000
  O   O33       1.0  0.18134  0.45786  0.6765000000000001  1.0000
  O   O34       1.0  0.71249  0.54261  0.32959  1.0000
  O   O35       1.0  0.81866  0.45786  0.3235000000000001  1.0000
  O   O36       1.0  0.78738  0.04401  0.8309400000000002  1.0000
  O   O37       1.0  0.21262000000000003  0.04401  0.16906  1.0000
  O   O38       1.0  0.28738  0.54401  0.8309400000000002  1.0000
  O   O39       1.0  0.71262  0.54401  0.16906  1.0000
  O   O40       1.0  0.7655400000000001  0.29339  0.8239100000000001  1.0000
  O   O41       1.0  0.23446000000000003  0.29339  0.17609000000000002  1.0000
  O   O42       1.0  0.26554  0.7933899999999999  0.8239100000000001  1.0000
  O   O43       1.0  0.73446  0.7933899999999999  0.17609000000000002  1.0000
  O   O44       1.0  0.67009  0.41041  0.82909  1.0000
  O   O45       1.0  0.55645  0.25289  0.82379  1.0000
  O   O46       1.0  0.32991  0.41041  0.17091  1.0000
  O   O47       1.0  0.17009  0.91041  0.82909  1.0000
  O   O48       1.0  0.82991  0.91041  0.17091  1.0000
  O   O49       1.0  0.60861  0.86726  0.13302  1.0000
  O   O50       1.0  0.38022  0.91542  0.86389  1.0000
  O   O51       1.0  0.10861  0.36725  0.13303  1.0000
  O   O52       1.0  0.8802200000000001  0.41535999999999995  0.86389  1.0000
  O   O53       1.0  0.44355  0.25289  0.17621000000000003  1.0000
  O   O54       1.0  0.05645  0.75289  0.82379  1.0000
  O   O55       1.0  0.94355  0.75289  0.17621000000000003  1.0000
  O   O56       1.0  0.54575  0.05106999999999999  0.83056  1.0000
