data_image0
_chemical_formula_structural       O8C4O8C4O4V4C4H8C52H24
_chemical_formula_sum              "O20 C64 V4 H32"
_cell_length_a       7.24145
_cell_length_b       14.79739
_cell_length_c       22.56388
_cell_angle_alpha    89.99912
_cell_angle_beta     90.00777
_cell_angle_gamma    88.92123

_symmetry_space_group_name_H-M    'P 1'
_symmetry_Int_Tables_number       1

loop_
  _symmetry_equiv_pos_as_xyz
  'x,y,z'

loop_
  _atom_site_type_symbol
  _atom_site_label
  _atom_site_symmetry_multiplicity
  _atom_site_fract_x
  _atom_site_fract_y
  _atom_site_fract_z
  _atom_site_occupancy
  O   O1        1.0  0.39081  0.84481  0.44733999999999996  1.0000
  O   O2        1.0  0.10919000000000001  0.15518999999999997  0.94734  1.0000
  O   O3        1.0  0.89081  0.65519  0.55266  1.0000
  O   O4        1.0  0.60919  0.34481  0.05266  1.0000
  O   O5        1.0  0.7205500000000002  0.65582  0.44042  1.0000
  O   O6        1.0  0.77945  0.34418  0.94042  1.0000
  O   O7        1.0  0.22055000000000005  0.84418  0.55958  1.0000
  O   O8        1.0  0.27945  0.15582  0.05958  1.0000
  C   C1        1.0  0.55365  0.62653  0.42618  1.0000
  C   C2        1.0  0.94633  0.37348  0.92619  1.0000
  C   C3        1.0  0.050780000000000027  0.87328  0.57381  1.0000
  C   C4        1.0  0.44924  0.12671  0.0738  1.0000
  O   O9        1.0  0.72053  0.84413  0.44042  1.0000
  O   O10       1.0  0.7794700000000002  0.15587  0.94042  1.0000
  O   O11       1.0  0.22053  0.65587  0.55958  1.0000
  O   O12       1.0  0.27947  0.34413  0.05958  1.0000
  O   O13       1.0  0.89083  0.84481  0.55266  1.0000
  O   O14       1.0  0.6091700000000001  0.15518999999999997  0.05266  1.0000
  O   O15       1.0  0.39083000000000007  0.65519  0.44733999999999996  1.0000
  O   O16       1.0  0.10917  0.34481  0.94734  1.0000
  C   C5        1.0  0.5508000000000002  0.87345  0.42632  1.0000
  C   C6        1.0  0.9491800000000002  0.12654  0.92632  1.0000
  C   C7        1.0  0.05371  0.62677  0.57397  1.0000
  C   C8        1.0  0.44631  0.37323  0.07397  1.0000
  O   O17       1.0  0.55731  0.74998  0.53682  1.0000
  O   O18       1.0  0.94269  0.25002  0.03682  1.0000
  O   O19       1.0  0.05731000000000002  0.75002  0.46318000000000004  1.0000
  O   O20       1.0  0.44269  0.24998  0.96318  1.0000
  V   V1        1.0  0.8321600000000002  0.74998  0.49316999999999994  1.0000
  V   V2        1.0  0.66784  0.25002  0.99317  1.0000
  V   V3        1.0  0.33216  0.75002  0.50683  1.0000
  V   V4        1.0  0.16784000000000002  0.24998  0.00683  1.0000
  C   C9        1.0  0.85462  0.60135  0.85742  1.0000
  C   C10       1.0  0.6445200000000002  0.39854  0.3575  1.0000
  C   C11       1.0  0.51961  0.89306  0.13607  1.0000
  C   C12       1.0  0.98168  0.10701  0.63608  1.0000
  H   H1        1.0  0.82261  0.72156  0.77102  1.0000
  H   H2        1.0  0.6761200000000003  0.27825  0.27113  1.0000
  H   H3        1.0  0.5819  0.76952  0.21879999999999997  1.0000
  H   H4        1.0  0.91988  0.2306  0.7188  1.0000
  H   H5        1.0  0.79643  0.66594  0.87139  1.0000
  H   H6        1.0  0.70229  0.33387999999999995  0.37151000000000006  1.0000
  H   H7        1.0  0.5408400000000001  0.82528  0.11882  1.0000
  H   H8        1.0  0.9611  0.17484  0.61884  1.0000
  C   C13       1.0  0.94682  0.44805  0.88273  1.0000
  C   C14       1.0  0.55308  0.55196  0.38272999999999996  1.0000
  C   C15       1.0  0.4638500000000001  0.05206  0.11686  1.0000
  C   C16       1.0  0.03626999999999999  0.94793  0.61687  1.0000
  C   C17       1.0  0.12848  0.46838  0.59811  1.0000
  C   C18       1.0  0.37221  0.53171  0.09803  1.0000
  C   C19       1.0  0.51063  0.0362  0.40721  1.0000
  C   C20       1.0  0.9884500000000003  0.96374  0.90721  1.0000
  C   C21       1.0  0.15412  0.39729  0.63765  1.0000
  C   C22       1.0  0.34693  0.60288  0.13755  1.0000
  C   C23       1.0  0.48118  0.10992  0.36999  1.0000
  C   C24       1.0  0.01746  0.88999  0.86999  1.0000
  C   C25       1.0  0.10883  0.40773  0.69727  1.0000
  C   C26       1.0  0.39201  0.59242  0.19718  1.0000
  C   C27       1.0  0.47479000000000005  0.09846  0.30874  1.0000
  C   C28       1.0  0.02414  0.90146  0.8087499999999999  1.0000
  C   C29       1.0  0.03158  0.4898  0.7189  1.0000
  C   C30       1.0  0.46865  0.51026  0.21887  1.0000
  C   C31       1.0  0.50141  0.01219  0.28273  1.0000
  C   C32       1.0  0.99831  0.98778  0.78273  1.0000
  C   C33       1.0  0.003820000000000001  0.56263  0.67774  1.0000
  C   C34       1.0  0.49607  0.43735  0.17775  1.0000
  C   C35       1.0  0.53369  0.93667  0.32136  1.0000
  C   C36       1.0  0.96649  0.06334  0.82136  1.0000
  C   C37       1.0  0.9828400000000003  0.5022  0.78005  1.0000
  C   C38       1.0  0.51714  0.49782  0.28005  1.0000
  C   C39       1.0  0.49575  0.99831  0.21982  1.0000
  C   C40       1.0  0.0043  0.00168  0.71983  1.0000
  C   C41       1.0  0.9071200000000003  0.58709  0.7982400000000001  1.0000
  C   C42       1.0  0.5923  0.41284  0.29829  1.0000
  C   C43       1.0  0.52363  0.90933  0.19734  1.0000
  C   C44       1.0  0.97721  0.09071  0.69735  1.0000
  C   C45       1.0  0.88176  0.6571  0.7572499999999999  1.0000
  C   C46       1.0  0.61738  0.3427799999999999  0.25733  1.0000
  C   C47       1.0  0.5572  0.83702  0.23596999999999999  1.0000
  C   C48       1.0  0.94401  0.16306  0.73597  1.0000
  C   C49       1.0  0.92995  0.64539  0.69812  1.0000
  C   C50       1.0  0.56941  0.35451  0.19817  1.0000
  C   C51       1.0  0.56121  0.85018  0.2969  1.0000
  C   C52       1.0  0.93968  0.14989  0.7969000000000002  1.0000
  C   C53       1.0  0.0031899999999999984  0.43323  0.82381  1.0000
  C   C54       1.0  0.49702  0.56684  0.32378  1.0000
  C   C55       1.0  0.4656  0.06934  0.17813  1.0000
  C   C56       1.0  0.03404000000000001  0.93061  0.67814  1.0000
  C   C57       1.0  0.87244  0.53222  0.89901  1.0000
  C   C58       1.0  0.6269300000000002  0.46771  0.3990699999999999  1.0000
  C   C59       1.0  0.49079  0.96384  0.09626  1.0000
  C   C60       1.0  0.01018  0.0362  0.59627  1.0000
  C   C61       1.0  0.054450000000000005  0.5514  0.61717  1.0000
  C   C62       1.0  0.44568000000000013  0.44861  0.11716  1.0000
  C   C63       1.0  0.5363700000000002  0.94938  0.38385  1.0000
  C   C64       1.0  0.96349  0.05062  0.88384  1.0000
  H   H9        1.0  0.056249999999999994  0.36664  0.81333  1.0000
  H   H10       1.0  0.44435  0.63349  0.31326  1.0000
  H   H11       1.0  0.44673  0.13878  0.19155  1.0000
  H   H12       1.0  0.052300000000000006  0.86113  0.69156  1.0000
  H   H13       1.0  0.1699  0.45911  0.55232  1.0000
  H   H14       1.0  0.33099  0.54101  0.05222  1.0000
  H   H15       1.0  0.51099  0.04675  0.45474999999999993  1.0000
  H   H16       1.0  0.98778  0.95317  0.95474  1.0000
  H   H17       1.0  0.13817  0.35052  0.7253699999999998  1.0000
  H   H18       1.0  0.36303  0.64971  0.22524999999999998  1.0000
  H   H19       1.0  0.44732  0.15846  0.28304  1.0000
  H   H20       1.0  0.0512  0.84141  0.7830499999999999  1.0000
  H   H21       1.0  0.213  0.33376  0.62217  1.0000
  H   H22       1.0  0.28851  0.6664799999999999  0.12201  1.0000
  H   H23       1.0  0.46054  0.17665  0.38884  1.0000
  H   H24       1.0  0.03747  0.82321  0.88884  1.0000
  H   H25       1.0  0.90765  0.70188  0.66832  1.0000
  H   H26       1.0  0.59147  0.29798  0.1684  1.0000
  H   H27       1.0  0.58745  0.79182  0.3248  1.0000
  H   H28       1.0  0.91377  0.20828  0.8247999999999999  1.0000
  H   H29       1.0  0.8262  0.5441  0.94406  1.0000
  H   H30       1.0  0.6729100000000001  0.45578  0.4441399999999999  1.0000
  H   H31       1.0  0.49177  0.94995  0.04911  1.0000
  H   H32       1.0  0.00964  0.05012  0.54912  1.0000
