data_image0
_chemical_formula_structural       C70Cr6H36O26CO2HC2H5C2H5CO2HCO2HCO2H
_chemical_formula_sum              "C78 Cr6 H50 O34"
_cell_length_a       11.18044
_cell_length_b       11.04941
_cell_length_c       18.78409
_cell_angle_alpha    90.01891
_cell_angle_beta     90.21631
_cell_angle_gamma    61.80975

_space_group_name_H-M_alt    "P 1"
_space_group_IT_number       1

loop_
  _space_group_symop_operation_xyz
  'x, y, z'

loop_
  _atom_site_type_symbol
  _atom_site_label
  _atom_site_symmetry_multiplicity
  _atom_site_fract_x
  _atom_site_fract_y
  _atom_site_fract_z
  _atom_site_occupancy
  C   C1        1.0  0.2368600000000001  0.6450299999999999  0.6095599999999999  1.0000
  C   C2        1.0  0.75492  0.51436  0.79714  1.0000
  C   C3        1.0  0.6940500000000001  0.6697  0.81502  1.0000
  C   C4        1.0  0.66576  0.6379999999999999  0.67929  1.0000
  C   C5        1.0  0.7491600000000002  0.71479  0.68913  1.0000
  C   C6        1.0  0.73933  0.49607  0.71765  1.0000
  C   C7        1.0  0.68741  0.17112999999999998  0.82748  1.0000
  C   C8        1.0  0.79986  0.15035  0.78449  1.0000
  C   C9        1.0  0.78677  0.14987  0.70911  1.0000
  C   C10       1.0  0.54479  0.22984999999999997  0.72337  1.0000
  C   C11       1.0  0.5594800000000001  0.22192999999999996  0.79604  1.0000
  C   C12       1.0  0.65009  0.61579  0.60289  1.0000
  C   C13       1.0  0.9236200000000002  0.1328  0.81371  1.0000
  C   C14       1.0  0.03357000000000001  0.10590999999999999  0.76995  1.0000
  C   C15       1.0  0.023880000000000005  0.09377999999999999  0.69687  1.0000
  C   C16       1.0  0.90317  0.11147999999999998  0.66672  1.0000
  C   C17       1.0  0.65699  0.19104  0.6786199999999999  1.0000
  C   C18       1.0  0.18030000000000002  0.66614  0.83502  1.0000
  C   C19       1.0  0.18443000000000012  0.5524099999999998  0.7975399999999999  1.0000
  C   C20       1.0  0.17636000000000004  0.5562599999999999  0.7219  1.0000
  C   C21       1.0  0.20289  0.76198  0.7241  1.0000
  C   C22       1.0  0.19617999999999997  0.76568  0.7972599999999999  1.0000
  C   C23       1.0  0.62506  0.23249  0.60377  1.0000
  C   C24       1.0  0.19607000000000005  0.4350399999999999  0.8333  1.0000
  C   C25       1.0  0.18316  0.33268  0.79655  1.0000
  C   C26       1.0  0.1568100000000001  0.34570999999999996  0.72377  1.0000
  C   C27       1.0  0.15283000000000002  0.45655999999999997  0.68656  1.0000
  C   C28       1.0  0.19279999999999997  0.65925  0.68473  1.0000
  C   C29       1.0  0.6458400000000003  0.6558999999999999  0.16492  1.0000
  C   C30       1.0  0.7228200000000001  0.5314799999999998  0.20198  1.0000
  C   C31       1.0  0.7512100000000003  0.54396  0.27387  1.0000
  C   C32       1.0  0.56638  0.76701  0.28064  1.0000
  C   C33       1.0  0.5566200000000001  0.7684899999999998  0.20493  1.0000
  C   C34       1.0  0.2897  0.62478  0.39259  1.0000
  C   C35       1.0  0.8206000000000001  0.41888  0.16586999999999996  1.0000
  C   C36       1.0  0.95147  0.3988199999999999  0.17588  1.0000
  C   C37       1.0  0.9790900000000001  0.46016999999999997  0.2349  1.0000
  C   C38       1.0  0.8856500000000002  0.51089  0.28967  1.0000
  C   C39       1.0  0.65189  0.64513  0.31497  1.0000
  C   C40       1.0  0.6532799999999999  0.17468  0.17151  1.0000
  C   C41       1.0  0.5272500000000001  0.22062999999999997  0.20238  1.0000
  C   C42       1.0  0.51809  0.20991  0.2762  1.0000
  C   C43       1.0  0.7540100000000001  0.16221  0.28694  1.0000
  C   C44       1.0  0.76447  0.15315  0.21375  1.0000
  C   C45       1.0  0.64004  0.6191799999999998  0.39109  1.0000
  C   C46       1.0  0.41022  0.2728  0.16001999999999997  1.0000
  C   C47       1.0  0.28886  0.29958  0.18884  1.0000
  C   C48       1.0  0.28230000000000005  0.26599  0.2593  1.0000
  C   C49       1.0  0.39372  0.22421  0.3029  1.0000
  C   C50       1.0  0.6306700000000001  0.19207  0.31920999999999994  1.0000
  C   C51       1.0  0.16484  0.70515  0.17919  1.0000
  C   C52       1.0  0.15631  0.8247  0.21767999999999998  1.0000
  C   C53       1.0  0.21066000000000007  0.7939299999999998  0.28776  1.0000
  C   C54       1.0  0.31894  0.55304  0.26459  1.0000
  C   C55       1.0  0.2824500000000001  0.5842  0.19269  1.0000
  C   C56       1.0  0.61027  0.23689  0.39332  1.0000
  C   C57       1.0  0.11306000000000005  0.96684  0.19126  1.0000
  C   C58       1.0  0.11232000000000003  0.06441  0.23868999999999999  1.0000
  C   C59       1.0  0.17597  0.02785  0.30304  1.0000
  C   C60       1.0  0.23312000000000002  0.8946699999999999  0.32373  1.0000
  C   C61       1.0  0.26078  0.65599  0.31524  1.0000
  C   C62       1.0  0.70275  0.10426  0.8972899999999999  1.0000
  C   C63       1.0  0.72125  0.68577  0.89041  1.0000
  C   C64       1.0  0.11827000000000003  0.70594  0.9061899999999999  1.0000
  C   C65       1.0  0.6770700000000002  0.10868  0.10236  1.0000
  C   C66       1.0  0.69486  0.6862299999999999  0.09598  1.0000
  C   C67       1.0  0.53897  0.7398899999999998  0.79529  1.0000
  C   C68       1.0  0.08605000000000007  0.7194799999999999  0.11441  1.0000
  C   C69       1.0  0.5242700000000002  0.71994  0.71497  1.0000
  C   C70       1.0  0.7695100000000001  0.72986  0.76911  1.0000
  Cr  Cr1       1.0  0.39293999999999996  0.39795  0.5022299999999998  1.0000
  Cr  Cr2       1.0  0.3984000000000001  0.7084999999999999  0.50126  1.0000
  Cr  Cr3       1.0  0.7086400000000002  0.39352999999999994  0.49645999999999996  1.0000
  Cr  Cr4       1.0  0.9378800000000002  0.93832  0.00762  1.0000
  Cr  Cr5       1.0  0.62556  0.9372199999999999  0.99451  1.0000
  Cr  Cr6       1.0  0.9380800000000001  0.6250099999999998  0.00119  1.0000
  H   H1        1.0  0.8421500000000002  0.43196  0.69486  1.0000
  H   H2        1.0  0.88014  0.67437  0.7813299999999999  1.0000
  H   H3        1.0  0.84979  0.657  0.66303  1.0000
  H   H4        1.0  0.4429600000000001  0.26889  0.7024199999999999  1.0000
  H   H5        1.0  0.9356  0.14638  0.8696800000000001  1.0000
  H   H6        1.0  0.47048  0.24623  0.82779  1.0000
  H   H7        1.0  0.12841  0.08983  0.79302  1.0000
  H   H8        1.0  0.11084000000000002  0.06924  0.66332  1.0000
  H   H9        1.0  0.90299  0.09408  0.6101499999999999  1.0000
  H   H10       1.0  0.22290000000000007  0.8379399999999999  0.6986  1.0000
  H   H11       1.0  0.49523  0.68217  0.8245299999999999  1.0000
  H   H12       1.0  0.22029000000000007  0.41861  0.88942  1.0000
  H   H13       1.0  0.19854000000000005  0.8505799999999999  0.82441  1.0000
  H   H14       1.0  0.19342000000000004  0.24370999999999998  0.82523  1.0000
  H   H15       1.0  0.14287000000000002  0.26818999999999993  0.69553  1.0000
  H   H16       1.0  0.12905999999999998  0.46381  0.63044  1.0000
  H   H17       1.0  0.79574  0.38755  0.11566  1.0000
  H   H18       1.0  0.021469999999999982  0.35062  0.1331  1.0000
  H   H19       1.0  0.06446  0.47934  0.23745  1.0000
  H   H20       1.0  0.46800000000000025  0.66044  0.70826  1.0000
  H   H21       1.0  0.9111600000000001  0.54931  0.33735  1.0000
  H   H22       1.0  0.41106000000000004  0.29553  0.104  1.0000
  H   H23       1.0  0.86084  0.1224  0.19004999999999997  1.0000
  H   H24       1.0  0.20492999999999995  0.33869  0.15337  1.0000
  H   H25       1.0  0.19179  0.27215  0.28162  1.0000
  H   H26       1.0  0.38133  0.18976999999999994  0.35462  1.0000
  H   H27       1.0  0.40816  0.46199999999999997  0.27997  1.0000
  H   H28       1.0  0.46366  0.8197699999999999  0.68736  1.0000
  H   H29       1.0  0.07999000000000002  0.16764  0.22250999999999999  1.0000
  H   H30       1.0  0.18797  0.10116  0.33629  1.0000
  H   H31       1.0  0.30362  0.8735399999999999  0.36626  1.0000
  H   H32       1.0  0.73521  0.83932  0.78242  1.0000
  H   H33       1.0  0.6965700000000002  0.81756  0.66339  1.0000
  H   H34       1.0  0.86499  0.45738999999999996  0.81057  1.0000
  H   H35       1.0  0.7033400000000001  0.4671399999999999  0.82855  1.0000
  H   H36       1.0  0.6803600000000001  0.43935  0.71024  1.0000
  O   O1        1.0  0.50734  0.25569  0.5814299999999999  1.0000
  O   O2        1.0  0.52451  0.69582  0.42405  1.0000
  O   O3        1.0  0.73637  0.50426  0.41481  1.0000
  O   O4        1.0  0.69122  0.27726999999999996  0.42218  1.0000
  O   O5        1.0  0.49998999999999993  0.49999  0.4999799999999999  1.0000
  O   O6        1.0  0.08957000000000002  0.8254499999999999  0.9305899999999999  1.0000
  O   O7        1.0  0.8187000000000002  0.05426  0.92986  1.0000
  O   O8        1.0  0.60631  0.07701  0.9155199999999999  1.0000
  O   O9        1.0  0.6467300000000001  0.8065399999999999  0.91756  1.0000
  O   O10       1.0  0.8372900000000001  0.59324  0.91524  1.0000
  O   O11       1.0  0.06531999999999999  0.63531  0.93158  1.0000
  O   O12       1.0  0.28036  0.52738  0.57891  1.0000
  O   O13       1.0  0.06847000000000006  0.8286199999999999  0.09185  1.0000
  O   O14       1.0  0.79915  0.05719999999999999  0.07935  1.0000
  O   O15       1.0  0.58522  0.08017999999999999  0.07676999999999999  1.0000
  O   O16       1.0  0.62717  0.80948  0.06705  1.0000
  O   O17       1.0  0.8162000000000003  0.5964099999999999  0.0765  1.0000
  O   O18       1.0  0.04577  0.63824  0.08107  1.0000
  O   O19       1.0  0.8338400000000002  0.8335199999999999  0.00111  1.0000
  O   O20       1.0  0.26060000000000016  0.7396099999999998  0.58458  1.0000
  O   O21       1.0  0.53237  0.69505  0.57383  1.0000
  O   O22       1.0  0.7448500000000001  0.50343  0.57638  1.0000
  O   O23       1.0  0.6990800000000003  0.2765  0.57195  1.0000
  O   O24       1.0  0.49886  0.25652  0.41986  1.0000
  O   O25       1.0  0.27249  0.52815  0.42914  1.0000
  O   O26       1.0  0.25210999999999995  0.74044  0.42301  1.0000
  C   C71       1.0  0.4542200000000001  0.8903899999999999  0.81666  1.0000
  O   O27       1.0  0.37655000000000005  0.9185699999999999  0.86688  1.0000
  O   O28       1.0  0.46109  0.9981699999999999  0.78119  1.0000
  H   H37       1.0  0.5228100000000003  0.9689799999999997  0.73849  1.0000
  C   C72       1.0  0.53106  0.8968  0.32067999999999997  1.0000
  C   C73       1.0  0.66045  0.9022399999999999  0.34289  1.0000
  H   H38       1.0  0.7100999999999998  0.91884  0.29556  1.0000
  H   H39       1.0  0.6344000000000001  0.9842099999999999  0.38275  1.0000
  H   H40       1.0  0.7348500000000001  0.80688  0.36991  1.0000
  H   H41       1.0  0.46762000000000004  0.98306  0.28635  1.0000
  H   H42       1.0  0.47270000000000006  0.9078999999999999  0.36944  1.0000
  C   C74       1.0  0.42549000000000003  0.85688  0.16971  1.0000
  C   C75       1.0  0.4071700000000001  0.99359  0.1443  1.0000
  H   H43       1.0  0.48496  0.0137  0.16943  1.0000
  H   H44       1.0  0.41058  0.99795  0.08548  1.0000
  H   H45       1.0  0.30524  0.07335  0.15908  1.0000
  H   H46       1.0  0.40531000000000017  0.8004399999999998  0.12641  1.0000
  H   H47       1.0  0.3534100000000001  0.8750599999999998  0.21042  1.0000
  C   C76       1.0  0.87312  0.13518  0.33035  1.0000
  O   O29       1.0  0.90753  0.22456  0.3363  1.0000
  O   O30       1.0  0.9313100000000001  0.0178  0.37323999999999996  1.0000
  H   H48       1.0  0.99947  0.01917  0.40851  1.0000
  C   C77       1.0  0.10444  0.02191  0.11629  1.0000
  O   O31       1.0  0.010139999999999995  0.13291  0.09941  1.0000
  O   O32       1.0  0.20330000000000015  0.9481999999999998  0.0653  1.0000
  H   H49       1.0  0.18494999999999998  0.99737  0.01776  1.0000
  C   C78       1.0  0.38847  0.5366  0.13653999999999997  1.0000
  O   O33       1.0  0.50815  0.47978  0.15331  1.0000
  O   O34       1.0  0.35258  0.55975  0.06448  1.0000
  H   H50       1.0  0.4344200000000002  0.5235199999999999  0.03198  1.0000
