data_image0
_chemical_formula_structural       C124Cr12H128N4O52
_chemical_formula_sum              "C124 Cr12 H128 N4 O52"
_cell_length_a       19.4837
_cell_length_b       11.31758
_cell_length_c       18.69939
_cell_angle_alpha    90.00013999999999
_cell_angle_beta     90.28657000000001
_cell_angle_gamma    89.99997

_space_group_name_H-M_alt    "P 1"
_space_group_IT_number       1

loop_
  _space_group_symop_operation_xyz
  'x, y, z'

loop_
  _atom_site_type_symbol
  _atom_site_label
  _atom_site_symmetry_multiplicity
  _atom_site_fract_x
  _atom_site_fract_y
  _atom_site_fract_z
  _atom_site_occupancy
  C   C1        1.0  0.2726  0.04392  0.85408  1.0000
  C   C2        1.0  0.68988  0.52593  0.9565300000000001  1.0000
  C   C3        1.0  0.22699  0.54427  0.35382  1.0000
  C   C4        1.0  0.46936  0.82274  0.6458300000000002  1.0000
  C   C5        1.0  0.5306399999999999  0.82274  0.35417  1.0000
  C   C6        1.0  0.96936  0.3227400000000001  0.6458300000000002  1.0000
  C   C7        1.0  0.03064  0.3227400000000001  0.35417  1.0000
  C   C8        1.0  0.26057  0.63988  0.6438500000000001  1.0000
  C   C9        1.0  0.73943  0.63988  0.35615  1.0000
  C   C10       1.0  0.7605699999999997  0.13988000000000003  0.6438500000000001  1.0000
  C   C11       1.0  0.23942999999999998  0.13988000000000003  0.35615  1.0000
  C   C12       1.0  0.47969999999999996  0.91314  0.035620000000000006  1.0000
  C   C13       1.0  0.8101199999999997  0.02593000000000001  0.04347  1.0000
  C   C14       1.0  0.5203  0.9131500000000001  0.9643800000000001  1.0000
  C   C15       1.0  0.9797  0.41315  0.035620000000000006  1.0000
  C   C16       1.0  0.0203  0.41314000000000006  0.9643800000000001  1.0000
  C   C17       1.0  0.43184999999999996  0.81571  0.00614  1.0000
  C   C18       1.0  0.56815  0.81572  0.99386  1.0000
  C   C19       1.0  0.9318499999999998  0.31572  0.00614  1.0000
  C   C20       1.0  0.06815  0.31572  0.99386  1.0000
  C   C21       1.0  0.47237  0.8176000000000001  0.93588  1.0000
  C   C22       1.0  0.52763  0.8176000000000001  0.06412  1.0000
  C   C23       1.0  0.9723699999999998  0.3176  0.93588  1.0000
  C   C24       1.0  0.18988  0.02593000000000001  0.9565300000000001  1.0000
  C   C25       1.0  0.027629999999999995  0.3176  0.06412  1.0000
  C   C26       1.0  0.61432  0.1029  0.0358  1.0000
  C   C27       1.0  0.38568  0.1029  0.9642100000000001  1.0000
  C   C28       1.0  0.11431999999999998  0.60291  0.03579  1.0000
  C   C29       1.0  0.88568  0.6029  0.9642100000000001  1.0000
  C   C30       1.0  0.32055  0.54995  0.9631500000000001  1.0000
  C   C31       1.0  0.67945  0.54996  0.03685  1.0000
  C   C32       1.0  0.8205499999999999  0.04995000000000001  0.9631500000000001  1.0000
  C   C33       1.0  0.17945  0.04996000000000001  0.03685  1.0000
  C   C34       1.0  0.17709  0.53031  0.024840000000000004  1.0000
  C   C35       1.0  0.82291  0.53031  0.9751600000000002  1.0000
  C   C36       1.0  0.67709  0.030310000000000007  0.024840000000000004  1.0000
  C   C37       1.0  0.7274  0.04392  0.14592  1.0000
  C   C38       1.0  0.32291  0.030310000000000007  0.9751600000000002  1.0000
  C   C39       1.0  0.24556  0.7097  0.056940000000000004  1.0000
  C   C40       1.0  0.7544499999999997  0.7097  0.94306  1.0000
  C   C41       1.0  0.74555  0.2097  0.056940000000000004  1.0000
  C   C42       1.0  0.25443999999999994  0.2097  0.94306  1.0000
  C   C43       1.0  0.24041999999999997  0.57672  0.07007000000000001  1.0000
  C   C44       1.0  0.75958  0.57672  0.9299300000000001  1.0000
  C   C45       1.0  0.74042  0.07672  0.07007000000000001  1.0000
  C   C46       1.0  0.25958  0.07672  0.9299300000000001  1.0000
  C   C47       1.0  0.25576  0.61046  0.9320300000000001  1.0000
  C   C48       1.0  0.7726  0.5439200000000001  0.85408  1.0000
  C   C49       1.0  0.7442499999999997  0.61046  0.06796000000000002  1.0000
  C   C50       1.0  0.75575  0.11046000000000002  0.9320300000000001  1.0000
  C   C51       1.0  0.24423999999999998  0.11046000000000002  0.06796000000000002  1.0000
  C   C52       1.0  0.19424999999999998  0.5282  0.94435  1.0000
  C   C53       1.0  0.80575  0.5282  0.05565  1.0000
  C   C54       1.0  0.6942499999999998  0.028200000000000003  0.94435  1.0000
  C   C55       1.0  0.3057499999999999  0.028200000000000003  0.05565  1.0000
  C   C56       1.0  0.24279999999999996  0.72702  0.97467  1.0000
  C   C57       1.0  0.75721  0.72702  0.02533  1.0000
  C   C58       1.0  0.74279  0.22702  0.97467  1.0000
  C   C59       1.0  0.22739999999999996  0.5439200000000001  0.14592  1.0000
  C   C60       1.0  0.25721  0.22702  0.02533  1.0000
  C   C61       1.0  0.49757999999999997  0.69907  0.45979  1.0000
  C   C62       1.0  0.50242  0.69907  0.54021  1.0000
  C   C63       1.0  0.99758  0.19907  0.45979  1.0000
  C   C64       1.0  0.00242  0.19907  0.54021  1.0000
  C   C65       1.0  0.44438  0.8167700000000001  0.8623200000000001  1.0000
  C   C66       1.0  0.55563  0.8167700000000001  0.13768000000000005  1.0000
  C   C67       1.0  0.9443699999999999  0.31677  0.8623200000000001  1.0000
  C   C68       1.0  0.055629999999999985  0.31677  0.13768000000000005  1.0000
  C   C69       1.0  0.56738  0.88805  0.47346000000000005  1.0000
  C   C70       1.0  0.5198499999999999  0.72006  0.9646100000000001  1.0000
  C   C71       1.0  0.43262  0.88805  0.52654  1.0000
  C   C72       1.0  0.06737999999999998  0.38805  0.47346000000000005  1.0000
  C   C73       1.0  0.9326199999999999  0.38805  0.52654  1.0000
  C   C74       1.0  0.4458599999999999  0.89871  0.44537  1.0000
  C   C75       1.0  0.55414  0.89871  0.55463  1.0000
  C   C76       1.0  0.94586  0.39871  0.44537  1.0000
  C   C77       1.0  0.054139999999999994  0.39871  0.55463  1.0000
  C   C78       1.0  0.50957  0.8271600000000001  0.43052000000000007  1.0000
  C   C79       1.0  0.49044  0.8271600000000001  0.56948  1.0000
  C   C80       1.0  0.00957  0.32716  0.43052000000000007  1.0000
  C   C81       1.0  0.48014999999999997  0.72005  0.035390000000000005  1.0000
  C   C82       1.0  0.9904299999999999  0.32716  0.56948  1.0000
  C   C83       1.0  0.18192999999999995  0.65745  0.45849000000000006  1.0000
  C   C84       1.0  0.8180699999999997  0.65745  0.5415  1.0000
  C   C85       1.0  0.68193  0.15745  0.45849000000000006  1.0000
  C   C86       1.0  0.31807  0.15745  0.54151  1.0000
  C   C87       1.0  0.18049  0.6516  0.53895  1.0000
  C   C88       1.0  0.81951  0.6516  0.46105000000000007  1.0000
  C   C89       1.0  0.68049  0.1516  0.53895  1.0000
  C   C90       1.0  0.31950999999999996  0.1516  0.46105000000000007  1.0000
  C   C91       1.0  0.24232999999999993  0.45896  0.47296  1.0000
  C   C92       1.0  0.01985  0.22005  0.9646100000000001  1.0000
  C   C93       1.0  0.7576699999999997  0.45896  0.52703  1.0000
  C   C94       1.0  0.74233  0.9589600000000001  0.47296  1.0000
  C   C95       1.0  0.25767  0.9589600000000001  0.52704  1.0000
  C   C96       1.0  0.30824  0.634  0.44350000000000006  1.0000
  C   C97       1.0  0.6917599999999999  0.63399  0.5565  1.0000
  C   C98       1.0  0.80824  0.134  0.44350000000000006  1.0000
  C   C99       1.0  0.19175999999999996  0.134  0.5565  1.0000
  C   C100      1.0  0.24012  0.57491  0.42957000000000006  1.0000
  C   C101      1.0  0.7598799999999999  0.57491  0.57043  1.0000
  C   C102      1.0  0.74012  0.07491  0.42957000000000006  1.0000
  C   C103      1.0  0.9801499999999999  0.22006  0.035390000000000005  1.0000
  C   C104      1.0  0.25987999999999994  0.07491  0.57043  1.0000
  C   C105      1.0  0.2514  0.60609  0.56783  1.0000
  C   C106      1.0  0.7486  0.60609  0.43217  1.0000
  C   C107      1.0  0.7513999999999998  0.10608  0.56783  1.0000
  C   C108      1.0  0.24859999999999996  0.10609  0.43217  1.0000
  C   C109      1.0  0.25572  0.47502000000000005  0.55368  1.0000
  C   C110      1.0  0.74428  0.47502000000000005  0.44631  1.0000
  C   C111      1.0  0.7557099999999999  0.97502  0.55368  1.0000
  C   C112      1.0  0.24427999999999994  0.97502  0.44631  1.0000
  C   C113      1.0  0.26243  0.64227  0.85498  1.0000
  C   C114      1.0  0.31012  0.52592  0.04347  1.0000
  C   C115      1.0  0.7375699999999997  0.64227  0.14502  1.0000
  C   C116      1.0  0.76243  0.14227  0.85498  1.0000
  C   C117      1.0  0.23756999999999998  0.14227  0.14502  1.0000
  C   C118      1.0  0.31012  0.662  0.52419  1.0000
  C   C119      1.0  0.68988  0.662  0.47581000000000007  1.0000
  C   C120      1.0  0.8101199999999997  0.162  0.52419  1.0000
  C   C121      1.0  0.18988  0.162  0.47581000000000007  1.0000
  C   C122      1.0  0.27300999999999986  0.04427  0.64618  1.0000
  C   C123      1.0  0.72699  0.04428  0.35382  1.0000
  C   C124      1.0  0.7730099999999999  0.54427  0.64618  1.0000
  Cr  Cr1       1.0  0.22961999999999996  0.8360400000000001  0.74911  1.0000
  Cr  Cr2       1.0  0.61398  0.67659  0.25079  1.0000
  Cr  Cr3       1.0  0.8860199999999999  0.17659  0.74921  1.0000
  Cr  Cr4       1.0  0.11397999999999997  0.17659  0.25079  1.0000
  Cr  Cr5       1.0  0.7703799999999998  0.8360400000000001  0.25089  1.0000
  Cr  Cr6       1.0  0.72962  0.33604  0.74911  1.0000
  Cr  Cr7       1.0  0.27038  0.33604  0.25089  1.0000
  Cr  Cr8       1.0  0.3876299999999999  0.99068  0.75073  1.0000
  Cr  Cr9       1.0  0.61237  0.99068  0.24927  1.0000
  Cr  Cr10      1.0  0.88763  0.49068  0.75073  1.0000
  Cr  Cr11      1.0  0.11236999999999998  0.49068  0.24927  1.0000
  Cr  Cr12      1.0  0.38601999999999986  0.67659  0.74921  1.0000
  H   H1        1.0  0.37716  0.80467  0.01588  1.0000
  H   H2        1.0  0.70645  0.7435600000000002  0.9188500000000001  1.0000
  H   H3        1.0  0.22004999999999997  0.89699  0.54944  1.0000
  H   H4        1.0  0.30786  0.44282  0.56818  1.0000
  H   H5        1.0  0.69214  0.44282  0.43182  1.0000
  H   H6        1.0  0.80785  0.94282  0.56818  1.0000
  H   H7        1.0  0.19214  0.94282  0.43182  1.0000
  H   H8        1.0  0.31393999999999994  0.43207000000000007  0.054310000000000004  1.0000
  H   H9        1.0  0.6860599999999999  0.43207000000000007  0.9456900000000001  1.0000
  H   H10       1.0  0.81394  0.93207  0.054310000000000004  1.0000
  H   H11       1.0  0.18605999999999998  0.93207  0.9456900000000001  1.0000
  H   H12       1.0  0.35304  0.566  0.07439  1.0000
  H   H13       1.0  0.79355  0.24356  0.08115  1.0000
  H   H14       1.0  0.64696  0.566  0.9256100000000002  1.0000
  H   H15       1.0  0.85304  0.066  0.07439  1.0000
  H   H16       1.0  0.14696  0.066  0.9256100000000002  1.0000
  H   H17       1.0  0.36608  0.60756  0.9557200000000001  1.0000
  H   H18       1.0  0.63392  0.6075700000000002  0.04428  1.0000
  H   H19       1.0  0.8660799999999997  0.10756  0.9557200000000001  1.0000
  H   H20       1.0  0.13392  0.10757  0.04428  1.0000
  H   H21       1.0  0.3309699999999999  0.4656200000000001  0.9347100000000002  1.0000
  H   H22       1.0  0.66902  0.46563000000000004  0.06529  1.0000
  H   H23       1.0  0.83098  0.96562  0.9347100000000002  1.0000
  H   H24       1.0  0.20643999999999998  0.24356  0.9188500000000001  1.0000
  H   H25       1.0  0.16902  0.96563  0.06529  1.0000
  H   H26       1.0  0.66339  0.9436  0.04483  1.0000
  H   H27       1.0  0.33661  0.9436  0.95517  1.0000
  H   H28       1.0  0.16339  0.4436  0.04483  1.0000
  H   H29       1.0  0.83661  0.4436  0.95517  1.0000
  H   H30       1.0  0.7074099999999998  0.93784  0.9271600000000001  1.0000
  H   H31       1.0  0.29259  0.93784  0.07284  1.0000
  H   H32       1.0  0.20740999999999998  0.43784000000000006  0.9271600000000001  1.0000
  H   H33       1.0  0.79259  0.43784000000000006  0.07284  1.0000
  H   H34       1.0  0.27832  0.79499  0.95722  1.0000
  H   H35       1.0  0.72168  0.79499  0.04278  1.0000
  H   H36       1.0  0.77832  0.29499  0.95722  1.0000
  H   H37       1.0  0.22167999999999996  0.295  0.04278  1.0000
  H   H38       1.0  0.18994  0.75483  0.96106  1.0000
  H   H39       1.0  0.8100599999999998  0.75483  0.03894000000000001  1.0000
  H   H40       1.0  0.68994  0.25483  0.96106  1.0000
  H   H41       1.0  0.62284  0.80468  0.9841200000000001  1.0000
  H   H42       1.0  0.31006  0.25482  0.03894000000000001  1.0000
  H   H43       1.0  0.14954  0.55563  0.9109600000000001  1.0000
  H   H44       1.0  0.85046  0.55562  0.08904000000000001  1.0000
  H   H45       1.0  0.64954  0.05563  0.9109600000000001  1.0000
  H   H46       1.0  0.35046  0.05562  0.08904000000000001  1.0000
  H   H47       1.0  0.5329  0.63009  0.44033000000000005  1.0000
  H   H48       1.0  0.4671  0.63009  0.55967  1.0000
  H   H49       1.0  0.0329  0.13009  0.44033000000000005  1.0000
  H   H50       1.0  0.9670999999999997  0.13009  0.55967  1.0000
  H   H51       1.0  0.44634  0.66881  0.44252  1.0000
  H   H52       1.0  0.8771599999999998  0.30468  0.01588  1.0000
  H   H53       1.0  0.55366  0.66881  0.5574800000000001  1.0000
  H   H54       1.0  0.9463399999999998  0.16881  0.44252  1.0000
  H   H55       1.0  0.05366  0.16881  0.5574800000000001  1.0000
  H   H56       1.0  0.6083299999999999  0.82795  0.46622  1.0000
  H   H57       1.0  0.39167  0.82795  0.5337800000000001  1.0000
  H   H58       1.0  0.10832999999999997  0.32796  0.46622  1.0000
  H   H59       1.0  0.8916699999999999  0.32795  0.5337800000000001  1.0000
  H   H60       1.0  0.59857  0.8655600000000001  0.5861700000000001  1.0000
  H   H61       1.0  0.40143  0.86557  0.4138300000000001  1.0000
  H   H62       1.0  0.09856999999999998  0.36556000000000005  0.5861700000000001  1.0000
  H   H63       1.0  0.12284  0.30467  0.9841200000000001  1.0000
  H   H64       1.0  0.9014299999999998  0.36556000000000005  0.4138300000000001  1.0000
  H   H65       1.0  0.46431  0.99163  0.0671  1.0000
  H   H66       1.0  0.53569  0.99164  0.9329000000000001  1.0000
  H   H67       1.0  0.96431  0.49164  0.0671  1.0000
  H   H68       1.0  0.03569  0.49163  0.9329000000000001  1.0000
  H   H69       1.0  0.45530999999999994  0.99224  0.43029000000000006  1.0000
  H   H70       1.0  0.54469  0.99224  0.56971  1.0000
  H   H71       1.0  0.9552999999999998  0.49224  0.43029000000000006  1.0000
  H   H72       1.0  0.04469  0.49224  0.56971  1.0000
  H   H73       1.0  0.42099  0.9754700000000001  0.54899  1.0000
  H   H74       1.0  0.20311999999999997  0.7591100000000001  0.08288  1.0000
  H   H75       1.0  0.5790099999999998  0.9754700000000001  0.4510100000000001  1.0000
  H   H76       1.0  0.921  0.47547000000000006  0.54899  1.0000
  H   H77       1.0  0.07900999999999997  0.47547000000000006  0.4510100000000001  1.0000
  H   H78       1.0  0.12942  0.63836  0.43931  1.0000
  H   H79       1.0  0.87058  0.63835  0.56069  1.0000
  H   H80       1.0  0.6294199999999998  0.13836  0.43931  1.0000
  H   H81       1.0  0.37058  0.13836  0.56069  1.0000
  H   H82       1.0  0.19209999999999997  0.74882  0.4407400000000001  1.0000
  H   H83       1.0  0.8078999999999997  0.74882  0.55926  1.0000
  H   H84       1.0  0.6921  0.24882  0.4407400000000001  1.0000
  H   H85       1.0  0.79688  0.7591100000000001  0.91712  1.0000
  H   H86       1.0  0.3079  0.24882  0.55926  1.0000
  H   H87       1.0  0.16395  0.73924  0.55817  1.0000
  H   H88       1.0  0.83605  0.73924  0.44183000000000006  1.0000
  H   H89       1.0  0.66395  0.23924  0.55817  1.0000
  H   H90       1.0  0.33604999999999996  0.23924  0.44183000000000006  1.0000
  H   H91       1.0  0.13988  0.59061  0.5567300000000001  1.0000
  H   H92       1.0  0.8601199999999999  0.59061  0.44326000000000004  1.0000
  H   H93       1.0  0.6398799999999999  0.09061  0.5567300000000001  1.0000
  H   H94       1.0  0.3601199999999999  0.09061  0.44326000000000004  1.0000
  H   H95       1.0  0.69151  0.92798  0.46671000000000007  1.0000
  H   H96       1.0  0.7031199999999999  0.25911  0.08287  1.0000
  H   H97       1.0  0.30849  0.92798  0.53329  1.0000
  H   H98       1.0  0.19151  0.4279800000000001  0.46671000000000007  1.0000
  H   H99       1.0  0.8084899999999998  0.4279800000000001  0.53328  1.0000
  H   H100      1.0  0.7175199999999998  0.9256  0.5859  1.0000
  H   H101      1.0  0.28247999999999995  0.9256  0.41409  1.0000
  H   H102      1.0  0.21752  0.4256  0.5859  1.0000
  H   H103      1.0  0.7824699999999999  0.4256  0.41409  1.0000
  H   H104      1.0  0.35034  0.57232  0.42905  1.0000
  H   H105      1.0  0.6496699999999999  0.57231  0.57095  1.0000
  H   H106      1.0  0.8503299999999999  0.07232  0.42905  1.0000
  H   H107      1.0  0.2968799999999999  0.25911  0.91712  1.0000
  H   H108      1.0  0.14965999999999996  0.07231  0.57095  1.0000
  H   H109      1.0  0.31363  0.7156200000000001  0.41099  1.0000
  H   H110      1.0  0.68637  0.7156200000000001  0.5890100000000001  1.0000
  H   H111      1.0  0.8136299999999999  0.21563000000000002  0.41100000000000003  1.0000
  H   H112      1.0  0.18636999999999998  0.21562  0.5890100000000001  1.0000
  H   H113      1.0  0.53547  0.63923  0.93541  1.0000
  H   H114      1.0  0.46453999999999995  0.63923  0.06459  1.0000
  H   H115      1.0  0.03547  0.13923  0.93541  1.0000
  H   H116      1.0  0.9645299999999999  0.13923  0.06459  1.0000
  H   H117      1.0  0.2995  0.7533100000000001  0.52934  1.0000
  H   H118      1.0  0.29356  0.7435600000000002  0.08115  1.0000
  H   H119      1.0  0.7005  0.7533100000000001  0.47066  1.0000
  H   H120      1.0  0.7994999999999999  0.25331  0.5293500000000001  1.0000
  H   H121      1.0  0.2005  0.25331  0.47066  1.0000
  H   H122      1.0  0.36029  0.63784  0.54681  1.0000
  H   H123      1.0  0.63971  0.63784  0.45319  1.0000
  H   H124      1.0  0.86029  0.13784  0.54681  1.0000
  H   H125      1.0  0.13971  0.13784  0.45319  1.0000
  H   H126      1.0  0.27995  0.39699  0.45055  1.0000
  H   H127      1.0  0.72005  0.39699  0.54944  1.0000
  H   H128      1.0  0.77995  0.897  0.45055  1.0000
  N   N1        1.0  0.56615  0.16079000000000002  0.04473  1.0000
  N   N2        1.0  0.4338499999999999  0.16079000000000002  0.95527  1.0000
  N   N3        1.0  0.06615999999999998  0.66079  0.04473  1.0000
  N   N4        1.0  0.9338499999999998  0.66078  0.95527  1.0000
  O   O1        1.0  0.21412999999999996  0.70857  0.82989  1.0000
  O   O2        1.0  0.54283  0.7173  0.33162000000000014  1.0000
  O   O3        1.0  0.95717  0.2173  0.66838  1.0000
  O   O4        1.0  0.04283  0.2173  0.33162000000000014  1.0000
  O   O5        1.0  0.32087  0.62489  0.67313  1.0000
  O   O6        1.0  0.67913  0.62489  0.32687  1.0000
  O   O7        1.0  0.8208699999999999  0.12489000000000003  0.67313  1.0000
  O   O8        1.0  0.17913  0.12489000000000003  0.32687  1.0000
  O   O9        1.0  0.33443  0.83443  0.7496800000000001  1.0000
  O   O10       1.0  0.6655699999999999  0.83443  0.25032  1.0000
  O   O11       1.0  0.8344299999999999  0.33443  0.7496800000000001  1.0000
  O   O12       1.0  0.7858699999999998  0.70857  0.17011000000000004  1.0000
  O   O13       1.0  0.16557  0.33443  0.25032  1.0000
  O   O14       1.0  0.23605  0.9591500000000002  0.8252700000000002  1.0000
  O   O15       1.0  0.76395  0.9591500000000002  0.17473  1.0000
  O   O16       1.0  0.73605  0.45915  0.8252700000000002  1.0000
  O   O17       1.0  0.26395  0.45915  0.17473  1.0000
  O   O18       1.0  0.3321  0.07665  0.8323100000000001  1.0000
  O   O19       1.0  0.6679  0.07665  0.16769  1.0000
  O   O20       1.0  0.8321  0.57665  0.8323100000000001  1.0000
  O   O21       1.0  0.1679  0.57665  0.16769  1.0000
  O   O22       1.0  0.44649999999999995  0.91862  0.8262400000000001  1.0000
  O   O23       1.0  0.71413  0.20857  0.82989  1.0000
  O   O24       1.0  0.5535  0.91862  0.17376  1.0000
  O   O25       1.0  0.9465  0.41862000000000005  0.8262400000000001  1.0000
  O   O26       1.0  0.05349999999999999  0.41862000000000005  0.17376  1.0000
  O   O27       1.0  0.4573099999999999  0.71583  0.83128  1.0000
  O   O28       1.0  0.54269  0.71583  0.16872  1.0000
  O   O29       1.0  0.9573099999999998  0.21583000000000002  0.83128  1.0000
  O   O30       1.0  0.04269  0.21583000000000002  0.16872  1.0000
  O   O31       1.0  0.321  0.62352  0.8241300000000001  1.0000
  O   O32       1.0  0.679  0.62352  0.17587  1.0000
  O   O33       1.0  0.8209999999999997  0.12352000000000002  0.8241300000000001  1.0000
  O   O34       1.0  0.28587  0.20857  0.17011000000000004  1.0000
  O   O35       1.0  0.179  0.12352000000000002  0.17587  1.0000
  O   O36       1.0  0.21398999999999996  0.71004  0.667  1.0000
  O   O37       1.0  0.78601  0.71004  0.3330000000000001  1.0000
  O   O38       1.0  0.71399  0.21004  0.667  1.0000
  O   O39       1.0  0.28601  0.21004  0.3330000000000001  1.0000
  O   O40       1.0  0.23592  0.9605200000000002  0.67426  1.0000
  O   O41       1.0  0.7640799999999999  0.9605200000000002  0.32574  1.0000
  O   O42       1.0  0.73592  0.46052000000000004  0.67426  1.0000
  O   O43       1.0  0.2640799999999999  0.46052000000000004  0.32574  1.0000
  O   O44       1.0  0.3319599999999999  0.07812  0.66941  1.0000
  O   O45       1.0  0.44636  0.9199900000000001  0.6752300000000002  1.0000
  O   O46       1.0  0.66804  0.07812  0.33059000000000005  1.0000
  O   O47       1.0  0.8319599999999999  0.57812  0.66941  1.0000
  O   O48       1.0  0.16804  0.57812  0.33059000000000005  1.0000
  O   O49       1.0  0.5536399999999999  0.9199900000000001  0.32477  1.0000
  O   O50       1.0  0.9463599999999999  0.41999  0.6752300000000002  1.0000
  O   O51       1.0  0.053639999999999986  0.41999  0.32477  1.0000
  O   O52       1.0  0.45717  0.7173  0.66838  1.0000
