data_image0
_chemical_formula_structural       O2CO2CO2CO2CO2CO2CCr3OCHCHC2HCHC8H2C7H4CHCHC3HC2HCHC2HC3HC3HCHC2HCHC2HCHCO2CO2CO2CO2CO2CO2CCr3ONO2CN2O2CNCN
_chemical_formula_sum              "O30 C59 Cr6 H23 N5"
_cell_length_a       10.90667
_cell_length_b       11.01332
_cell_length_c       18.8528
_cell_angle_alpha    90.50079
_cell_angle_beta     90.27414
_cell_angle_gamma    119.99964

_space_group_name_H-M_alt    "P 1"
_space_group_IT_number       1

loop_
  _space_group_symop_operation_xyz
  'x, y, z'

loop_
  _atom_site_type_symbol
  _atom_site_label
  _atom_site_symmetry_multiplicity
  _atom_site_fract_x
  _atom_site_fract_y
  _atom_site_fract_z
  _atom_site_occupancy
  O   O1        1.0  0.7664999999999998  0.25004  0.57979  1.0000
  O   O2        1.0  0.79857  0.51678  0.57478  1.0000
  C   C1        1.0  0.86701  0.63744  0.60417  1.0000
  O   O3        1.0  0.9839999999999998  0.7329499999999998  0.58109  1.0000
  O   O4        1.0  0.21859999999999993  0.7008899999999999  0.57476  1.0000
  C   C2        1.0  0.2707799999999999  0.6332999999999999  0.60365  1.0000
  O   O5        1.0  0.24939  0.51535  0.57994  1.0000
  O   O6        1.0  0.98279  0.2809  0.5737  1.0000
  C   C3        1.0  0.8895  0.29385  0.6104  1.0000
  O   O7        1.0  0.7665999999999998  0.25113  0.41926  1.0000
  O   O8        1.0  0.79866  0.51779  0.42598  1.0000
  C   C4        1.0  0.9024199999999999  0.6141  0.38976  1.0000
  O   O9        1.0  0.9841  0.73404  0.42057000000000005  1.0000
  O   O10       1.0  0.21868999999999997  0.7018999999999999  0.42596000000000006  1.0000
  C   C5        1.0  0.26834  0.63181  0.39568  1.0000
  O   O11       1.0  0.24948999999999985  0.5164399999999998  0.41942  1.0000
  O   O12       1.0  0.98288  0.28191  0.42489  1.0000
  C   C6        1.0  0.8639999999999999  0.23464  0.39405000000000007  1.0000
  Cr  Cr1       1.0  0.7916599999999999  0.39025  0.49993000000000004  1.0000
  Cr  Cr2       1.0  0.09851999999999998  0.70829  0.50054  1.0000
  Cr  Cr3       1.0  0.10976999999999999  0.40142999999999995  0.49948000000000004  1.0000
  O   O13       1.0  0.9999799999999999  0.49999  0.49998  1.0000
  C   C7        1.0  0.25293  0.72416  0.72012  1.0000
  H   H1        1.0  0.17861999999999997  0.75266  0.69877  1.0000
  C   C8        1.0  0.2715  0.72818  0.7931500000000002  1.0000
  H   H2        1.0  0.21276999999999988  0.7594399999999998  0.8274200000000002  1.0000
  C   C9        1.0  0.36239999999999983  0.6867799999999997  0.8214  1.0000
  C   C10       1.0  0.4336499999999998  0.6404299999999998  0.7767800000000001  1.0000
  H   H3        1.0  0.50047  0.60327  0.79861  1.0000
  C   C11       1.0  0.41488999999999987  0.6354599999999999  0.7041300000000003  1.0000
  H   H4        1.0  0.46633  0.59409  0.67068  1.0000
  C   C12       1.0  0.3215  0.67359  0.6757200000000002  1.0000
  C   C13       1.0  0.83625  0.15942999999999996  0.8243  1.0000
  C   C14       1.0  0.09873999999999995  0.27469999999999994  0.84464  1.0000
  C   C15       1.0  0.22824000000000005  0.31056000000000006  0.8143600000000001  1.0000
  C   C16       1.0  0.24105  0.31455  0.74152  1.0000
  C   C17       1.0  0.12886  0.29369  0.6981600000000002  1.0000
  C   C18       1.0  0.9967599999999999  0.26366  0.72671  1.0000
  C   C19       1.0  0.9772  0.23368999999999998  0.8001000000000003  1.0000
  H   H5        1.0  0.3210799999999999  0.3397599999999999  0.8471400000000002  1.0000
  H   H6        1.0  0.34254  0.3463  0.7183900000000001  1.0000
  C   C20       1.0  0.757  0.23282999999999998  0.72216  1.0000
  C   C21       1.0  0.72293  0.15012999999999999  0.78149  1.0000
  C   C22       1.0  0.6564399999999999  0.2687  0.69683  1.0000
  C   C23       1.0  0.5180899999999998  0.20112  0.71979  1.0000
  C   C24       1.0  0.47598  0.09842  0.77041  1.0000
  C   C25       1.0  0.57619  0.06675  0.7972000000000002  1.0000
  C   C26       1.0  0.8842099999999999  0.26531999999999994  0.68703  1.0000
  H   H7        1.0  0.1525199999999999  0.30146999999999996  0.6431400000000002  1.0000
  H   H8        1.0  0.53749  0.9769  0.83003  1.0000
  H   H9        1.0  0.44377  0.22647999999999996  0.69638  1.0000
  H   H10       1.0  0.68169  0.34797  0.65845  1.0000
  C   C27       1.0  0.78625  0.73057  0.70172  1.0000
  H   H11       1.0  0.7580399999999999  0.7873199999999999  0.6645800000000001  1.0000
  C   C28       1.0  0.7710799999999999  0.74258  0.77407  1.0000
  H   H12       1.0  0.7336399999999997  0.81167  0.79266  1.0000
  C   C29       1.0  0.80476  0.66697  0.8224600000000001  1.0000
  C   C30       1.0  0.8662399999999999  0.5892999999999999  0.7991900000000001  1.0000
  C   C31       1.0  0.88662  0.58226  0.7269300000000002  1.0000
  H   H13       1.0  0.9402899999999997  0.52818  0.70825  1.0000
  C   C32       1.0  0.8408799999999997  0.6473699999999999  0.67827  1.0000
  C   C33       1.0  0.24459999999999998  0.54272  0.27532  1.0000
  H   H14       1.0  0.18118999999999996  0.43735999999999997  0.29526  1.0000
  C   C34       1.0  0.26066  0.5591  0.20297  1.0000
  H   H15       1.0  0.21600999999999995  0.46652999999999994  0.16903  1.0000
  C   C35       1.0  0.34116  0.69282  0.17504  1.0000
  C   C36       1.0  0.39719  0.8114599999999998  0.22006  1.0000
  H   H16       1.0  0.46235  0.9152299999999999  0.19855  1.0000
  C   C37       1.0  0.3818399999999999  0.7963099999999997  0.2937200000000001  1.0000
  C   C38       1.0  0.30708  0.65964  0.32142  1.0000
  C   C39       1.0  0.7898099999999998  0.25777  0.27548000000000006  1.0000
  H   H17       1.0  0.73731  0.3100399999999999  0.29849  1.0000
  C   C40       1.0  0.7898599999999999  0.24444  0.20263  1.0000
  C   C41       1.0  0.8538299999999999  0.17247999999999994  0.17233000000000004  1.0000
  C   C42       1.0  0.9312099999999999  0.13045999999999996  0.21556000000000003  1.0000
  H   H18       1.0  0.98193  0.07574999999999998  0.19348  1.0000
  C   C43       1.0  0.93292  0.14715  0.28874000000000005  1.0000
  H   H19       1.0  0.99037  0.11204  0.32181000000000004  1.0000
  C   C44       1.0  0.8565399999999999  0.20490999999999995  0.3188200000000001  1.0000
  C   C45       1.0  0.9855099999999999  0.6872399999999997  0.2688  1.0000
  H   H20       1.0  0.09325000000000001  0.72932  0.28753  1.0000
  C   C46       1.0  0.96066  0.70104  0.19797000000000006  1.0000
  H   H21       1.0  0.050069999999999996  0.75505  0.16293000000000002  1.0000
  C   C47       1.0  0.82192  0.65231  0.17364000000000002  1.0000
  C   C48       1.0  0.70784  0.58405  0.22012  1.0000
  H   H22       1.0  0.60022  0.54841  0.20262000000000005  1.0000
  C   C49       1.0  0.7327399999999998  0.5679999999999998  0.29074  1.0000
  H   H23       1.0  0.64375  0.51767  0.32628  1.0000
  C   C50       1.0  0.8721599999999997  0.6227299999999999  0.31553  1.0000
  O   O14       1.0  0.89511  0.80686  0.9204300000000001  1.0000
  O   O15       1.0  0.87226  0.04696999999999999  0.9250000000000002  1.0000
  C   C51       1.0  0.8015299999999999  0.09584  0.8937600000000001  1.0000
  O   O16       1.0  0.69143  0.08506  0.91855  1.0000
  O   O17       1.0  0.45148999999999984  0.82246  0.92525  1.0000
  C   C52       1.0  0.39693999999999996  0.7006  0.89608  1.0000
  O   O18       1.0  0.41333  0.60336  0.92044  1.0000
  O   O19       1.0  0.6761099999999999  0.62625  0.92675  1.0000
  C   C53       1.0  0.79592  0.69266  0.89681  1.0000
  O   O20       1.0  0.8953499999999999  0.80987  0.08095  1.0000
  O   O21       1.0  0.8724899999999999  0.04976  0.0738  1.0000
  C   C54       1.0  0.81012  0.10945999999999999  0.10184  1.0000
  O   O22       1.0  0.69168  0.08807  0.07907000000000002  1.0000
  O   O23       1.0  0.45172  0.82525  0.07405  1.0000
  C   C55       1.0  0.39587999999999995  0.7057  0.10365  1.0000
  O   O24       1.0  0.41357999999999984  0.6063699999999997  0.08096  1.0000
  O   O25       1.0  0.67634  0.62904  0.07555  1.0000
  C   C56       1.0  0.7986699999999999  0.6947099999999999  0.10436  1.0000
  Cr  Cr4       1.0  0.87479  0.92589  7e-05  1.0000
  Cr  Cr5       1.0  0.57412  0.94867  0.9993000000000001  1.0000
  Cr  Cr6       1.0  0.55142  0.62532  0.00092  1.0000
  O   O26       1.0  0.66678  0.83329  9e-05  1.0000
  N   N1        1.0  0.33601  0.0352  0.7989  1.0000
  O   O27       1.0  0.31719  0.009979999999999996  0.86647  1.0000
  O   O28       1.0  0.23034  0.01997  0.75989  1.0000
  C   C57       1.0  0.9152399999999998  0.5240699999999999  0.84904  1.0000
  N   N2        1.0  0.95454  0.47325999999999996  0.8899400000000001  1.0000
  N   N3        1.0  0.4467599999999999  0.9188799999999999  0.33898  1.0000
  O   O29       1.0  0.50132  0.91614  0.40007  1.0000
  O   O30       1.0  0.46443  0.03776  0.31623  1.0000
  C   C58       1.0  0.71415  0.29565  0.16069000000000003  1.0000
  N   N4        1.0  0.65227  0.334  0.12635000000000002  1.0000
  C   C59       1.0  0.10183999999999999  0.30261  0.91995  1.0000
  N   N5        1.0  0.10539999999999995  0.3258899999999999  0.98016  1.0000
