data_image0
_chemical_formula_structural       C60Cr6H43NO29
_chemical_formula_sum              "C60 Cr6 H43 N1 O29"
_cell_length_a       10.97724
_cell_length_b       11.00139
_cell_length_c       18.8113
_cell_angle_alpha    90.46461000000001
_cell_angle_beta     90.03458000000002
_cell_angle_gamma    60.17564000000001

_symmetry_space_group_name_H-M    'P 1'
_symmetry_Int_Tables_number       1

loop_
  _symmetry_equiv_pos_as_xyz
  'x,y,z'

loop_
  _atom_site_type_symbol
  _atom_site_label
  _atom_site_symmetry_multiplicity
  _atom_site_fract_x
  _atom_site_fract_y
  _atom_site_fract_z
  _atom_site_occupancy
  C   C1        1.0  0.23663999999999996  0.64681  0.60962  1.0000
  C   C2        1.0  0.56802  0.15745  0.71266  1.0000
  C   C3        1.0  0.56689  0.16217  0.78594  1.0000
  C   C4        1.0  0.6531  0.62078  0.60167  1.0000
  C   C5        1.0  0.9199099999999999  0.14585  0.78721  1.0000
  C   C6        1.0  0.92021  0.13020000000000004  0.70657  1.0000
  C   C7        1.0  0.6686299999999997  0.17164000000000004  0.67385  1.0000
  C   C8        1.0  0.17612999999999998  0.66629  0.83375  1.0000
  C   C9        1.0  0.13966999999999993  0.58327  0.79193  1.0000
  C   C10       1.0  0.14709999999999995  0.58262  0.71826  1.0000
  C   C11       1.0  0.20558999999999997  0.7651900000000001  0.725  1.0000
  C   C12       1.0  0.7626399999999999  0.5185000000000001  0.79402  1.0000
  C   C13       1.0  0.21269999999999997  0.75462  0.79871  1.0000
  C   C14       1.0  0.1957699999999999  0.42913000000000007  0.79373  1.0000
  C   C15       1.0  0.20167999999999997  0.42926000000000003  0.71303  1.0000
  C   C16       1.0  0.6295199999999999  0.22647000000000003  0.60212  1.0000
  C   C17       1.0  0.18589999999999995  0.66961  0.68315  1.0000
  C   C18       1.0  0.6531699999999998  0.65829  0.1654  1.0000
  C   C19       1.0  0.7508  0.53771  0.2021  1.0000
  C   C20       1.0  0.7458199999999999  0.53184  0.27478  1.0000
  C   C21       1.0  0.53039  0.75161  0.27776  1.0000
  C   C22       1.0  0.5346499999999997  0.7589200000000002  0.20309  1.0000
  C   C23       1.0  0.6953300000000001  0.67532  0.81364  1.0000
  C   C24       1.0  0.90909  0.46298  0.20408  1.0000
  C   C25       1.0  0.90092  0.45786  0.28398  1.0000
  C   C26       1.0  0.6432999999999998  0.6421  0.31453  1.0000
  C   C27       1.0  0.63411  0.18926000000000004  0.16864  1.0000
  C   C28       1.0  0.22122  0.64878  0.40194  1.0000
  C   C29       1.0  0.51789  0.20484  0.20696  1.0000
  C   C30       1.0  0.51488  0.21692  0.27963  1.0000
  C   C31       1.0  0.72797  0.22807  0.27724  1.0000
  C   C32       1.0  0.7298800000000001  0.21846  0.20312  1.0000
  C   C33       1.0  0.45187999999999995  0.11417  0.20975  1.0000
  C   C34       1.0  0.6689899999999999  0.64551  0.67765  1.0000
  C   C35       1.0  0.44795999999999997  0.12909  0.28977  1.0000
  C   C36       1.0  0.6265  0.21407  0.31636  1.0000
  C   C37       1.0  0.11901  0.69019  0.18835  1.0000
  C   C38       1.0  0.06960999999999991  0.8097000000000001  0.23151  1.0000
  C   C39       1.0  0.08277999999999985  0.8007400000000002  0.3038  1.0000
  C   C40       1.0  0.6390700000000001  0.61947  0.3905  1.0000
  C   C41       1.0  0.17831999999999995  0.55016  0.29384  1.0000
  C   C42       1.0  0.16517999999999994  0.5603200000000002  0.22013999999999997  1.0000
  C   C43       1.0  0.09903999999999992  0.9282000000000001  0.22778  1.0000
  C   C44       1.0  0.10911999999999997  0.92205  0.30784  1.0000
  C   C45       1.0  0.75847  0.7171700000000001  0.68869  1.0000
  C   C46       1.0  0.1496  0.66935  0.33534  1.0000
  C   C47       1.0  0.70071  0.10327000000000001  0.89624  1.0000
  C   C48       1.0  0.7209499999999996  0.6870200000000001  0.88941  1.0000
  C   C49       1.0  0.11815000000000002  0.7054  0.90564  1.0000
  C   C50       1.0  0.67264  0.1112  0.10241  1.0000
  C   C51       1.0  0.6953299999999999  0.68863  0.09696  1.0000
  C   C52       1.0  0.61186  0.23862  0.39223  1.0000
  C   C53       1.0  0.08924999999999995  0.71209  0.11373000000000001  1.0000
  C   C54       1.0  0.5363599999999998  0.7488000000000001  0.79455  1.0000
  C   C55       1.0  0.52241  0.72902  0.71416  1.0000
  C   C56       1.0  0.7448399999999997  0.5015700000000001  0.71516  1.0000
  C   C57       1.0  0.7669200000000003  0.74198  0.76919  1.0000
  C   C58       1.0  0.6767  0.16356  0.82462  1.0000
  C   C59       1.0  0.7669699999999999  0.19458  0.78617  1.0000
  C   C60       1.0  0.76512  0.19328  0.71244  1.0000
  Cr  Cr1       1.0  0.39296  0.39792  0.50224  1.0000
  Cr  Cr2       1.0  0.39833999999999997  0.7084800000000001  0.50125  1.0000
  Cr  Cr3       1.0  0.70867  0.39357  0.49646  1.0000
  Cr  Cr4       1.0  0.93765  0.93854  0.0076100000000000004  1.0000
  Cr  Cr5       1.0  0.6253299999999999  0.9373700000000001  0.99452  1.0000
  Cr  Cr6       1.0  0.9379399999999999  0.62523  0.00119  1.0000
  H   H1        1.0  0.85066  0.43360000000000004  0.6916  1.0000
  H   H2        1.0  0.4889  0.69619  0.82495  1.0000
  H   H3        1.0  0.23768000000000003  0.82281  0.82902  1.0000
  H   H4        1.0  0.11765000000000002  0.4022  0.81461  1.0000
  H   H5        1.0  0.29979  0.3743000000000001  0.81976  1.0000
  H   H6        1.0  0.30930999999999986  0.3734300000000001  0.69105  1.0000
  H   H7        1.0  0.12544999999999998  0.4043500000000001  0.68727  1.0000
  H   H8        1.0  0.44288000000000005  0.83402  0.30661  1.0000
  H   H9        1.0  0.4518799999999999  0.8481300000000002  0.17594  1.0000
  H   H10       1.0  0.95475  0.52705  0.18559  1.0000
  H   H11       1.0  0.9436899999999999  0.35054  0.30544  1.0000
  H   H12       1.0  0.87793  0.6942500000000001  0.78471  1.0000
  H   H13       1.0  0.4689199999999999  0.6667400000000002  0.70748  1.0000
  H   H14       1.0  0.9365399999999999  0.52382  0.31208  1.0000
  H   H15       1.0  0.8081099999999999  0.24106  0.30372  1.0000
  H   H16       1.0  0.8136599999999999  0.21937  0.17359  1.0000
  H   H17       1.0  0.52555  0.0059499999999999996  0.19157  1.0000
  H   H18       1.0  0.34594999999999987  0.16468  0.18513  1.0000
  H   H19       1.0  0.33964999999999995  0.18994  0.31158  1.0000
  H   H20       1.0  0.51764  0.02924  0.31751  1.0000
  H   H21       1.0  0.22502999999999998  0.44698000000000004  0.31699  1.0000
  H   H22       1.0  0.19598999999999997  0.46696  0.18825  1.0000
  H   H23       1.0  0.8666699999999999  0.64445  0.66897  1.0000
  H   H24       1.0  0.008839999999999995  0.02551000000000001  0.20804  1.0000
  H   H25       1.0  0.4556099999999999  0.83098  0.68762  1.0000
  H   H26       1.0  0.20069999999999993  0.8980000000000001  0.20111  1.0000
  H   H27       1.0  0.21511  0.89551  0.32634  1.0000
  H   H28       1.0  0.021659999999999995  0.014730000000000002  0.33466  1.0000
  H   H29       1.0  0.72038  0.85538  0.78144  1.0000
  H   H30       1.0  0.87689  0.46312000000000003  0.80578  1.0000
  H   H31       1.0  0.71384  0.46874  0.8257  1.0000
  H   H32       1.0  0.6808399999999998  0.45017  0.70806  1.0000
  H   H33       1.0  0.35352999999999996  0.9372300000000001  0.80895  1.0000
  H   H34       1.0  0.48560999999999993  0.14726000000000003  0.6865  1.0000
  H   H35       1.0  0.48546  0.95414  0.77741  1.0000
  H   H36       1.0  0.04120999999999999  0.03776000000000001  0.8624600000000001  1.0000
  H   H37       1.0  0.9790799999999998  0.34095000000000003  0.12191  1.0000
  H   H38       1.0  0.6092700000000001  0.90416  0.66339  1.0000
  H   H39       1.0  0.48516  0.15085  0.81161  1.0000
  H   H40       1.0  0.9443999999999999  0.22809  0.80491  1.0000
  H   H41       1.0  0.95222  0.19732000000000008  0.6777  1.0000
  H   H42       1.0  0.97088  0.01997  0.68726  1.0000
  H   H43       1.0  0.22887999999999997  0.8405000000000001  0.70113  1.0000
  N   N1        1.0  0.46132999999999996  0.89838  0.81387  1.0000
  O   O1        1.0  0.50738  0.2557  0.58144  1.0000
  O   O2        1.0  0.8371699999999997  0.59341  0.9152499999999999  1.0000
  O   O3        1.0  0.06519999999999995  0.63553  0.93157  1.0000
  O   O4        1.0  0.28031999999999996  0.52735  0.57893  1.0000
  O   O5        1.0  0.06826000000000002  0.82889  0.09184  1.0000
  O   O6        1.0  0.7988699999999999  0.05741000000000001  0.07934  1.0000
  O   O7        1.0  0.58493  0.08035000000000002  0.07678  1.0000
  O   O8        1.0  0.62696  0.80965  0.06706  1.0000
  O   O9        1.0  0.8160400000000001  0.59661  0.07651  1.0000
  O   O10       1.0  0.04561  0.6385  0.08106  1.0000
  O   O11       1.0  0.83364  0.8337100000000002  0.0011  1.0000
  O   O12       1.0  0.5244799999999997  0.6958100000000003  0.42404  1.0000
  O   O13       1.0  0.2605100000000001  0.73959  0.58459  1.0000
  O   O14       1.0  0.5323  0.69508  0.57382  1.0000
  O   O15       1.0  0.74484  0.5035  0.57637  1.0000
  O   O16       1.0  0.6991199999999999  0.27656  0.57196  1.0000
  O   O17       1.0  0.49893999999999994  0.2565  0.41986  1.0000
  O   O18       1.0  0.27249999999999996  0.5280800000000001  0.42915  1.0000
  O   O19       1.0  0.25206  0.7403800000000001  0.42301  1.0000
  O   O20       1.0  0.99508  0.01901  0.82179  1.0000
  O   O21       1.0  0.9701999999999998  0.32878000000000007  0.17345  1.0000
  O   O22       1.0  0.70842  0.8414400000000001  0.64976  1.0000
  O   O23       1.0  0.73639  0.50429  0.41479  1.0000
  O   O24       1.0  0.6912999999999999  0.27729000000000004  0.42217  1.0000
  O   O25       1.0  0.4999899999999999  0.49999000000000005  0.4999799999999999  1.0000
  O   O26       1.0  0.08939999999999992  0.8256900000000001  0.9305700000000001  1.0000
  O   O27       1.0  0.81846  0.05444  0.92985  1.0000
  O   O28       1.0  0.60606  0.07715  0.91551  1.0000
  O   O29       1.0  0.6465500000000001  0.80668  0.91757  1.0000
